REMARK  Name = ZINC06436737
REMARK  4 active torsions:
REMARK  status: ('A' for Active; 'I' for Inactive)
REMARK    1  A    between atoms: C_6  and  S_7
REMARK    2  A    between atoms: S_7  and  C_8
REMARK    3  A    between atoms: C_8  and  C_9
REMARK    4  A    between atoms: C_11  and  N_19
REMARK                            x       y       z     vdW  Elec       q    Type
REMARK                         _______ _______ _______ _____ _____    ______ ____
ROOT
ATOM      1  C   UNL     1      -1.955   1.776   3.684  0.00  0.00    +0.113 C 
ENDROOT
BRANCH   1   2
ATOM      2  C   UNL     1      -2.718   1.494   2.416  0.00  0.00    +0.007 A 
ATOM      3  C   UNL     1      -4.090   1.340   2.455  0.00  0.00    +0.040 A 
ATOM      4  C   UNL     1      -4.791   1.082   1.292  0.00  0.00    +0.127 A 
ATOM      5  C   UNL     1      -4.120   0.977   0.087  0.00  0.00    +0.042 A 
ATOM      6  C   UNL     1      -2.747   1.129   0.043  0.00  0.00    +0.022 A 
ATOM      7  C   UNL     1      -2.042   1.390   1.208  0.00  0.00    +0.133 A 
ATOM      8  O   UNL     1      -0.689   1.550   1.180  0.00  0.00    -0.466 OA
ATOM      9  C   UNL     1      -0.013   1.086   0.008  0.00  0.00    +0.394 C 
ATOM     10  O   UNL     1      -0.712   1.564  -1.147  0.00  0.00    -0.339 OA
ATOM     11  C   UNL     1      -2.025   1.010  -1.276  0.00  0.00    +0.202 C 
BRANCH   4  12
ATOM     12  N   UNL     1      -6.261   0.918   1.335  0.00  0.00    +0.056 N 
ATOM     13  O   UNL     1      -6.879   0.691   0.311  0.00  0.00    -0.126 OA
ATOM     14  O   UNL     1      -6.853   1.010   2.396  0.00  0.00    -0.126 OA
ENDBRANCH   4  12
ENDBRANCH   1   2
BRANCH   1  15
ATOM     15  S   UNL     1      -1.452   0.210   4.448  0.00  0.00    -0.120 S 
BRANCH  15  21
ATOM     16  C   UNL     1      -0.432   2.052   6.193  0.00  0.00    +0.018 A 
ATOM     17  C   UNL     1       0.245   2.442   7.335  0.00  0.00    +0.050 A 
ATOM     18  C   UNL     1       0.780   1.485   8.179  0.00  0.00    +0.162 A 
ATOM     19  C   UNL     1       0.636   0.136   7.886  0.00  0.00    +0.163 A 
ATOM     20  C   UNL     1      -0.045  -0.259   6.747  0.00  0.00    +0.064 A 
ATOM     21  C   UNL     1      -0.583   0.703   5.900  0.00  0.00    +0.012 A 
ATOM     22  O   UNL     1       1.168  -0.798   8.727  0.00  0.00    -0.488 OA
ATOM     23  C   UNL     1       2.595  -0.854   8.775  0.00  0.00    +0.232 C 
ATOM     24  C   UNL     1       3.143   0.174   9.752  0.00  0.00    +0.082 C 
ATOM     25  C   UNL     1       2.859   1.601   9.310  0.00  0.00    +0.232 C 
ATOM     26  O   UNL     1       1.454   1.861   9.306  0.00  0.00    -0.488 OA
ENDBRANCH  15  21
ENDBRANCH   1  15
TORSDOF 4
