REMARK  Name = ZINC27318980
REMARK  7 active torsions:
REMARK  status: ('A' for Active; 'I' for Inactive)
REMARK    1  A    between atoms: C_1  and  C_2
REMARK    2  A    between atoms: C_2  and  C_41
REMARK    3  A    between atoms: C_7  and  C_23
REMARK    4  A    between atoms: C_8  and  N_11
REMARK    5  A    between atoms: C_12  and  C_14
REMARK    6  A    between atoms: C_23  and  S_24
REMARK    7  A    between atoms: S_24  and  N_27
REMARK                            x       y       z     vdW  Elec       q    Type
REMARK                         _______ _______ _______ _____ _____    ______ ____
ROOT
ATOM      1  C   UNL     1       3.453  -6.322   2.320  0.00  0.00    +0.012 C 
ATOM      2  C   UNL     1       3.718  -5.032   1.542  0.00  0.00    -0.023 C 
ATOM      3  C   UNL     1       3.606  -3.760   2.456  0.00  0.00    -0.003 C 
ATOM      4  C   UNL     1       2.104  -3.834   2.869  0.00  0.00    +0.005 C 
ATOM      5  C   UNL     1       1.388  -4.431   1.635  0.00  0.00    +0.011 C 
ATOM      6  C   UNL     1       2.525  -4.661   0.593  0.00  0.00    +0.015 C 
ATOM      7  C   UNL     1       2.944  -3.226   0.150  0.00  0.00    +0.081 C 
ATOM      8  C   UNL     1       3.662  -2.628   1.381  0.00  0.00    +0.027 C 
ATOM      9  C   UNL     1       5.052  -5.084   0.794  0.00  0.00    +0.012 C 
ENDROOT
BRANCH   7  10
ATOM     10  N   UNL     1       1.762  -2.430  -0.189  0.00  0.00    -0.312 N 
ATOM     11  C   UNL     1       1.897  -1.286  -0.888  0.00  0.00    +0.215 C 
ATOM     12  O   UNL     1       2.998  -0.915  -1.237  0.00  0.00    -0.276 OA
ATOM     13  H   UNL     1       0.763  -2.766   0.128  0.00  0.00    +0.149 HD
BRANCH  11  14
ATOM     14  C   UNL     1       0.681  -0.467  -1.237  0.00  0.00    +0.061 C 
ATOM     15  C   UNL     1      -0.029  -0.031   0.048  0.00  0.00    -0.066 C 
ATOM     16  N   UNL     1      -0.066   1.436   0.111  0.00  0.00    +0.380 N 
ATOM     17  C   UNL     1       1.292   1.997   0.156  0.00  0.00    -0.079 C 
ATOM     18  C   UNL     1       2.056   1.608  -1.133  0.00  0.00    -0.015 C 
ATOM     19  C   UNL     1       1.109   0.784  -2.015  0.00  0.00    -0.004 C 
ATOM     20  C   UNL     1      -0.141   1.615  -2.330  0.00  0.00    -0.015 C 
ATOM     21  C   UNL     1      -0.828   1.994  -1.015  0.00  0.00    -0.079 C 
ATOM     22  H   UNL     1      -0.580   1.720   1.040  0.00  0.00    -0.082 HD
ENDBRANCH  11  14
ENDBRANCH   7  10
BRANCH   6  23
ATOM     23  C   UNL     1       2.227  -5.649  -0.536  0.00  0.00    +0.194 C 
BRANCH  23  24
ATOM     24  S   UNL     1       0.843  -5.030  -1.532  0.00  0.00    +0.032 S 
ATOM     25  O   UNL     1      -0.357  -5.052  -0.771  0.00  0.00    -0.158 OA
ATOM     26  O   UNL     1       1.233  -3.858  -2.236  0.00  0.00    -0.158 OA
BRANCH  24  27
ATOM     27  N   UNL     1       0.619  -6.174  -2.708  0.00  0.00    -0.181 NA
ATOM     28  C   UNL     1       1.328  -6.077  -3.992  0.00  0.00    +0.110 C 
ATOM     29  C   UNL     1       2.079  -7.396  -4.236  0.00  0.00    +0.028 C 
ATOM     30  C   UNL     1       1.100  -8.562  -4.133  0.00  0.00    -0.001 C 
ATOM     31  C   UNL     1       0.006  -8.427  -5.208  0.00  0.00    +0.016 C 
ATOM     32  C   UNL     1      -0.267  -9.899  -5.587  0.00  0.00    +0.036 C 
ATOM     33  C   UNL     1       1.017 -10.635  -5.269  0.00  0.00    -0.044 A 
ATOM     34  C   UNL     1       1.803  -9.864  -4.431  0.00  0.00    -0.038 A 
ATOM     35  C   UNL     1       3.031 -10.343  -4.007  0.00  0.00    +0.004 A 
ATOM     36  C   UNL     1       3.474 -11.585  -4.417  0.00  0.00    +0.000 A 
ATOM     37  C   UNL     1       2.689 -12.355  -5.255  0.00  0.00    +0.000 A 
ATOM     38  C   UNL     1       1.463 -11.880  -5.679  0.00  0.00    +0.004 A 
ATOM     39  C   UNL     1       0.463  -8.609  -2.746  0.00  0.00    +0.028 C 
ATOM     40  C   UNL     1      -0.296  -7.303  -2.489  0.00  0.00    +0.110 C 
ENDBRANCH  24  27
ENDBRANCH  23  24
ENDBRANCH   6  23
TORSDOF 5
