REMARK  Name = ZINC15081106
REMARK  11 active torsions:
REMARK  status: ('A' for Active; 'I' for Inactive)
REMARK    1  A    between atoms: C_1  and  C_2
REMARK    2  A    between atoms: C_2  and  O_41
REMARK    3  A    between atoms: C_6  and  C_30
REMARK    4  A    between atoms: C_8  and  C_23
REMARK    5  A    between atoms: C_10  and  C_12
REMARK    6  A    between atoms: N_14  and  C_15
REMARK    7  A    between atoms: C_20  and  O_21
REMARK    8  A    between atoms: O_21  and  C_22
REMARK    9  A    between atoms: N_32  and  C_33
REMARK   10  A    between atoms: C_38  and  O_39
REMARK   11  A    between atoms: O_39  and  C_40
REMARK                            x       y       z     vdW  Elec       q    Type
REMARK                         _______ _______ _______ _____ _____    ______ ____
ROOT
ATOM      1  C   UNL     1      -4.212   1.534   2.977  0.00  0.00    +0.042 C 
ATOM      2  C   UNL     1      -4.798   0.492   2.022  0.00  0.00    +0.082 C 
ATOM      3  C   UNL     1      -3.833  -0.693   1.905  0.00  0.00    +0.110 C 
ATOM      4  C   UNL     1      -2.558  -0.217   1.243  0.00  0.00    +0.148 C 
ATOM      5  O   UNL     1      -1.480  -0.441   1.741  0.00  0.00    -0.296 OA
ATOM      6  C   UNL     1      -2.668   0.551  -0.055  0.00  0.00    +0.149 C 
ATOM      7  C   UNL     1      -3.675   1.691   0.133  0.00  0.00    +0.053 C 
ATOM      8  C   UNL     1      -5.000   1.121   0.642  0.00  0.00    +0.115 C 
ENDROOT
BRANCH   7   9
ATOM      9  C   UNL     1      -3.900   2.385  -1.185  0.00  0.00    -0.042 A 
ATOM     10  C   UNL     1      -3.595   1.738  -2.368  0.00  0.00    +0.007 A 
ATOM     11  C   UNL     1      -3.807   2.371  -3.578  0.00  0.00    +0.038 A 
ATOM     12  C   UNL     1      -4.313   3.659  -3.605  0.00  0.00    +0.123 A 
ATOM     13  C   UNL     1      -4.613   4.309  -2.420  0.00  0.00    +0.038 A 
ATOM     14  C   UNL     1      -4.406   3.672  -1.211  0.00  0.00    +0.007 A 
ATOM     15  F   UNL     1      -4.514   4.282  -4.787  0.00  0.00    -0.205 F 
ENDBRANCH   7   9
BRANCH   8  16
ATOM     16  C   UNL     1      -5.495   0.071  -0.319  0.00  0.00    +0.224 C 
ATOM     17  O   UNL     1      -4.866  -0.174  -1.327  0.00  0.00    -0.275 OA
ATOM     18  N   UNL     1      -6.637  -0.596  -0.059  0.00  0.00    -0.282 N 
ATOM     19  H   UNL     1      -7.180  -0.348   0.706  0.00  0.00    +0.155 HD
BRANCH  18  20
ATOM     20  C   UNL     1      -7.040  -1.647  -0.893  0.00  0.00    +0.076 A 
ATOM     21  C   UNL     1      -6.091  -2.464  -1.490  0.00  0.00    +0.027 A 
ATOM     22  C   UNL     1      -6.492  -3.504  -2.307  0.00  0.00    +0.002 A 
ATOM     23  C   UNL     1      -7.836  -3.726  -2.542  0.00  0.00    +0.004 A 
ATOM     24  C   UNL     1      -8.787  -2.912  -1.954  0.00  0.00    +0.047 A 
ATOM     25  C   UNL     1      -8.395  -1.871  -1.129  0.00  0.00    +0.141 A 
BRANCH  25  26
ATOM     26  O   UNL     1      -9.329  -1.070  -0.551  0.00  0.00    -0.493 OA
ATOM     27  C   UNL     1     -10.698  -1.359  -0.839  0.00  0.00    +0.277 C 
ENDBRANCH  25  26
ENDBRANCH  18  20
ENDBRANCH   8  16
BRANCH   6  28
ATOM     28  C   UNL     1      -1.322   1.120  -0.422  0.00  0.00    +0.228 C 
ATOM     29  O   UNL     1      -1.180   2.320  -0.531  0.00  0.00    -0.275 OA
ATOM     30  N   UNL     1      -0.276   0.296  -0.630  0.00  0.00    -0.282 N 
ATOM     31  H   UNL     1      -0.407  -0.665  -0.621  0.00  0.00    +0.155 HD
BRANCH  30  32
ATOM     32  C   UNL     1       0.999   0.828  -0.863  0.00  0.00    +0.076 A 
ATOM     33  C   UNL     1       1.319   2.097  -0.402  0.00  0.00    +0.027 A 
ATOM     34  C   UNL     1       2.577   2.619  -0.634  0.00  0.00    +0.002 A 
ATOM     35  C   UNL     1       3.520   1.880  -1.324  0.00  0.00    +0.004 A 
ATOM     36  C   UNL     1       3.209   0.615  -1.787  0.00  0.00    +0.047 A 
ATOM     37  C   UNL     1       1.951   0.082  -1.554  0.00  0.00    +0.141 A 
BRANCH  37  38
ATOM     38  O   UNL     1       1.646  -1.165  -2.002  0.00  0.00    -0.493 OA
ATOM     39  C   UNL     1       2.671  -1.872  -2.702  0.00  0.00    +0.277 C 
ENDBRANCH  37  38
ENDBRANCH  30  32
ENDBRANCH   6  28
BRANCH   2  40
ATOM     40  O   UNL     1      -6.054   0.036   2.527  0.00  0.00    -0.388 OA
ATOM     41  H   UNL     1      -6.001  -0.375   3.400  0.00  0.00    +0.210 HD
ENDBRANCH   2  40
TORSDOF 8
