REMARK  Name = ZINC01857357
REMARK  5 active torsions:
REMARK  status: ('A' for Active; 'I' for Inactive)
REMARK    1  A    between atoms: C_4  and  S_10
REMARK    2  A    between atoms: C_5  and  N_7
REMARK    3  A    between atoms: S_10  and  C_11
REMARK    4  A    between atoms: C_16  and  C_33
REMARK    5  A    between atoms: C_22  and  C_30
REMARK                            x       y       z     vdW  Elec       q    Type
REMARK                         _______ _______ _______ _____ _____    ______ ____
ROOT
ATOM      1  C   UNL     1       5.179   0.497  -0.047  0.00  0.00    +0.070 C 
ATOM      2  C   UNL     1       6.594  -0.105   0.043  0.00  0.00    +0.022 C 
ATOM      3  C   UNL     1       7.335   0.339  -1.229  0.00  0.00    +0.024 C 
ATOM      4  C   UNL     1       8.800   0.625  -0.926  0.00  0.00    +0.104 C 
ATOM      5  N   UNL     1       8.879   1.642   0.128  0.00  0.00    -0.336 N 
ATOM      6  C   UNL     1       8.096   2.786   0.004  0.00  0.00    +0.031 A 
ATOM      7  C   UNL     1       8.425   3.912   0.759  0.00  0.00    +0.024 A 
ATOM      8  C   UNL     1       7.676   5.049   0.659  0.00  0.00    +0.017 A 
ATOM      9  C   UNL     1       6.576   5.079  -0.205  0.00  0.00    +0.064 A 
ATOM     10  C   UNL     1       6.251   3.948  -0.959  0.00  0.00    +0.021 A 
ATOM     11  C   UNL     1       7.005   2.806  -0.855  0.00  0.00    -0.021 A 
ATOM     12  C   UNL     1       6.600   1.607  -1.694  0.00  0.00    +0.045 C 
ATOM     13  C   UNL     1       5.116   1.275  -1.378  0.00  0.00    +0.101 C 
ATOM     14 CL   UNL     1       4.409   0.246  -2.678  0.00  0.00    -0.120 Cl
ATOM     15  H   UNL     1       9.463   1.520   0.894  0.00  0.00    +0.147 HD
ENDROOT
BRANCH   4  16
ATOM     16  C   UNL     1       9.476  -0.639  -0.463  0.00  0.00    -0.026 A 
ATOM     17  C   UNL     1       9.321  -1.067   0.843  0.00  0.00    +0.005 A 
ATOM     18  C   UNL     1       9.941  -2.227   1.268  0.00  0.00    +0.001 A 
ATOM     19  C   UNL     1      10.716  -2.960   0.389  0.00  0.00    +0.015 A 
ATOM     20  C   UNL     1      10.871  -2.532  -0.917  0.00  0.00    +0.018 A 
ATOM     21  C   UNL     1      10.246  -1.374  -1.344  0.00  0.00    +0.020 A 
ATOM     22 BR   UNL     1      11.931  -3.534  -2.120  0.00  0.00    -0.050 Br
ENDBRANCH   4  16
BRANCH   9  23
ATOM     23  C   UNL     1       5.763   6.300  -0.322  0.00  0.00    +0.387 C 
ATOM     24  O   UNL     1       6.049   7.290   0.338  0.00  0.00    -0.241 OA
ATOM     25  O   UNL     1       4.801   6.325  -1.078  0.00  0.00    -0.241 OA
ENDBRANCH   9  23
BRANCH   1  26
ATOM     26  S   UNL     1       3.939  -0.827  -0.042  0.00  0.00    -0.118 S 
BRANCH  26  30
ATOM     27  C   UNL     1      -0.017   1.379   0.010  0.00  0.00    +0.002 A 
ATOM     28  C   UNL     1       1.170   2.090   0.002  0.00  0.00    +0.001 A 
ATOM     29  C   UNL     1       2.377   1.421  -0.013  0.00  0.00    +0.017 A 
ATOM     30  C   UNL     1       2.400   0.031  -0.021  0.00  0.00    +0.038 A 
ATOM     31  C   UNL     1       1.206  -0.680  -0.013  0.00  0.00    +0.140 A 
ATOM     32  C   UNL     1       0.002  -0.004   0.002  0.00  0.00    +0.034 A 
BRANCH  31  33
ATOM     33  N   UNL     1       1.225  -2.160  -0.022  0.00  0.00    +0.058 N 
ATOM     34  O   UNL     1       0.186  -2.778  -0.015  0.00  0.00    -0.126 OA
ATOM     35  O   UNL     1       2.280  -2.751  -0.036  0.00  0.00    -0.126 OA
ENDBRANCH  31  33
ENDBRANCH  26  30
ENDBRANCH   1  26
TORSDOF 5
