REMARK  Name = ZINC42608141
REMARK  6 active torsions:
REMARK  status: ('A' for Active; 'I' for Inactive)
REMARK    1  A    between atoms: C_1  and  C_2
REMARK    2  A    between atoms: C_8  and  N_10
REMARK    3  A    between atoms: N_10  and  C_11
REMARK    4  A    between atoms: N_10  and  C_12
REMARK    5  A    between atoms: C_21  and  N_23
REMARK    6  A    between atoms: N_23  and  C_24
REMARK                            x       y       z     vdW  Elec       q    Type
REMARK                         _______ _______ _______ _____ _____    ______ ____
ROOT
ATOM      1  C   UNL     1       2.719   0.897   2.139  0.00  0.00    +0.031 A 
ATOM      2  C   UNL     1       1.982   1.138   3.292  0.00  0.00    +0.023 A 
ATOM      3  C   UNL     1       2.541   1.871   4.323  0.00  0.00    +0.006 A 
ATOM      4  C   UNL     1       3.823   2.361   4.204  0.00  0.00    -0.031 A 
ATOM      5  C   UNL     1       4.573   2.128   3.057  0.00  0.00    +0.037 A 
ATOM      6  C   UNL     1       4.011   1.385   2.022  0.00  0.00    +0.046 A 
ATOM      7  N   UNL     1       5.831   2.721   3.175  0.00  0.00    -0.286 N 
ATOM      8  C   UNL     1       5.987   3.352   4.350  0.00  0.00    +0.207 C 
ATOM      9  O   UNL     1       6.975   3.951   4.720  0.00  0.00    -0.277 OA
ATOM     10  C   UNL     1       4.700   3.177   5.126  0.00  0.00    +0.049 C 
ATOM     11  H   UNL     1       6.513   2.681   2.487  0.00  0.00    +0.155 HD
ENDROOT
BRANCH  10  12
ATOM     12  N   UNL     1       4.948   2.449   6.378  0.00  0.00    +0.388 N 
ATOM     13  C   UNL     1       5.699   3.308   7.303  0.00  0.00    -0.099 C 
ATOM     14  H   UNL     1       4.067   2.192   6.798  0.00  0.00    -0.085 HD
ATOM     15  H   UNL     1       5.483   1.616   6.182  0.00  0.00    -0.085 HD
ENDBRANCH  10  12
BRANCH   1  16
ATOM     16  N   UNL     1       2.158   0.156   1.096  0.00  0.00    -0.330 N 
ATOM     17  C   UNL     1       3.023  -0.466   0.091  0.00  0.00    +0.129 C 
BRANCH  16  24
ATOM     18  C   UNL     1       0.402   2.306   1.922  0.00  0.00    +0.009 C 
ATOM     19  C   UNL     1       0.059   1.367   0.765  0.00  0.00    +0.006 C 
ATOM     20  C   UNL     1       0.589   1.955  -0.544  0.00  0.00    +0.005 C 
ATOM     21  C   UNL     1       0.246   1.016  -1.702  0.00  0.00    +0.000 C 
ATOM     22  C   UNL     1       0.891  -0.350  -1.458  0.00  0.00    +0.002 C 
ATOM     23  C   UNL     1       0.360  -0.939  -0.149  0.00  0.00    +0.022 C 
ATOM     24  C   UNL     1       0.704   0.001   1.008  0.00  0.00    +0.076 C 
ENDBRANCH  16  24
ENDBRANCH   1  16
TORSDOF 3
