REMARK  Name = ZINC27816752
REMARK  13 active torsions:
REMARK  status: ('A' for Active; 'I' for Inactive)
REMARK    1  A    between atoms: C_1  and  C_2
REMARK    2  A    between atoms: C_4  and  C_31
REMARK    3  A    between atoms: C_6  and  C_30
REMARK    4  A    between atoms: C_7  and  C_8
REMARK    5  A    between atoms: C_8  and  C_9
REMARK    6  A    between atoms: C_9  and  N_10
REMARK    7  A    between atoms: C_11  and  C_13
REMARK    8  A    between atoms: C_13  and  S_14
REMARK    9  A    between atoms: S_14  and  C_15
REMARK   10  A    between atoms: N_28  and  C_29
REMARK   11  A    between atoms: C_31  and  C_32
REMARK   12  A    between atoms: C_31  and  C_33
REMARK   13  A    between atoms: C_31  and  C_34
REMARK                            x       y       z     vdW  Elec       q    Type
REMARK                         _______ _______ _______ _____ _____    ______ ____
ROOT
ATOM      1  N   UNL     1      -1.414   1.003   4.234  0.00  0.00    -0.314 N 
ATOM      2  C   UNL     1      -2.580   1.321   4.830  0.00  0.00    +0.223 C 
ATOM      3  O   UNL     1      -3.631   1.007   4.314  0.00  0.00    -0.275 OA
ATOM      4  H   UNL     1      -0.574   1.255   4.647  0.00  0.00    +0.149 HD
ENDROOT
BRANCH   1   5
ATOM      5  C   UNL     1      -1.416   0.278   2.961  0.00  0.00    +0.109 C 
BRANCH   5   6
ATOM      6  C   UNL     1       0.025   0.045   2.505  0.00  0.00    +0.054 C 
BRANCH   6  13
ATOM      7  C   UNL     1      -0.018   1.503   0.010  0.00  0.00    +0.044 C 
ATOM      8  C   UNL     1       0.002  -0.004   0.002  0.00  0.00    -0.047 A 
ATOM      9  C   UNL     1       0.006  -0.689  -1.199  0.00  0.00    +0.007 A 
ATOM     10  C   UNL     1       0.025  -2.071  -1.206  0.00  0.00    -0.041 A 
ATOM     11  C   UNL     1       0.040  -2.768  -0.013  0.00  0.00    +0.007 A 
ATOM     12  C   UNL     1       0.037  -2.084   1.188  0.00  0.00    -0.047 A 
ATOM     13  C   UNL     1       0.023  -0.702   1.195  0.00  0.00    -0.040 A 
ATOM     14  C   UNL     1       0.054  -2.844   2.489  0.00  0.00    +0.044 C 
BRANCH  10  15
ATOM     15  C   UNL     1       0.027  -2.817  -2.516  0.00  0.00    -0.013 C 
ATOM     16  C   UNL     1       1.267  -2.426  -3.323  0.00  0.00    +0.015 C 
ATOM     17  C   UNL     1       0.049  -4.323  -2.244  0.00  0.00    +0.015 C 
ATOM     18  C   UNL     1      -1.231  -2.460  -3.309  0.00  0.00    +0.015 C 
ENDBRANCH  10  15
ENDBRANCH   6  13
ENDBRANCH   5   6
ENDBRANCH   1   5
BRANCH   2  19
ATOM     19  C   UNL     1      -2.578   2.068   6.139  0.00  0.00    +0.173 C 
BRANCH  19  20
ATOM     20  S   UNL     1      -4.287   2.344   6.681  0.00  0.00    -0.076 S 
BRANCH  20  21
ATOM     21  C   UNL     1      -4.116   3.215   8.203  0.00  0.00    +0.198 A 
ATOM     22  N   UNL     1      -2.987   3.565   8.768  0.00  0.00    -0.120 NA
ATOM     23  N   UNL     1      -3.287   4.236   9.960  0.00  0.00    -0.109 NA
ATOM     24  C   UNL     1      -4.595   4.276  10.088  0.00  0.00    +0.240 A 
ATOM     25  N   UNL     1      -5.141   3.650   9.001  0.00  0.00    -0.256 N 
ATOM     26  C   UNL     1      -6.523   3.546   8.864  0.00  0.00    +0.064 A 
ATOM     27  C   UNL     1      -7.086   2.910   7.768  0.00  0.00    +0.027 A 
ATOM     28  C   UNL     1      -8.460   2.820   7.657  0.00  0.00    +0.002 A 
ATOM     29  C   UNL     1      -9.283   3.361   8.632  0.00  0.00    +0.001 A 
ATOM     30  C   UNL     1      -8.740   3.997   9.728  0.00  0.00    +0.015 A 
ATOM     31  C   UNL     1      -7.355   4.093   9.852  0.00  0.00    +0.064 A 
ATOM     32  C   UNL     1      -6.735   4.765  11.009  0.00  0.00    +0.263 A 
ATOM     33  O   UNL     1      -7.425   5.251  11.885  0.00  0.00    -0.267 OA
ATOM     34  N   UNL     1      -5.390   4.822  11.084  0.00  0.00    -0.280 N 
ATOM     35  C   UNL     1      -4.759   5.488  12.226  0.00  0.00    +0.155 C 
ENDBRANCH  20  21
ENDBRANCH  19  20
ENDBRANCH   2  19
TORSDOF 7
