REMARK  Name = ZINC12343582
REMARK  4 active torsions:
REMARK  status: ('A' for Active; 'I' for Inactive)
REMARK    1  A    between atoms: C_6  and  C_18
REMARK    2  A    between atoms: C_7  and  N_9
REMARK    3  A    between atoms: C_10  and  C_12
REMARK    4  A    between atoms: N_20  and  C_21
REMARK                            x       y       z     vdW  Elec       q    Type
REMARK                         _______ _______ _______ _____ _____    ______ ____
ROOT
ATOM      1  C   UNL     1       2.874  -0.791   5.437  0.00  0.00    +0.005 C 
ATOM      2  C   UNL     1       3.069  -0.467   6.921  0.00  0.00    +0.005 C 
ATOM      3  C   UNL     1       3.405   1.025   7.061  0.00  0.00    +0.043 C 
ATOM      4  C   UNL     1       2.426   1.808   6.242  0.00  0.00    -0.004 A 
ATOM      5  C   UNL     1       1.597   1.332   5.288  0.00  0.00    -0.023 A 
ATOM      6  C   UNL     1       0.750   2.326   4.652  0.00  0.00    +0.069 A 
ATOM      7  C   UNL     1       0.876   3.642   5.075  0.00  0.00    +0.084 A 
ATOM      8  S   UNL     1       2.094   3.546   6.303  0.00  0.00    -0.077 S 
ATOM      9  C   UNL     1       1.582  -0.149   4.929  0.00  0.00    +0.037 C 
ENDROOT
BRANCH   7  10
ATOM     10  N   UNL     1       0.192   4.761   4.625  0.00  0.00    -0.277 N 
ATOM     11  C   UNL     1       0.452   5.970   5.161  0.00  0.00    +0.246 C 
ATOM     12  O   UNL     1       1.284   6.079   6.037  0.00  0.00    -0.273 OA
ATOM     13  H   UNL     1      -0.474   4.674   3.925  0.00  0.00    +0.155 HD
BRANCH  11  14
ATOM     14  C   UNL     1      -0.291   7.187   4.672  0.00  0.00    +0.204 C 
ATOM     15  C   UNL     1       0.060   7.474   3.196  0.00  0.00    +0.043 C 
ATOM     16  C   UNL     1       0.103   9.017   3.114  0.00  0.00    +0.031 C 
ATOM     17  C   UNL     1      -0.227   9.478   4.551  0.00  0.00    +0.161 C 
ATOM     18  O   UNL     1       0.141   8.363   5.390  0.00  0.00    -0.367 OA
ENDBRANCH  11  14
ENDBRANCH   7  10
BRANCH   6  19
ATOM     19  C   UNL     1      -0.200   1.954   3.599  0.00  0.00    +0.247 C 
ATOM     20  O   UNL     1      -1.337   1.632   3.890  0.00  0.00    -0.270 OA
ATOM     21  N   UNL     1       0.186   1.969   2.308  0.00  0.00    -0.308 N 
ATOM     22  H   UNL     1       1.092   2.226   2.075  0.00  0.00    +0.149 HD
BRANCH  21  23
ATOM     23  C   UNL     1      -0.763   1.597   1.255  0.00  0.00    +0.073 C 
ATOM     24  C   UNL     1      -0.013   1.086   0.008  0.00  0.00    +0.022 C 
ATOM     25  C   UNL     1      -0.784   1.609  -1.216  0.00  0.00    +0.002 C 
ATOM     26  C   UNL     1      -1.978   2.421  -0.670  0.00  0.00    +0.002 C 
ATOM     27  C   UNL     1      -1.531   2.845   0.750  0.00  0.00    +0.022 C 
ENDBRANCH  21  23
ENDBRANCH   6  19
TORSDOF 4
