REMARK  Name = ZINC49491209
REMARK  4 active torsions:
REMARK  status: ('A' for Active; 'I' for Inactive)
REMARK    1  A    between atoms: C_1  and  C_2
REMARK    2  A    between atoms: C_3  and  C_19
REMARK    3  A    between atoms: C_7  and  C_8
REMARK    4  A    between atoms: N_10  and  C_11
REMARK                            x       y       z     vdW  Elec       q    Type
REMARK                         _______ _______ _______ _____ _____    ______ ____
ROOT
ATOM      1  C   UNL     1      -0.018   1.503   0.010  0.00  0.00    +0.047 C 
ATOM      2  C   UNL     1       0.002  -0.004   0.002  0.00  0.00    -0.007 A 
ATOM      3  C   UNL     1       0.006  -0.712  -1.188  0.00  0.00    +0.065 A 
ATOM      4  N   UNL     1       0.025  -2.030  -1.175  0.00  0.00    -0.152 NA
ATOM      5  N   UNL     1       0.039  -2.712  -0.089  0.00  0.00    -0.133 NA
ATOM      6  C   UNL     1       0.037  -2.138   1.105  0.00  0.00    +0.160 A 
ATOM      7  C   UNL     1       0.023  -0.733   1.198  0.00  0.00    +0.098 A 
ATOM      8  N   UNL     1       0.053  -2.913   2.253  0.00  0.00    -0.315 N 
ATOM      9  C   UNL     1      -0.011   0.026  -2.502  0.00  0.00    +0.068 C 
ATOM     10  H   UNL     1       0.051  -2.489   3.125  0.00  0.00    +0.148 HD
ENDROOT
BRANCH   8  11
ATOM     11  C   UNL     1       0.072  -4.374   2.149  0.00  0.00    +0.158 C 
ATOM     12  C   UNL     1       0.700  -4.965   3.414  0.00  0.00    +0.033 C 
ATOM     13  C   UNL     1       0.463  -6.480   3.411  0.00  0.00    +0.021 C 
ATOM     14  C   UNL     1      -1.034  -6.742   3.583  0.00  0.00    +0.104 C 
ATOM     15  N   UNL     1      -1.803  -5.956   2.626  0.00  0.00    -0.314 N 
ATOM     16  C   UNL     1      -1.333  -4.882   1.993  0.00  0.00    +0.233 C 
ATOM     17  O   UNL     1      -2.080  -4.283   1.250  0.00  0.00    -0.274 OA
ATOM     18  H   UNL     1      -2.714  -6.232   2.439  0.00  0.00    +0.149 HD
ENDBRANCH   8  11
BRANCH   7  19
ATOM     19  C   UNL     1       0.026  -0.073   2.469  0.00  0.00    +0.103 C 
ATOM     20  N   UNL     1       0.029   0.450   3.477  0.00  0.00    -0.191 NA
ENDBRANCH   7  19
TORSDOF 2
