REMARK  Name = ZINC26580681
REMARK  5 active torsions:
REMARK  status: ('A' for Active; 'I' for Inactive)
REMARK    1  A    between atoms: C_1  and  C_2
REMARK    2  A    between atoms: C_2  and  C_3
REMARK    3  A    between atoms: C_3  and  C_4
REMARK    4  A    between atoms: C_4  and  N_5
REMARK    5  A    between atoms: C_17  and  C_20
REMARK                            x       y       z     vdW  Elec       q    Type
REMARK                         _______ _______ _______ _____ _____    ______ ____
ROOT
ATOM      1  N   UNL     1       1.471  -2.526   2.420  0.00  0.00    -0.220 N 
ATOM      2  C   UNL     1       2.806  -2.723   2.360  0.00  0.00    +0.261 C 
ATOM      3  O   UNL     1       3.429  -2.505   1.339  0.00  0.00    -0.269 OA
ATOM      4  C   UNL     1       3.485  -3.215   3.583  0.00  0.00    +0.117 C 
ATOM      5  C   UNL     1       2.630  -3.449   4.775  0.00  0.00    +0.278 C 
ATOM      6  N   UNL     1       1.315  -3.204   4.670  0.00  0.00    -0.123 NA
ATOM      7  C   UNL     1       0.774  -2.764   3.561  0.00  0.00    +0.335 C 
ATOM      8  O   UNL     1      -0.554  -2.540   3.550  0.00  0.00    -0.250 OA
ATOM      9  O   UNL     1       3.110  -3.853   5.819  0.00  0.00    -0.268 OA
ATOM     10  C   UNL     1       4.815  -3.439   3.612  0.00  0.00    +0.020 C 
ATOM     11  N   UNL     1       5.712  -3.248   2.551  0.00  0.00    -0.356 NA
ATOM     12  N   UNL     1       7.058  -3.633   2.972  0.00  0.00    -0.252 NA
ATOM     13  C   UNL     1       7.059  -3.490   4.453  0.00  0.00    +0.108 C 
ATOM     14  C   UNL     1       5.618  -3.941   4.801  0.00  0.00    +0.076 C 
ATOM     15  H   UNL     1       7.263  -4.583   2.700  0.00  0.00    +0.143 HD
ATOM     16  H   UNL     1       5.430  -3.814   1.766  0.00  0.00    +0.140 HD
ATOM     17  H   UNL     1       5.710  -2.275   2.282  0.00  0.00    +0.140 HD
ENDROOT
BRANCH  13  18
ATOM     18  C   UNL     1       8.082  -4.397   5.085  0.00  0.00    -0.004 A 
ATOM     19  C   UNL     1       8.661  -5.466   4.516  0.00  0.00    +0.088 A 
ATOM     20  N   UNL     1       9.539  -6.044   5.393  0.00  0.00    -0.360 N 
ATOM     21  H   UNL     1      10.076  -6.830   5.207  0.00  0.00    +0.165 HD
ATOM     22  C   UNL     1       9.547  -5.342   6.578  0.00  0.00    +0.047 A 
ATOM     23  C   UNL     1       8.639  -4.276   6.435  0.00  0.00    +0.004 A 
ATOM     24  C   UNL     1       8.442  -3.383   7.489  0.00  0.00    +0.010 A 
ATOM     25  C   UNL     1       9.136  -3.547   8.656  0.00  0.00    +0.001 A 
ATOM     26  C   UNL     1      10.035  -4.594   8.800  0.00  0.00    +0.002 A 
ATOM     27  C   UNL     1      10.238  -5.493   7.775  0.00  0.00    +0.026 A 
ENDBRANCH  13  18
BRANCH   1  28
ATOM     28  C   UNL     1       0.763  -2.041   1.233  0.00  0.00    +0.118 C 
BRANCH  28  29
ATOM     29  C   UNL     1       0.742  -0.511   1.242  0.00  0.00    +0.019 C 
BRANCH  29  31
ATOM     30  C   UNL     1      -0.019   1.526   0.010  0.00  0.00    +0.004 C 
ATOM     31  C   UNL     1       0.002  -0.004   0.002  0.00  0.00    -0.002 C 
ENDBRANCH  29  31
ENDBRANCH  28  29
ENDBRANCH   1  28
TORSDOF 4
