REMARK  Name = ZINC40018371
REMARK  7 active torsions:
REMARK  status: ('A' for Active; 'I' for Inactive)
REMARK    1  A    between atoms: C_1  and  C_2
REMARK    2  A    between atoms: C_2  and  N_3
REMARK    3  A    between atoms: N_6  and  C_9
REMARK    4  A    between atoms: C_9  and  N_10
REMARK    5  A    between atoms: N_13  and  C_26
REMARK    6  A    between atoms: C_14  and  C_17
REMARK    7  A    between atoms: C_26  and  C_27
REMARK                            x       y       z     vdW  Elec       q    Type
REMARK                         _______ _______ _______ _____ _____    ______ ____
ROOT
ATOM      1  N   UNL     1      -4.902  -4.043  -1.720  0.00  0.00    -0.232 N 
ATOM      2  C   UNL     1      -5.175  -4.537  -2.934  0.00  0.00    +0.152 C 
ATOM      3  S   UNL     1      -5.701  -3.591  -4.261  0.00  0.00    -0.017 S 
ATOM      4  N   UNL     1      -4.986  -5.868  -2.984  0.00  0.00    -0.288 N 
ATOM      5  C   UNL     1      -4.538  -6.285  -1.645  0.00  0.00    +0.193 C 
ATOM      6  N   UNL     1      -4.500  -5.031  -0.867  0.00  0.00    -0.213 NA
ATOM      7  H   UNL     1      -3.572  -4.850  -0.515  0.00  0.00    +0.147 HD
ENDROOT
BRANCH   5   8
ATOM      8  C   UNL     1      -5.516  -7.260  -1.042  0.00  0.00    +0.014 A 
ATOM      9  C   UNL     1      -5.224  -8.267  -0.019  0.00  0.00    +0.006 A 
ATOM     10  C   UNL     1      -4.072  -8.637   0.677  0.00  0.00    +0.010 A 
ATOM     11  C   UNL     1      -4.130  -9.647   1.596  0.00  0.00    +0.001 A 
ATOM     12  C   UNL     1      -5.325 -10.309   1.842  0.00  0.00    +0.002 A 
ATOM     13  C   UNL     1      -6.474  -9.959   1.167  0.00  0.00    +0.026 A 
ATOM     14  C   UNL     1      -6.438  -8.934   0.228  0.00  0.00    +0.047 A 
ATOM     15  N   UNL     1      -7.388  -8.364  -0.591  0.00  0.00    -0.360 N 
ATOM     16  C   UNL     1      -6.822  -7.365  -1.335  0.00  0.00    +0.090 A 
ATOM     17  H   UNL     1      -8.320  -8.629  -0.631  0.00  0.00    +0.165 HD
ENDBRANCH   5   8
BRANCH   1  18
ATOM     18  C   UNL     1      -5.013  -2.628  -1.356  0.00  0.00    +0.212 C 
BRANCH  18  22
ATOM     19  N   UNL     1      -1.690  -0.306  -0.162  0.00  0.00    +0.381 N 
ATOM     20  C   UNL     1      -2.299  -0.019  -1.467  0.00  0.00    -0.063 C 
ATOM     21  C   UNL     1      -3.720  -0.586  -1.502  0.00  0.00    +0.067 C 
ATOM     22  N   UNL     1      -3.671  -2.037  -1.273  0.00  0.00    -0.289 NA
ATOM     23  C   UNL     1      -3.041  -2.340   0.019  0.00  0.00    +0.067 C 
ATOM     24  C   UNL     1      -1.625  -1.759   0.041  0.00  0.00    -0.063 C 
ATOM     25  H   UNL     1      -2.247   0.112   0.568  0.00  0.00    -0.082 HD
BRANCH  19  27
ATOM     26  C   UNL     1      -0.407   1.780  -0.209  0.00  0.00    -0.017 C 
ATOM     27  C   UNL     1      -0.332   0.255  -0.122  0.00  0.00    -0.082 C 
ENDBRANCH  19  27
ENDBRANCH  18  22
ENDBRANCH   1  18
BRANCH   4  28
ATOM     28  C   UNL     1      -5.188  -6.736  -4.146  0.00  0.00    +0.140 C 
BRANCH  28  29
ATOM     29  C   UNL     1      -3.926  -6.730  -5.012  0.00  0.00    +0.136 C 
ATOM     30  C   UNL     1      -4.171  -7.545  -6.301  0.00  0.00    +0.035 C 
ATOM     31  C   UNL     1      -2.817  -8.282  -6.487  0.00  0.00    +0.031 C 
ATOM     32  C   UNL     1      -2.408  -8.523  -5.012  0.00  0.00    +0.160 C 
ATOM     33  O   UNL     1      -2.848  -7.351  -4.304  0.00  0.00    -0.375 OA
ENDBRANCH  28  29
ENDBRANCH   4  28
TORSDOF 6
