REMARK  Name = ZINC67572229
REMARK  6 active torsions:
REMARK  status: ('A' for Active; 'I' for Inactive)
REMARK    1  A    between atoms: C_1  and  C_2
REMARK    2  A    between atoms: C_2  and  C_3
REMARK    3  A    between atoms: C_2  and  C_5
REMARK    4  A    between atoms: C_2  and  N_8
REMARK    5  A    between atoms: C_9  and  C_11
REMARK    6  A    between atoms: C_15  and  N_17
REMARK                            x       y       z     vdW  Elec       q    Type
REMARK                         _______ _______ _______ _____ _____    ______ ____
ROOT
ATOM      1  C   UNL     1      -3.693  -0.504   0.889  0.00  0.00    +0.039 A 
ATOM      2  C   UNL     1      -4.039  -1.526   0.003  0.00  0.00    +0.013 A 
ATOM      3  C   UNL     1      -5.225  -2.211   0.168  0.00  0.00    +0.003 A 
ATOM      4  C   UNL     1      -6.075  -1.890   1.210  0.00  0.00    +0.025 A 
ATOM      5  C   UNL     1      -5.740  -0.875   2.098  0.00  0.00    +0.057 A 
ATOM      6  C   UNL     1      -4.548  -0.184   1.944  0.00  0.00    +0.038 A 
ENDROOT
BRANCH   5   7
ATOM      7  N   UNL     1      -6.604  -0.553   3.151  0.00  0.00    -0.188 N 
ATOM      8  C   UNL     1      -6.117  -0.426   4.402  0.00  0.00    +0.240 C 
ATOM      9  O   UNL     1      -4.944  -0.634   4.632  0.00  0.00    -0.273 OA
ATOM     10  C   UNL     1      -7.063  -0.018   5.516  0.00  0.00    +0.093 C 
ATOM     11  C   UNL     1      -7.844  -1.270   5.933  0.00  0.00    +0.040 C 
ATOM     12  C   UNL     1      -9.069  -0.908   6.712  0.00  0.00    -0.030 C 
ATOM     13  C   UNL     1      -9.605   0.270   6.723  0.00  0.00    -0.030 C 
ATOM     14  C   UNL     1      -9.054   1.442   5.969  0.00  0.00    +0.040 C 
ATOM     15  C   UNL     1      -8.033   1.015   4.928  0.00  0.00    +0.092 C 
ATOM     16  C   UNL     1      -8.701   0.424   3.718  0.00  0.00    +0.234 C 
ATOM     17  O   UNL     1      -9.869   0.651   3.482  0.00  0.00    -0.274 OA
ATOM     18  N   UNL     1      -7.970  -0.359   2.896  0.00  0.00    -0.227 N 
ATOM     19  H   UNL     1      -8.390  -0.789   2.135  0.00  0.00    +0.173 HD
ENDBRANCH   5   7
BRANCH   1  21
ATOM     20  N   UNL     1      -1.599  -0.079  -0.305  0.00  0.00    -0.293 N 
ATOM     21  C   UNL     1      -2.423   0.232   0.715  0.00  0.00    +0.245 C 
ATOM     22  O   UNL     1      -2.122   1.118   1.491  0.00  0.00    -0.270 OA
ATOM     23  H   UNL     1      -1.839  -0.786  -0.925  0.00  0.00    +0.151 HD
BRANCH  20  25
ATOM     24  C   UNL     1      -0.636   2.138  -0.683  0.00  0.00    +0.048 C 
ATOM     25  C   UNL     1      -0.340   0.650  -0.479  0.00  0.00    +0.121 C 
BRANCH  25  26
ATOM     26  C   UNL     1       0.401   0.105  -1.701  0.00  0.00    +0.026 C 
ATOM     27  C   UNL     1       1.757  -0.563  -1.465  0.00  0.00    +0.007 C 
ATOM     28  C   UNL     1       1.689   0.817  -2.122  0.00  0.00    +0.007 C 
ENDBRANCH  25  26
BRANCH  25  29
ATOM     29  C   UNL     1       0.496   0.477   0.720  0.00  0.00    +0.088 C 
ATOM     30  N   UNL     1       1.142   0.344   1.645  0.00  0.00    -0.194 NA
ENDBRANCH  25  29
ENDBRANCH  20  25
ENDBRANCH   1  21
TORSDOF 5
