REMARK  Name = ZINC38821378
REMARK  7 active torsions:
REMARK  status: ('A' for Active; 'I' for Inactive)
REMARK    1  A    between atoms: C_1  and  C_2
REMARK    2  A    between atoms: C_2  and  C_38
REMARK    3  A    between atoms: C_6  and  C_26
REMARK    4  A    between atoms: C_12  and  S_16
REMARK    5  A    between atoms: S_16  and  C_17
REMARK    6  A    between atoms: C_17  and  C_18
REMARK    7  A    between atoms: C_31  and  N_32
REMARK                            x       y       z     vdW  Elec       q    Type
REMARK                         _______ _______ _______ _____ _____    ______ ____
ROOT
ATOM      1  C   UNL     1      -2.199  -1.331  -3.125  0.00  0.00    +0.011 C 
ATOM      2  C   UNL     1      -1.774  -2.578  -2.349  0.00  0.00    -0.023 C 
ATOM      3  C   UNL     1      -2.999  -3.223  -1.699  0.00  0.00    +0.058 C 
ATOM      4  C   UNL     1      -2.573  -4.431  -0.898  0.00  0.00    +0.017 C 
ATOM      5  C   UNL     1      -1.367  -4.477  -0.300  0.00  0.00    +0.021 C 
ATOM      6  C   UNL     1      -0.923  -5.659   0.530  0.00  0.00    +0.075 C 
ATOM      7  C   UNL     1      -1.721  -6.907   0.147  0.00  0.00    +0.152 C 
ATOM      8  C   UNL     1      -3.174  -6.502   0.048  0.00  0.00    +0.115 C 
ATOM      9  N   UNL     1      -4.098  -7.078   0.753  0.00  0.00    -0.213 NA
ATOM     10  C   UNL     1      -3.824  -8.046   1.637  0.00  0.00    +0.182 C 
ATOM     11  N   UNL     1      -2.585  -8.466   1.853  0.00  0.00    -0.154 NA
ATOM     12  C   UNL     1      -1.543  -7.974   1.188  0.00  0.00    +0.250 C 
ATOM     13  O   UNL     1      -0.425  -8.388   1.427  0.00  0.00    -0.273 OA
ATOM     14  N   UNL     1      -3.462  -5.480  -0.814  0.00  0.00    -0.305 N 
ATOM     15  C   UNL     1      -0.457  -3.407  -0.429  0.00  0.00    +0.162 C 
ATOM     16  O   UNL     1       0.620  -3.474   0.128  0.00  0.00    -0.292 OA
ATOM     17  C   UNL     1      -0.790  -2.187  -1.241  0.00  0.00    +0.086 C 
ATOM     18  C   UNL     1      -1.109  -3.576  -3.299  0.00  0.00    +0.011 C 
ATOM     19  H   UNL     1      -4.270  -5.494  -1.351  0.00  0.00    +0.153 HD
ENDROOT
BRANCH   6  20
ATOM     20  C   UNL     1      -1.147  -5.356   1.989  0.00  0.00    -0.009 A 
ATOM     21  C   UNL     1      -2.393  -4.946   2.426  0.00  0.00    +0.006 A 
ATOM     22  C   UNL     1      -2.599  -4.668   3.765  0.00  0.00    +0.000 A 
ATOM     23  C   UNL     1      -1.559  -4.801   4.666  0.00  0.00    +0.002 A 
ATOM     24  C   UNL     1      -0.314  -5.212   4.229  0.00  0.00    +0.033 A 
ATOM     25  C   UNL     1      -0.109  -5.494   2.891  0.00  0.00    +0.130 A 
BRANCH  25  26
ATOM     26  N   UNL     1       1.223  -5.939   2.424  0.00  0.00    +0.057 N 
ATOM     27  O   UNL     1       1.859  -6.731   3.079  0.00  0.00    -0.126 OA
ATOM     28  O   UNL     1       1.674  -5.510   1.388  0.00  0.00    -0.126 OA
ENDBRANCH  25  26
ENDBRANCH   6  20
BRANCH  10  29
ATOM     29  S   UNL     1      -5.147  -8.783   2.538  0.00  0.00    -0.084 S 
BRANCH  29  30
ATOM     30  C   UNL     1      -4.329 -10.014   3.590  0.00  0.00    +0.115 C 
BRANCH  30  31
ATOM     31  C   UNL     1      -5.362 -10.727   4.425  0.00  0.00    -0.002 A 
ATOM     32  C   UNL     1      -5.711 -10.229   5.666  0.00  0.00    +0.007 A 
ATOM     33  C   UNL     1      -6.658 -10.882   6.432  0.00  0.00    +0.000 A 
ATOM     34  C   UNL     1      -7.257 -12.034   5.957  0.00  0.00    +0.003 A 
ATOM     35  C   UNL     1      -6.910 -12.534   4.717  0.00  0.00    +0.038 A 
ATOM     36  C   UNL     1      -5.965 -11.877   3.946  0.00  0.00    +0.127 A 
ATOM     37  F   UNL     1      -5.629 -12.361   2.731  0.00  0.00    -0.205 F 
ENDBRANCH  30  31
ENDBRANCH  29  30
ENDBRANCH  10  29
TORSDOF 5
