REMARK  Name = ZINC35363855
REMARK  4 active torsions:
REMARK  status: ('A' for Active; 'I' for Inactive)
REMARK    1  A    between atoms: C_4  and  C_7
REMARK    2  A    between atoms: C_7  and  C_8
REMARK    3  A    between atoms: C_20  and  C_33
REMARK    4  A    between atoms: C_33  and  C_35
REMARK                            x       y       z     vdW  Elec       q    Type
REMARK                         _______ _______ _______ _____ _____    ______ ____
ROOT
ATOM      1  C   UNL     1       4.077  -0.646   1.746  0.00  0.00    +0.079 C 
ATOM      2  C   UNL     1       5.211  -1.669   1.593  0.00  0.00    +0.102 C 
ATOM      3  C   UNL     1       4.747  -3.058   1.929  0.00  0.00    -0.009 A 
ATOM      4  C   UNL     1       4.206  -3.629   3.059  0.00  0.00    +0.006 A 
ATOM      5  C   UNL     1       3.871  -4.971   3.063  0.00  0.00    +0.000 A 
ATOM      6  C   UNL     1       4.079  -5.736   1.930  0.00  0.00    +0.002 A 
ATOM      7  C   UNL     1       4.620  -5.168   0.796  0.00  0.00    +0.023 A 
ATOM      8  C   UNL     1       4.961  -3.817   0.782  0.00  0.00    +0.038 A 
ATOM      9  N   UNL     1       5.514  -3.024  -0.226  0.00  0.00    -0.284 N 
ATOM     10  C   UNL     1       5.693  -1.749   0.171  0.00  0.00    +0.230 C 
ATOM     11  O   UNL     1       6.152  -0.842  -0.490  0.00  0.00    -0.274 OA
ATOM     12  C   UNL     1       6.329  -1.209   2.541  0.00  0.00    +0.115 C 
ATOM     13  C   UNL     1       5.771   0.063   3.198  0.00  0.00    +0.135 C 
ATOM     14  N   UNL     1       4.741   0.579   2.274  0.00  0.00    -0.294 NA
ATOM     15  C   UNL     1       6.852   1.075   3.447  0.00  0.00    +0.003 A 
ATOM     16  C   UNL     1       7.739   1.738   2.627  0.00  0.00    +0.008 A 
ATOM     17  C   UNL     1       8.642   2.636   3.167  0.00  0.00    +0.000 A 
ATOM     18  C   UNL     1       8.652   2.867   4.530  0.00  0.00    +0.002 A 
ATOM     19  C   UNL     1       7.766   2.206   5.355  0.00  0.00    +0.023 A 
ATOM     20  C   UNL     1       6.853   1.300   4.820  0.00  0.00    +0.039 A 
ATOM     21  N   UNL     1       5.871   0.522   5.438  0.00  0.00    -0.283 N 
ATOM     22  C   UNL     1       5.191  -0.232   4.553  0.00  0.00    +0.243 C 
ATOM     23  O   UNL     1       4.285  -1.000   4.802  0.00  0.00    -0.273 OA
ATOM     24  H   UNL     1       5.743  -3.353  -1.109  0.00  0.00    +0.155 HD
ATOM     25  H   UNL     1       5.161   1.113   1.527  0.00  0.00    +0.124 HD
ATOM     26  H   UNL     1       5.700   0.524   6.393  0.00  0.00    +0.155 HD
ENDROOT
BRANCH  12  27
ATOM     27  C   UNL     1       6.605  -2.264   3.581  0.00  0.00    +0.170 C 
ATOM     28  O   UNL     1       5.898  -2.347   4.563  0.00  0.00    -0.292 OA
BRANCH  27  29
ATOM     29  C   UNL     1       7.732  -3.193   3.405  0.00  0.00    +0.018 A 
ATOM     30  C   UNL     1       8.553  -3.097   2.276  0.00  0.00    +0.011 A 
ATOM     31  C   UNL     1       9.607  -3.971   2.119  0.00  0.00    +0.001 A 
ATOM     32  C   UNL     1       9.855  -4.942   3.073  0.00  0.00    +0.000 A 
ATOM     33  C   UNL     1       9.047  -5.045   4.192  0.00  0.00    +0.001 A 
ATOM     34  C   UNL     1       7.992  -4.174   4.367  0.00  0.00    +0.011 A 
ENDBRANCH  27  29
ENDBRANCH  12  27
BRANCH   1  35
ATOM     35  C   UNL     1       3.430  -0.360   0.390  0.00  0.00    +0.055 C 
BRANCH  35  39
ATOM     36  C   UNL     1       0.137   2.311   0.915  0.00  0.00    +0.000 A 
ATOM     37  C   UNL     1       1.403   2.812   0.678  0.00  0.00    +0.000 A 
ATOM     38  C   UNL     1       2.469   1.948   0.508  0.00  0.00    +0.004 A 
ATOM     39  C   UNL     1       2.268   0.582   0.576  0.00  0.00    -0.046 A 
ATOM     40  C   UNL     1       1.003   0.080   0.813  0.00  0.00    +0.004 A 
ATOM     41  C   UNL     1      -0.063   0.945   0.982  0.00  0.00    +0.000 A 
ENDBRANCH  35  39
ENDBRANCH   1  35
TORSDOF 4
