REMARK  Name = ZINC19889001
REMARK  4 active torsions:
REMARK  status: ('A' for Active; 'I' for Inactive)
REMARK    1  A    between atoms: C_1  and  C_2
REMARK    2  A    between atoms: C_5  and  C_27
REMARK    3  A    between atoms: C_15  and  C_18
REMARK    4  A    between atoms: C_22  and  N_24
REMARK                            x       y       z     vdW  Elec       q    Type
REMARK                         _______ _______ _______ _____ _____    ______ ____
ROOT
ATOM      1  C   UNL     1       0.049   0.906   0.636  0.00  0.00    +0.044 C 
ATOM      2  C   UNL     1      -0.793   1.505   1.733  0.00  0.00    -0.045 A 
ATOM      3  C   UNL     1      -0.247   1.700   2.986  0.00  0.00    +0.004 A 
ATOM      4  C   UNL     1      -1.014   2.248   3.997  0.00  0.00    +0.005 A 
ATOM      5  C   UNL     1      -2.324   2.600   3.749  0.00  0.00    -0.029 A 
ATOM      6  C   UNL     1      -2.878   2.406   2.485  0.00  0.00    +0.035 A 
ATOM      7  C   UNL     1      -2.110   1.861   1.473  0.00  0.00    -0.016 A 
ATOM      8  C   UNL     1      -2.636   1.623   0.082  0.00  0.00    +0.049 C 
ATOM      9  C   UNL     1      -1.845   2.499  -0.876  0.00  0.00    -0.023 C 
ATOM     10  C   UNL     1      -2.490   3.612  -1.119  0.00  0.00    -0.030 C 
ATOM     11  C   UNL     1      -3.804   3.643  -0.360  0.00  0.00    +0.033 C 
ATOM     12  C   UNL     1      -4.078   2.147  -0.070  0.00  0.00    +0.029 C 
ATOM     13  C   UNL     1      -4.842   1.993   1.236  0.00  0.00    +0.105 C 
ATOM     14  N   UNL     1      -4.207   2.781   2.288  0.00  0.00    -0.336 N 
ATOM     15  C   UNL     1      -3.161   3.199   4.851  0.00  0.00    +0.045 C 
ATOM     16  H   UNL     1      -4.780   3.560   2.813  0.00  0.00    +0.147 HD
ENDROOT
BRANCH  13  17
ATOM     17  C   UNL     1      -4.847   0.542   1.644  0.00  0.00    -0.025 A 
ATOM     18  C   UNL     1      -4.735  -0.447   0.684  0.00  0.00    +0.005 A 
ATOM     19  C   UNL     1      -4.735  -1.777   1.059  0.00  0.00    +0.003 A 
ATOM     20  C   UNL     1      -4.857  -2.119   2.393  0.00  0.00    +0.033 A 
ATOM     21  C   UNL     1      -4.975  -1.131   3.352  0.00  0.00    +0.127 A 
ATOM     22  C   UNL     1      -4.970   0.200   2.978  0.00  0.00    +0.038 A 
BRANCH  21  23
ATOM     23  N   UNL     1      -5.106  -1.497   4.780  0.00  0.00    +0.056 N 
ATOM     24  O   UNL     1      -5.210  -0.626   5.626  0.00  0.00    -0.126 OA
ATOM     25  O   UNL     1      -5.111  -2.670   5.111  0.00  0.00    -0.126 OA
ENDBRANCH  21  23
ENDBRANCH  13  17
TORSDOF 2
