REMARK  Name = ZINC39484429
REMARK  9 active torsions:
REMARK  status: ('A' for Active; 'I' for Inactive)
REMARK    1  A    between atoms: C_1  and  C_2
REMARK    2  A    between atoms: C_2  and  C_3
REMARK    3  A    between atoms: C_2  and  C_4
REMARK    4  A    between atoms: C_4  and  C_5
REMARK    5  A    between atoms: C_5  and  C_7
REMARK    6  A    between atoms: C_9  and  C_31
REMARK    7  A    between atoms: C_19  and  C_21
REMARK    8  A    between atoms: C_26  and  O_27
REMARK    9  A    between atoms: C_35  and  O_37
REMARK                            x       y       z     vdW  Elec       q    Type
REMARK                         _______ _______ _______ _____ _____    ______ ____
ROOT
ATOM      1  C   UNL     1      -2.711  -2.805  -0.135  0.00  0.00    +0.082 C 
ATOM      2  C   UNL     1      -2.508  -4.128  -0.869  0.00  0.00    +0.061 C 
ATOM      3  C   UNL     1      -3.741  -4.987  -0.794  0.00  0.00    -0.025 A 
ATOM      4  C   UNL     1      -3.934  -5.966  -1.748  0.00  0.00    +0.054 A 
ATOM      5  C   UNL     1      -5.058  -6.779  -1.706  0.00  0.00    +0.167 A 
ATOM      6  C   UNL     1      -6.007  -6.613  -0.695  0.00  0.00    +0.167 A 
ATOM      7  C   UNL     1      -5.825  -5.638   0.263  0.00  0.00    +0.061 A 
ATOM      8  C   UNL     1      -4.691  -4.818   0.217  0.00  0.00    +0.025 A 
ATOM      9  C   UNL     1      -4.506  -3.771   1.237  0.00  0.00    +0.172 C 
ATOM     10  O   UNL     1      -5.403  -3.469   1.995  0.00  0.00    -0.291 OA
ATOM     11  C   UNL     1      -3.158  -3.085   1.306  0.00  0.00    +0.105 C 
ATOM     12  O   UNL     1      -7.004  -7.527  -0.878  0.00  0.00    -0.453 OA
ATOM     13  C   UNL     1      -6.864  -7.979  -2.239  0.00  0.00    +0.466 C 
ATOM     14  O   UNL     1      -5.464  -7.796  -2.519  0.00  0.00    -0.453 OA
ENDROOT
BRANCH  11  15
ATOM     15  C   UNL     1      -3.280  -1.790   2.066  0.00  0.00    +0.005 A 
ATOM     16  C   UNL     1      -4.163  -0.817   1.638  0.00  0.00    +0.008 A 
ATOM     17  C   UNL     1      -4.275   0.372   2.334  0.00  0.00    +0.001 A 
ATOM     18  C   UNL     1      -3.504   0.591   3.461  0.00  0.00    +0.004 A 
ATOM     19  C   UNL     1      -2.620  -0.378   3.893  0.00  0.00    +0.046 A 
ATOM     20  C   UNL     1      -2.509  -1.574   3.199  0.00  0.00    +0.121 A 
BRANCH  20  21
ATOM     21  O   UNL     1      -1.644  -2.531   3.626  0.00  0.00    -0.506 OA
ATOM     22  H   UNL     1      -0.757  -2.455   3.249  0.00  0.00    +0.292 HD
ENDBRANCH  20  21
ENDBRANCH  11  15
BRANCH   2  23
ATOM     23  C   UNL     1      -2.191  -3.847  -2.315  0.00  0.00    -0.036 A 
ATOM     24  C   UNL     1      -3.095  -3.154  -3.099  0.00  0.00    +0.004 A 
ATOM     25  C   UNL     1      -2.806  -2.894  -4.425  0.00  0.00    +0.004 A 
ATOM     26  C   UNL     1      -1.614  -3.328  -4.972  0.00  0.00    +0.045 A 
ATOM     27  C   UNL     1      -0.705  -4.023  -4.188  0.00  0.00    +0.117 A 
ATOM     28  C   UNL     1      -0.994  -4.277  -2.854  0.00  0.00    +0.049 A 
BRANCH  27  29
ATOM     29  O   UNL     1       0.469  -4.450  -4.723  0.00  0.00    -0.507 OA
ATOM     30  H   UNL     1       1.192  -3.812  -4.646  0.00  0.00    +0.292 HD
ENDBRANCH  27  29
ENDBRANCH   2  23
BRANCH   1  31
ATOM     31  C   UNL     1      -1.416  -2.035  -0.119  0.00  0.00    +0.139 C 
ATOM     32  O   UNL     1      -0.364  -2.620  -0.212  0.00  0.00    -0.297 OA
BRANCH  31  33
ATOM     33  C   UNL     1      -1.433  -0.534   0.013  0.00  0.00    +0.077 C 
BRANCH  33  35
ATOM     34  C   UNL     1      -0.019   1.526   0.010  0.00  0.00    +0.007 C 
ATOM     35  C   UNL     1       0.002  -0.004   0.002  0.00  0.00    -0.010 C 
ATOM     36  C   UNL     1       0.742  -0.511   1.242  0.00  0.00    +0.007 C 
ENDBRANCH  33  35
ENDBRANCH  31  33
ENDBRANCH   1  31
TORSDOF 7
