REMARK  Name = ZINC38670068
REMARK  14 active torsions:
REMARK  status: ('A' for Active; 'I' for Inactive)
REMARK    1  A    between atoms: C_1  and  C_2
REMARK    2  A    between atoms: C_2  and  N_3
REMARK    3  A    between atoms: N_3  and  C_4
REMARK    4  A    between atoms: N_3  and  S_6
REMARK    5  A    between atoms: C_4  and  C_5
REMARK    6  A    between atoms: S_6  and  C_9
REMARK    7  A    between atoms: C_12  and  C_15
REMARK    8  A    between atoms: N_17  and  C_18
REMARK    9  A    between atoms: C_18  and  C_19
REMARK   10  A    between atoms: C_19  and  C_21
REMARK   11  A    between atoms: C_19  and  N_31
REMARK   12  A    between atoms: N_29  and  C_30
REMARK   13  A    between atoms: N_31  and  C_32
REMARK   14  A    between atoms: N_31  and  C_33
REMARK                            x       y       z     vdW  Elec       q    Type
REMARK                         _______ _______ _______ _____ _____    ______ ____
ROOT
ATOM      1  C   UNL     1       5.534   3.465   3.002  0.00  0.00    +0.244 C 
ATOM      2  O   UNL     1       5.571   4.175   2.016  0.00  0.00    -0.270 OA
ATOM      3  N   UNL     1       5.956   3.940   4.191  0.00  0.00    -0.313 N 
ATOM      4  H   UNL     1       5.926   3.373   4.978  0.00  0.00    +0.149 HD
ENDROOT
BRANCH   1   8
ATOM      5  C   UNL     1       4.079  -0.514   2.700  0.00  0.00    +0.106 A 
ATOM      6  C   UNL     1       4.119   0.292   1.576  0.00  0.00    +0.029 A 
ATOM      7  C   UNL     1       4.590   1.585   1.667  0.00  0.00    +0.015 A 
ATOM      8  C   UNL     1       5.027   2.080   2.897  0.00  0.00    +0.037 A 
ATOM      9  C   UNL     1       4.984   1.262   4.027  0.00  0.00    +0.015 A 
ATOM     10  C   UNL     1       4.505  -0.028   3.923  0.00  0.00    +0.029 A 
BRANCH   5  11
ATOM     11  S   UNL     1       3.475  -2.165   2.575  0.00  0.00    +0.061 S 
ATOM     12  O   UNL     1       4.043  -2.889   3.657  0.00  0.00    -0.153 OA
ATOM     13  O   UNL     1       3.648  -2.559   1.220  0.00  0.00    -0.153 OA
BRANCH  11  14
ATOM     14  N   UNL     1       1.842  -2.111   2.847  0.00  0.00    -0.177 NA
BRANCH  14  16
ATOM     15  C   UNL     1       0.577  -0.434   1.595  0.00  0.00    +0.022 C 
ATOM     16  C   UNL     1       0.919  -1.919   1.726  0.00  0.00    +0.106 C 
ENDBRANCH  14  16
BRANCH  14  17
ATOM     17  C   UNL     1       1.322  -2.255   4.208  0.00  0.00    +0.106 C 
ATOM     18  C   UNL     1       0.946  -3.717   4.459  0.00  0.00    +0.022 C 
ENDBRANCH  14  17
ENDBRANCH  11  14
ENDBRANCH   5  11
ENDBRANCH   1   8
BRANCH   3  19
ATOM     19  C   UNL     1       6.458   5.312   4.295  0.00  0.00    +0.094 C 
BRANCH  19  20
ATOM     20  C   UNL     1       6.747   5.639   5.761  0.00  0.00    -0.021 C 
BRANCH  20  21
ATOM     21  C   UNL     1       5.458   5.630   6.542  0.00  0.00    -0.059 A 
ATOM     22  C   UNL     1       4.612   6.723   6.496  0.00  0.00    +0.004 A 
ATOM     23  C   UNL     1       3.432   6.718   7.209  0.00  0.00    +0.023 A 
ATOM     24  C   UNL     1       3.082   5.609   7.983  0.00  0.00    +0.033 A 
ATOM     25  C   UNL     1       3.937   4.519   8.022  0.00  0.00    -0.025 A 
ATOM     26  C   UNL     1       5.115   4.527   7.301  0.00  0.00    +0.007 A 
ATOM     27  C   UNL     1       3.331   3.465   8.921  0.00  0.00    +0.056 C 
ATOM     28  C   UNL     1       2.008   4.083   9.403  0.00  0.00    +0.109 C 
ATOM     29  N   UNL     1       1.948   5.403   8.770  0.00  0.00    -0.332 N 
ATOM     30  C   UNL     1       0.857   6.366   8.938  0.00  0.00    +0.129 C 
ENDBRANCH  20  21
BRANCH  20  31
ATOM     31  N   UNL     1       7.366   6.968   5.854  0.00  0.00    +0.382 N 
ATOM     32  C   UNL     1       7.597   7.304   7.265  0.00  0.00    -0.096 C 
ATOM     33  C   UNL     1       8.647   6.963   5.135  0.00  0.00    -0.096 C 
ATOM     34  H   UNL     1       6.752   7.655   5.441  0.00  0.00    -0.082 HD
ENDBRANCH  20  31
ENDBRANCH  19  20
ENDBRANCH   3  19
TORSDOF 9
