REMARK  Name = ZINC63204786
REMARK  7 active torsions:
REMARK  status: ('A' for Active; 'I' for Inactive)
REMARK    1  A    between atoms: C_1  and  C_2
REMARK    2  A    between atoms: C_7  and  C_30
REMARK    3  A    between atoms: C_9  and  C_12
REMARK    4  A    between atoms: C_12  and  C_13
REMARK    5  A    between atoms: C_13  and  C_14
REMARK    6  A    between atoms: N_16  and  C_17
REMARK    7  A    between atoms: C_26  and  C_29
REMARK                            x       y       z     vdW  Elec       q    Type
REMARK                         _______ _______ _______ _____ _____    ______ ____
ROOT
ATOM      1  C   UNL     1       0.044  -1.290   3.893  0.00  0.00    +0.100 C 
ENDROOT
BRANCH   1   2
ATOM      2  C   UNL     1       0.038  -1.030   5.377  0.00  0.00    +0.217 C 
ATOM      3  O   UNL     1       0.044  -1.959   6.156  0.00  0.00    -0.275 OA
ATOM      4  N   UNL     1       0.025   0.236   5.839  0.00  0.00    -0.285 N 
ATOM      5  H   UNL     1       0.088   0.980   5.219  0.00  0.00    +0.155 HD
BRANCH   4   6
ATOM      6  C   UNL     1      -0.078   0.479   7.215  0.00  0.00    +0.035 A 
ATOM      7  C   UNL     1       0.533  -0.380   8.119  0.00  0.00    +0.027 A 
ATOM      8  C   UNL     1       0.434  -0.144   9.478  0.00  0.00    +0.049 A 
ATOM      9  C   UNL     1      -0.276   0.950   9.940  0.00  0.00    +0.143 A 
ATOM     10  C   UNL     1      -0.891   1.814   9.035  0.00  0.00    +0.077 A 
ATOM     11  C   UNL     1      -0.787   1.581   7.674  0.00  0.00    +0.050 A 
ATOM     12  N   UNL     1      -1.609   2.917   9.519  0.00  0.00    -0.279 N 
ATOM     13  C   UNL     1      -1.431   3.302  10.802  0.00  0.00    +0.258 C 
ATOM     14  O   UNL     1      -2.063   4.234  11.251  0.00  0.00    -0.271 OA
ATOM     15  C   UNL     1      -0.444   2.567  11.673  0.00  0.00    +0.256 C 
ATOM     16  O   UNL     1      -0.380   1.195  11.274  0.00  0.00    -0.478 OA
ATOM     17  C   UNL     1      -0.892   2.652  13.133  0.00  0.00    +0.062 C 
ATOM     18  H   UNL     1      -2.223   3.397   8.942  0.00  0.00    +0.155 HD
ENDBRANCH   4   6
ENDBRANCH   1   2
BRANCH   1  19
ATOM     19  C   UNL     1       0.058  -2.799   3.640  0.00  0.00    +0.043 C 
BRANCH  19  27
ATOM     20  C   UNL     1       0.023   1.504   0.010  0.00  0.00    +0.044 C 
ATOM     21  C   UNL     1       0.038  -0.003   0.002  0.00  0.00    -0.050 A 
ATOM     22  C   UNL     1       0.047  -0.679  -1.226  0.00  0.00    +0.005 A 
ATOM     23  C   UNL     1       0.060  -2.025  -1.317  0.00  0.00    +0.026 A 
ATOM     24  C   UNL     1       0.066  -2.825  -0.142  0.00  0.00    +0.043 A 
ATOM     25  N   UNL     1       0.078  -4.125   0.030  0.00  0.00    -0.373 N 
ATOM     26  C   UNL     1       0.078  -4.407   1.469  0.00  0.00    +0.143 C 
ATOM     27  C   UNL     1       0.064  -3.060   2.156  0.00  0.00    -0.033 C 
ATOM     28  C   UNL     1       0.057  -2.136   1.168  0.00  0.00    -0.000 A 
ATOM     29  C   UNL     1       0.049  -0.668   1.179  0.00  0.00    +0.013 A 
ATOM     30  H   UNL     1       0.085  -4.789  -0.677  0.00  0.00    +0.161 HD
BRANCH  26  31
ATOM     31  C   UNL     1       1.320  -5.172   1.849  0.00  0.00    +0.016 A 
ATOM     32  C   UNL     1       1.458  -6.190   2.734  0.00  0.00    +0.013 A 
ATOM     33  C   UNL     1       2.709  -6.748   2.923  0.00  0.00    +0.008 A 
ATOM     34  C   UNL     1       3.759  -6.261   2.218  0.00  0.00    +0.045 A 
ATOM     35  S   UNL     1       2.988  -4.979   1.244  0.00  0.00    -0.099 S 
ENDBRANCH  26  31
ENDBRANCH  19  27
ENDBRANCH   1  19
TORSDOF 5
