REMARK  Name = ZINC39361154
REMARK  8 active torsions:
REMARK  status: ('A' for Active; 'I' for Inactive)
REMARK    1  A    between atoms: C_1  and  C_2
REMARK    2  A    between atoms: C_7  and  C_15
REMARK    3  A    between atoms: C_13  and  C_14
REMARK    4  A    between atoms: C_15  and  C_16
REMARK    5  A    between atoms: C_16  and  N_17
REMARK    6  A    between atoms: C_18  and  C_20
REMARK    7  A    between atoms: C_23  and  S_26
REMARK    8  A    between atoms: S_26  and  N_29
REMARK                            x       y       z     vdW  Elec       q    Type
REMARK                         _______ _______ _______ _____ _____    ______ ____
ROOT
ATOM      1  N   UNL     1      -2.144  -7.676   2.515  0.00  0.00    -0.311 N 
ATOM      2  C   UNL     1      -2.253  -8.593   3.496  0.00  0.00    +0.244 C 
ATOM      3  O   UNL     1      -1.431  -8.626   4.391  0.00  0.00    -0.270 OA
ATOM      4  H   UNL     1      -2.800  -7.649   1.800  0.00  0.00    +0.149 HD
ENDROOT
BRANCH   2   5
ATOM      5  C   UNL     1      -3.371  -9.561   3.483  0.00  0.00    +0.037 A 
ATOM      6  C   UNL     1      -4.312  -9.530   2.453  0.00  0.00    +0.015 A 
ATOM      7  C   UNL     1      -5.353 -10.435   2.446  0.00  0.00    +0.029 A 
ATOM      8  C   UNL     1      -5.465 -11.373   3.458  0.00  0.00    +0.106 A 
ATOM      9  C   UNL     1      -4.535 -11.408   4.482  0.00  0.00    +0.029 A 
ATOM     10  C   UNL     1      -3.486 -10.512   4.497  0.00  0.00    +0.015 A 
BRANCH   8  11
ATOM     11  S   UNL     1      -6.797 -12.525   3.442  0.00  0.00    +0.061 S 
ATOM     12  O   UNL     1      -6.987 -12.944   4.787  0.00  0.00    -0.153 OA
ATOM     13  O   UNL     1      -7.837 -11.934   2.674  0.00  0.00    -0.153 OA
BRANCH  11  14
ATOM     14  N   UNL     1      -6.284 -13.855   2.600  0.00  0.00    -0.177 NA
ATOM     15  C   UNL     1      -6.478 -13.941   1.146  0.00  0.00    +0.109 C 
ATOM     16  C   UNL     1      -5.127 -14.237   0.485  0.00  0.00    +0.017 C 
ATOM     17  C   UNL     1      -4.520 -15.493   1.114  0.00  0.00    +0.003 C 
ATOM     18  C   UNL     1      -4.286 -15.256   2.608  0.00  0.00    +0.017 C 
ATOM     19  C   UNL     1      -5.621 -14.970   3.291  0.00  0.00    +0.109 C 
ENDBRANCH  11  14
ENDBRANCH   8  11
ENDBRANCH   2   5
BRANCH   1  20
ATOM     20  C   UNL     1      -1.036  -6.717   2.528  0.00  0.00    +0.105 C 
BRANCH  20  21
ATOM     21  C   UNL     1      -1.146  -5.794   1.313  0.00  0.00    +0.035 C 
BRANCH  21  28
ATOM     22  C   UNL     1       4.654  -3.718  -2.960  0.00  0.00    +0.044 C 
ATOM     23  C   UNL     1       3.746  -4.154  -1.839  0.00  0.00    -0.046 A 
ATOM     24  C   UNL     1       4.186  -5.154  -0.971  0.00  0.00    +0.004 A 
ATOM     25  C   UNL     1       3.413  -5.588   0.058  0.00  0.00    +0.010 A 
ATOM     26  C   UNL     1       2.093  -4.987   0.251  0.00  0.00    -0.007 A 
ATOM     27  C   UNL     1       1.283  -5.391   1.270  0.00  0.00    -0.005 C 
ATOM     28  C   UNL     1      -0.068  -4.712   1.395  0.00  0.00    +0.100 C 
ATOM     29  C   UNL     1      -0.405  -3.643   0.380  0.00  0.00    +0.224 C 
ATOM     30  O   UNL     1      -1.475  -3.066   0.434  0.00  0.00    -0.275 OA
ATOM     31  N   UNL     1       0.467  -3.338  -0.566  0.00  0.00    -0.284 N 
ATOM     32  C   UNL     1       1.655  -3.932  -0.680  0.00  0.00    +0.043 A 
ATOM     33  C   UNL     1       2.535  -3.552  -1.710  0.00  0.00    -0.026 A 
ATOM     34  C   UNL     1       2.129  -2.474  -2.681  0.00  0.00    +0.046 C 
ATOM     35  H   UNL     1       0.231  -2.650  -1.207  0.00  0.00    +0.155 HD
ENDBRANCH  21  28
ENDBRANCH  20  21
ENDBRANCH   1  20
TORSDOF 6
