REMARK  Name = ZINC32527444
REMARK  8 active torsions:
REMARK  status: ('A' for Active; 'I' for Inactive)
REMARK    1  A    between atoms: C_1  and  C_2
REMARK    2  A    between atoms: C_4  and  C_32
REMARK    3  A    between atoms: C_8  and  C_31
REMARK    4  A    between atoms: N_12  and  C_13
REMARK    5  A    between atoms: C_13  and  C_15
REMARK    6  A    between atoms: C_13  and  C_16
REMARK    7  A    between atoms: N_18  and  C_19
REMARK    8  A    between atoms: C_20  and  C_28
REMARK                            x       y       z     vdW  Elec       q    Type
REMARK                         _______ _______ _______ _____ _____    ______ ____
ROOT
ATOM      1  C   UNL     1       2.003   4.757   0.837  0.00  0.00    +0.240 C 
ATOM      2  O   UNL     1       0.866   4.783   1.257  0.00  0.00    -0.273 OA
ATOM      3  N   UNL     1       2.732   3.628   0.934  0.00  0.00    -0.278 N 
ATOM      4  H   UNL     1       3.764   3.604   0.553  0.00  0.00    +0.155 HD
ENDROOT
BRANCH   3   5
ATOM      5  C   UNL     1       2.182   2.495   1.515  0.00  0.00    +0.084 A 
ATOM      6  C   UNL     1       2.768   1.252   1.704  0.00  0.00    +0.068 A 
ATOM      7  C   UNL     1       1.967   0.222   2.345  0.00  0.00    -0.023 A 
ATOM      8  C   UNL     1       0.717   0.599   2.692  0.00  0.00    -0.004 A 
ATOM      9  S   UNL     1       0.595   2.289   2.180  0.00  0.00    -0.077 S 
ATOM     10  C   UNL     1      -0.327  -0.242   3.360  0.00  0.00    +0.043 C 
ATOM     11  C   UNL     1       0.101  -1.713   3.261  0.00  0.00    +0.005 C 
ATOM     12  C   UNL     1       1.568  -1.830   3.683  0.00  0.00    +0.005 C 
ATOM     13  C   UNL     1       2.466  -1.190   2.623  0.00  0.00    +0.037 C 
BRANCH   6  14
ATOM     14  C   UNL     1       4.143   0.986   1.273  0.00  0.00    +0.244 C 
ATOM     15  O   UNL     1       4.359   0.565   0.151  0.00  0.00    -0.270 OA
ATOM     16  N   UNL     1       5.169   1.207   2.118  0.00  0.00    -0.325 N 
ATOM     17  H   UNL     1       6.202   1.008   1.794  0.00  0.00    +0.145 HD
ATOM     18  H   UNL     1       4.975   1.588   3.132  0.00  0.00    +0.145 HD
ENDBRANCH   6  14
ENDBRANCH   3   5
BRANCH   1  19
ATOM     19  C   UNL     1       2.601   5.988   0.205  0.00  0.00    +0.173 C 
ATOM     20  C   UNL     1       3.841   6.415   0.994  0.00  0.00    +0.041 C 
BRANCH  19  32
ATOM     21  C   UNL     1       1.244  10.621  -4.177  0.00  0.00    +0.044 C 
ATOM     22  C   UNL     1       1.338   9.681  -3.003  0.00  0.00    -0.050 A 
ATOM     23  C   UNL     1       2.272   8.654  -3.018  0.00  0.00    +0.008 A 
ATOM     24  C   UNL     1       2.375   7.782  -1.955  0.00  0.00    -0.026 A 
ATOM     25  C   UNL     1       1.535   7.931  -0.856  0.00  0.00    +0.056 A 
ATOM     26  C   UNL     1       0.590   8.973  -0.845  0.00  0.00    +0.002 A 
ATOM     27  C   UNL     1       0.503   9.846  -1.935  0.00  0.00    +0.013 A 
ATOM     28  C   UNL     1      -0.290   9.121   0.316  0.00  0.00    -0.036 A 
ATOM     29  C   UNL     1      -0.160   8.244   1.343  0.00  0.00    +0.074 A 
ATOM     30  C   UNL     1       0.800   7.212   1.279  0.00  0.00    +0.253 A 
ATOM     31  O   UNL     1       0.895   6.431   2.209  0.00  0.00    -0.268 OA
ATOM     32  N   UNL     1       1.616   7.072   0.219  0.00  0.00    -0.296 N 
ATOM     33  C   UNL     1      -1.316  10.223   0.370  0.00  0.00    +0.044 C 
ATOM     34  C   UNL     1       3.394   6.672  -1.984  0.00  0.00    +0.046 C 
ENDBRANCH  19  32
ENDBRANCH   1  19
TORSDOF 4
