REMARK  Name = ZINC12281348
REMARK  10 active torsions:
REMARK  status: ('A' for Active; 'I' for Inactive)
REMARK    1  A    between atoms: C_1  and  C_2
REMARK    2  A    between atoms: C_2  and  C_3
REMARK    3  A    between atoms: C_2  and  C_4
REMARK    4  A    between atoms: C_4  and  C_5
REMARK    5  A    between atoms: C_5  and  C_19
REMARK    6  A    between atoms: N_8  and  C_12
REMARK    7  A    between atoms: C_12  and  C_13
REMARK    8  A    between atoms: C_13  and  C_14
REMARK    9  A    between atoms: C_24  and  C_25
REMARK   10  A    between atoms: C_24  and  N_67
REMARK                            x       y       z     vdW  Elec       q    Type
REMARK                         _______ _______ _______ _____ _____    ______ ____
ROOT
ATOM      1  C   UNL     1       4.433   7.891  -1.321  0.00  0.00    +0.115 C 
ATOM      2  C   UNL     1       3.316   6.943  -1.710  0.00  0.00    +0.247 C 
ATOM      3  O   UNL     1       2.135   7.199  -1.799  0.00  0.00    -0.273 OA
ATOM      4  N   UNL     1       3.910   5.754  -1.934  0.00  0.00    -0.224 N 
ATOM      5  C   UNL     1       5.234   5.821  -1.750  0.00  0.00    +0.309 C 
ATOM      6  O   UNL     1       5.985   4.877  -1.898  0.00  0.00    -0.252 OA
ATOM      7  N   UNL     1       5.640   7.050  -1.384  0.00  0.00    -0.285 N 
ATOM      8  H   UNL     1       6.551   7.327  -1.198  0.00  0.00    +0.151 HD
ENDROOT
BRANCH   1   9
ATOM      9  C   UNL     1       4.527   9.044  -2.322  0.00  0.00    +0.018 C 
ATOM     10  C   UNL     1       3.311   9.961  -2.163  0.00  0.00    -0.013 C 
ATOM     11  C   UNL     1       3.378  11.076  -3.209  0.00  0.00    -0.078 C 
ATOM     12  C   UNL     1       4.586   9.643  -4.745  0.00  0.00    -0.078 C 
ATOM     13  C   UNL     1       4.553   8.484  -3.747  0.00  0.00    -0.013 C 
ATOM     14  N   UNL     1       3.376  10.472  -4.558  0.00  0.00    +0.382 N 
ATOM     15  H   UNL     1       2.546   9.876  -4.654  0.00  0.00    -0.081 HD
BRANCH  14  16
ATOM     16  C   UNL     1       3.327  11.533  -5.585  0.00  0.00    -0.043 C 
BRANCH  16  17
ATOM     17  C   UNL     1       2.250  12.523  -5.222  0.00  0.00    -0.060 A 
ATOM     18  C   UNL     1       0.955  12.326  -5.664  0.00  0.00    +0.005 A 
ATOM     19  C   UNL     1      -0.037  13.229  -5.330  0.00  0.00    +0.050 A 
ATOM     20  C   UNL     1       0.267  14.339  -4.559  0.00  0.00    +0.166 A 
ATOM     21  C   UNL     1       1.573  14.540  -4.118  0.00  0.00    +0.166 A 
ATOM     22  C   UNL     1       2.561  13.628  -4.453  0.00  0.00    +0.051 A 
ATOM     23  O   UNL     1       1.614  15.691  -3.386  0.00  0.00    -0.453 OA
ATOM     24  C   UNL     1       0.245  15.976  -3.040  0.00  0.00    +0.466 C 
ATOM     25  O   UNL     1      -0.510  15.364  -4.103  0.00  0.00    -0.453 OA
ENDBRANCH  16  17
ENDBRANCH  14  16
ENDBRANCH   1   9
BRANCH   1  26
ATOM     26  C   UNL     1       4.222   8.424   0.098  0.00  0.00    +0.038 C 
BRANCH  26  28
ATOM     27  C   UNL     1       5.304   6.464   1.207  0.00  0.00    +0.007 C 
ATOM     28  C   UNL     1       4.001   7.252   1.056  0.00  0.00    -0.015 C 
ATOM     29  C   UNL     1       3.566   7.785   2.422  0.00  0.00    +0.007 C 
ENDBRANCH  26  28
ENDBRANCH   1  26
BRANCH   4  30
ATOM     30  C   UNL     1       3.196   4.540  -2.336  0.00  0.00    +0.123 C 
BRANCH  30  31
ATOM     31  C   UNL     1       2.772   3.761  -1.089  0.00  0.00    +0.062 C 
BRANCH  31  32
ATOM     32  C   UNL     1       2.036   2.512  -1.503  0.00  0.00    -0.009 A 
ATOM     33  C   UNL     1       2.530   1.276  -1.758  0.00  0.00    +0.011 A 
ATOM     34  C   UNL     1       1.658   0.269  -2.127  0.00  0.00    +0.008 A 
ATOM     35  C   UNL     1       0.335   0.547  -2.223  0.00  0.00    +0.045 A 
ATOM     36  S   UNL     1       0.289   2.277  -1.784  0.00  0.00    -0.102 S 
ENDBRANCH  31  32
ENDBRANCH  30  31
ENDBRANCH   4  30
TORSDOF 8
