REMARK  Name = ZINC06535256
REMARK  9 active torsions:
REMARK  status: ('A' for Active; 'I' for Inactive)
REMARK    1  A    between atoms: C_1  and  C_2
REMARK    2  A    between atoms: C_2  and  N_3
REMARK    3  A    between atoms: C_7  and  C_15
REMARK    4  A    between atoms: C_11  and  C_14
REMARK    5  A    between atoms: C_15  and  O_17
REMARK    6  A    between atoms: O_17  and  C_18
REMARK    7  A    between atoms: C_18  and  C_19
REMARK    8  A    between atoms: C_22  and  C_30
REMARK    9  A    between atoms: C_27  and  C_29
REMARK                            x       y       z     vdW  Elec       q    Type
REMARK                         _______ _______ _______ _____ _____    ______ ____
ROOT
ATOM      1  N   UNL     1      -1.345  -0.662   0.008  0.00  0.00    -0.305 N 
ATOM      2  C   UNL     1      -1.992  -0.895   1.202  0.00  0.00    +0.070 A 
ATOM      3  C   UNL     1      -1.349  -0.626   2.410  0.00  0.00    +0.029 A 
ATOM      4  C   UNL     1      -1.985  -0.855   3.594  0.00  0.00    +0.017 A 
ATOM      5  C   UNL     1      -3.293  -1.362   3.613  0.00  0.00    +0.061 A 
ATOM      6  C   UNL     1      -3.953  -1.637   2.422  0.00  0.00    +0.044 A 
ATOM      7  C   UNL     1      -3.305  -1.405   1.202  0.00  0.00    +0.089 A 
ATOM      8  N   UNL     1      -3.938  -1.668   0.042  0.00  0.00    -0.245 NA
ATOM      9  C   UNL     1      -3.355  -1.460  -1.103  0.00  0.00    +0.103 A 
ATOM     10  C   UNL     1      -1.990  -0.925  -1.149  0.00  0.00    +0.273 A 
ATOM     11  O   UNL     1      -1.443  -0.724  -2.218  0.00  0.00    -0.266 OA
ATOM     12  C   UNL     1      -4.087  -1.763  -2.385  0.00  0.00    +0.071 C 
ENDROOT
BRANCH   1  14
ATOM     13  C   UNL     1      -0.026   1.397  -0.025  0.00  0.00    +0.027 C 
ATOM     14  C   UNL     1       0.021  -0.132  -0.006  0.00  0.00    +0.122 C 
ENDBRANCH   1  14
BRANCH   5  15
ATOM     15  C   UNL     1      -3.969  -1.604   4.902  0.00  0.00    +0.340 C 
ATOM     16  O   UNL     1      -5.102  -2.043   4.921  0.00  0.00    -0.245 OA
BRANCH  15  17
ATOM     17  O   UNL     1      -3.331  -1.338   6.059  0.00  0.00    -0.452 OA
BRANCH  17  18
ATOM     18  C   UNL     1      -4.046  -1.596   7.269  0.00  0.00    +0.328 C 
BRANCH  18  19
ATOM     19  C   UNL     1      -3.179  -1.241   8.450  0.00  0.00    +0.254 C 
ATOM     20  O   UNL     1      -2.060  -0.810   8.272  0.00  0.00    -0.272 OA
ATOM     21  N   UNL     1      -3.648  -1.404   9.703  0.00  0.00    -0.293 N 
ATOM     22  C   UNL     1      -5.041  -1.810   9.934  0.00  0.00    +0.073 C 
ATOM     23  C   UNL     1      -5.050  -3.048  10.837  0.00  0.00    +0.022 C 
ATOM     24  C   UNL     1      -4.262  -2.748  12.114  0.00  0.00    +0.004 C 
ATOM     25  C   UNL     1      -2.811  -2.422  11.756  0.00  0.00    +0.022 C 
ATOM     26  C   UNL     1      -2.775  -1.183  10.863  0.00  0.00    +0.073 C 
ATOM     27  C   UNL     1      -1.341  -0.938  10.387  0.00  0.00    +0.028 C 
ATOM     28  C   UNL     1      -5.802  -0.670  10.613  0.00  0.00    +0.028 C 
ENDBRANCH  18  19
ENDBRANCH  17  18
ENDBRANCH  15  17
ENDBRANCH   5  15
TORSDOF 5
