REMARK  Name = ZINC03310109
REMARK  14 active torsions:
REMARK  status: ('A' for Active; 'I' for Inactive)
REMARK    1  A    between atoms: C_1  and  C_2
REMARK    2  A    between atoms: C_6  and  N_9
REMARK    3  A    between atoms: C_7  and  C_8
REMARK    4  A    between atoms: N_11  and  C_28
REMARK    5  A    between atoms: C_14  and  C_17
REMARK    6  A    between atoms: C_17  and  C_18
REMARK    7  A    between atoms: N_20  and  C_21
REMARK    8  A    between atoms: C_28  and  C_29
REMARK    9  A    between atoms: C_29  and  C_30
REMARK   10  A    between atoms: C_29  and  C_31
REMARK   11  A    between atoms: C_29  and  C_32
REMARK   12  A    between atoms: C_32  and  N_67
REMARK   13  A    between atoms: C_33  and  N_67
REMARK   14  A    between atoms: C_34  and  N_67
REMARK                            x       y       z     vdW  Elec       q    Type
REMARK                         _______ _______ _______ _____ _____    ______ ____
ROOT
ATOM      1  N   UNL     1      -0.208   2.219  -0.061  0.00  0.00    -0.226 NA
ATOM      2  C   UNL     1       0.183   0.971  -0.161  0.00  0.00    +0.164 C 
ATOM      3  N   UNL     1      -0.588  -0.171  -0.097  0.00  0.00    -0.249 N 
ATOM      4  C   UNL     1      -0.070  -1.382  -0.217  0.00  0.00    +0.235 C 
ATOM      5  O   UNL     1      -0.753  -2.382  -0.166  0.00  0.00    -0.274 OA
ATOM      6  C   UNL     1       1.436  -1.441  -0.417  0.00  0.00    +0.149 C 
ATOM      7  S   UNL     1       1.841   0.350  -0.402  0.00  0.00    -0.077 S 
ENDROOT
BRANCH   1  13
ATOM      8  C   UNL     1       1.470   6.370   1.922  0.00  0.00    +0.044 C 
ATOM      9  C   UNL     1       1.565   5.264   0.902  0.00  0.00    -0.046 A 
ATOM     10  C   UNL     1       2.590   5.269  -0.027  0.00  0.00    +0.004 A 
ATOM     11  C   UNL     1       2.684   4.258  -0.968  0.00  0.00    +0.002 A 
ATOM     12  C   UNL     1       1.755   3.239  -0.985  0.00  0.00    +0.028 A 
ATOM     13  C   UNL     1       0.718   3.228  -0.050  0.00  0.00    +0.070 A 
ATOM     14  C   UNL     1       0.625   4.255   0.893  0.00  0.00    -0.022 A 
ATOM     15  C   UNL     1      -0.494   4.255   1.901  0.00  0.00    +0.046 C 
ENDBRANCH   1  13
BRANCH   6  16
ATOM     16  C   UNL     1       1.792  -2.078  -1.762  0.00  0.00    +0.120 C 
BRANCH  16  17
ATOM     17  C   UNL     1       3.287  -2.059  -1.946  0.00  0.00    +0.219 C 
ATOM     18  O   UNL     1       3.998  -1.583  -1.087  0.00  0.00    -0.275 OA
ATOM     19  N   UNL     1       3.835  -2.571  -3.067  0.00  0.00    -0.283 N 
ATOM     20  H   UNL     1       3.264  -2.882  -3.787  0.00  0.00    +0.155 HD
BRANCH  19  21
ATOM     21  C   UNL     1       5.227  -2.655  -3.190  0.00  0.00    +0.069 A 
ATOM     22  C   UNL     1       6.024  -2.708  -2.055  0.00  0.00    +0.026 A 
ATOM     23  C   UNL     1       7.398  -2.791  -2.181  0.00  0.00    +0.002 A 
ATOM     24  C   UNL     1       7.979  -2.823  -3.435  0.00  0.00    +0.003 A 
ATOM     25  C   UNL     1       7.189  -2.771  -4.568  0.00  0.00    +0.040 A 
ATOM     26  C   UNL     1       5.814  -2.692  -4.451  0.00  0.00    +0.144 A 
ATOM     27  F   UNL     1       5.041  -2.648  -5.558  0.00  0.00    -0.204 F 
ENDBRANCH  19  21
ENDBRANCH  16  17
ENDBRANCH   6  16
BRANCH   3  28
ATOM     28  C   UNL     1      -2.033  -0.037   0.104  0.00  0.00    +0.120 C 
BRANCH  28  29
ATOM     29  C   UNL     1      -2.730   0.061  -1.254  0.00  0.00    -0.033 C 
ATOM     30  C   UNL     1      -2.205   1.284  -2.009  0.00  0.00    +0.010 C 
ATOM     31  C   UNL     1      -2.443  -1.203  -2.067  0.00  0.00    +0.010 C 
BRANCH  29  32
ATOM     32  C   UNL     1      -4.239   0.201  -1.043  0.00  0.00    -0.072 C 
BRANCH  32  35
ATOM     33  C   UNL     1      -5.225  -1.083  -2.844  0.00  0.00    -0.097 C 
ATOM     34  C   UNL     1      -6.122   1.093  -2.276  0.00  0.00    -0.097 C 
ATOM     35  N   UNL     1      -4.894   0.276  -2.366  0.00  0.00    +0.376 N 
ATOM     36  H   UNL     1      -4.249   0.715  -3.033  0.00  0.00    -0.083 HD
ENDBRANCH  32  35
ENDBRANCH  29  32
ENDBRANCH  28  29
ENDBRANCH   3  28
TORSDOF 8
