REMARK  Name = ZINC08916639
REMARK  9 active torsions:
REMARK  status: ('A' for Active; 'I' for Inactive)
REMARK    1  A    between atoms: C_1  and  C_2
REMARK    2  A    between atoms: C_10  and  C_11
REMARK    3  A    between atoms: C_10  and  C_12
REMARK    4  A    between atoms: C_15  and  C_17
REMARK    5  A    between atoms: C_17  and  N_28
REMARK    6  A    between atoms: C_18  and  C_19
REMARK    7  A    between atoms: C_22  and  N_25
REMARK    8  A    between atoms: N_25  and  C_26
REMARK    9  A    between atoms: N_25  and  C_27
REMARK                            x       y       z     vdW  Elec       q    Type
REMARK                         _______ _______ _______ _____ _____    ______ ____
ROOT
ATOM      1  C   UNL     1      -1.150  -0.698   0.125  0.00  0.00    +0.112 C 
ATOM      2  C   UNL     1      -0.050  -0.070  -0.358  0.00  0.00    +0.039 C 
ENDROOT
BRANCH   1  14
ATOM      3  C   UNL     1      -5.857   1.744   2.854  0.00  0.00    +0.010 C 
ATOM      4  C   UNL     1      -4.503   1.067   2.598  0.00  0.00    +0.012 C 
ATOM      5  C   UNL     1      -3.771   1.776   1.462  0.00  0.00    +0.080 C 
ATOM      6  C   UNL     1      -3.275   3.146   1.984  0.00  0.00    +0.028 C 
ATOM      7  C   UNL     1      -2.086   2.671   2.864  0.00  0.00    +0.009 C 
ATOM      8  C   UNL     1      -2.674   2.055   4.130  0.00  0.00    +0.011 C 
ATOM      9  C   UNL     1      -3.719   0.982   3.894  0.00  0.00    -0.030 C 
ATOM     10  C   UNL     1      -3.065  -0.406   4.000  0.00  0.00    +0.011 C 
ATOM     11  C   UNL     1      -4.741   1.071   5.055  0.00  0.00    +0.011 C 
ATOM     12  C   UNL     1      -1.456   1.557   1.999  0.00  0.00    +0.112 C 
ATOM     13  N   UNL     1      -2.536   1.025   1.154  0.00  0.00    -0.293 N 
ATOM     14  C   UNL     1      -2.417   0.032   0.250  0.00  0.00    +0.264 C 
ATOM     15  O   UNL     1      -3.360  -0.259  -0.462  0.00  0.00    -0.268 OA
ENDBRANCH   1  14
BRANCH   1  16
ATOM     16  N   UNL     1      -1.077  -2.043   0.504  0.00  0.00    -0.279 N 
ATOM     17  C   UNL     1      -1.863  -2.960  -0.118  0.00  0.00    +0.095 A 
ATOM     18  C   UNL     1      -1.809  -4.267   0.231  0.00  0.00    +0.018 A 
ATOM     19  C   UNL     1      -0.937  -4.685   1.246  0.00  0.00    +0.007 A 
ATOM     20  C   UNL     1      -0.149  -3.762   1.870  0.00  0.00    +0.071 A 
ATOM     21  C   UNL     1      -0.225  -2.415   1.479  0.00  0.00    +0.256 A 
ATOM     22  O   UNL     1       0.478  -1.580   2.026  0.00  0.00    -0.267 OA
ENDBRANCH   1  16
BRANCH   2  23
ATOM     23  C   UNL     1      -0.159   1.294  -0.892  0.00  0.00    -0.023 A 
ATOM     24  C   UNL     1      -1.345   1.714  -1.508  0.00  0.00    +0.010 A 
ATOM     25  C   UNL     1      -1.444   2.990  -2.001  0.00  0.00    +0.023 A 
ATOM     26  C   UNL     1      -0.364   3.863  -1.901  0.00  0.00    +0.029 A 
ATOM     27  C   UNL     1       0.818   3.447  -1.295  0.00  0.00    +0.023 A 
ATOM     28  C   UNL     1       0.924   2.175  -0.794  0.00  0.00    +0.010 A 
BRANCH  26  29
ATOM     29  N   UNL     1      -0.467   5.155  -2.409  0.00  0.00    -0.336 N 
ATOM     30  C   UNL     1       0.668   6.075  -2.305  0.00  0.00    +0.129 C 
ATOM     31  C   UNL     1      -1.711   5.594  -3.046  0.00  0.00    +0.129 C 
ENDBRANCH  26  29
ENDBRANCH   2  23
TORSDOF 4
