REMARK  Name = ZINC09542257
REMARK  10 active torsions:
REMARK  status: ('A' for Active; 'I' for Inactive)
REMARK    1  A    between atoms: C_1  and  C_2
REMARK    2  A    between atoms: C_2  and  C_3
REMARK    3  A    between atoms: C_3  and  C_4
REMARK    4  A    between atoms: C_4  and  C_5
REMARK    5  A    between atoms: C_5  and  C_6
REMARK    6  A    between atoms: C_6  and  C_7
REMARK    7  A    between atoms: C_7  and  C_31
REMARK    8  A    between atoms: C_9  and  C_23
REMARK    9  A    between atoms: C_12  and  C_14
REMARK   10  A    between atoms: C_28  and  O_29
REMARK                            x       y       z     vdW  Elec       q    Type
REMARK                         _______ _______ _______ _____ _____    ______ ____
ROOT
ATOM      1  C   UNL     1      -4.263  -4.652   0.018  0.00  0.00    +0.026 C 
ATOM      2  N   UNL     1      -4.237  -6.112   0.163  0.00  0.00    +0.400 N 
ATOM      3  C   UNL     1      -5.606  -6.631   0.006  0.00  0.00    -0.028 C 
ATOM      4  C   UNL     1      -6.028  -6.439  -1.454  0.00  0.00    +0.044 C 
ATOM      5  C   UNL     1      -5.709  -5.033  -1.884  0.00  0.00    +0.040 C 
ATOM      6  N   UNL     1      -4.926  -4.266  -1.221  0.00  0.00    -0.300 NA
ATOM      7  C   UNL     1      -5.015  -4.043   1.202  0.00  0.00    +0.014 C 
ATOM      8  H   UNL     1      -3.641  -6.512  -0.546  0.00  0.00    -0.081 HD
ATOM      9  H   UNL     1      -3.887  -6.355   1.078  0.00  0.00    -0.081 HD
ENDROOT
BRANCH   5  10
ATOM     10  C   UNL     1      -6.325  -4.516  -3.120  0.00  0.00    -0.001 A 
ATOM     11  C   UNL     1      -7.189  -5.324  -3.864  0.00  0.00    +0.013 A 
ATOM     12  C   UNL     1      -7.763  -4.838  -5.018  0.00  0.00    +0.050 A 
ATOM     13  C   UNL     1      -7.486  -3.547  -5.447  0.00  0.00    +0.166 A 
ATOM     14  C   UNL     1      -6.624  -2.735  -4.710  0.00  0.00    +0.167 A 
ATOM     15  C   UNL     1      -6.050  -3.214  -3.548  0.00  0.00    +0.059 A 
ATOM     16  O   UNL     1      -6.520  -1.528  -5.337  0.00  0.00    -0.453 OA
ATOM     17  C   UNL     1      -7.000  -1.748  -6.677  0.00  0.00    +0.466 C 
ATOM     18  O   UNL     1      -7.920  -2.847  -6.534  0.00  0.00    -0.453 OA
ENDBRANCH   5  10
BRANCH   3  19
ATOM     19  C   UNL     1      -5.636  -8.097   0.355  0.00  0.00    -0.018 A 
ATOM     20  C   UNL     1      -4.467  -8.833   0.352  0.00  0.00    +0.020 A 
ATOM     21  C   UNL     1      -4.495 -10.178   0.673  0.00  0.00    +0.018 A 
ATOM     22  C   UNL     1      -5.693 -10.790   0.997  0.00  0.00    +0.019 A 
ATOM     23  C   UNL     1      -6.864 -10.057   1.002  0.00  0.00    +0.047 A 
ATOM     24  C   UNL     1      -6.838  -8.707   0.685  0.00  0.00    +0.119 A 
ATOM     25 BR   UNL     1      -2.893 -11.183   0.667  0.00  0.00    -0.050 Br
BRANCH  24  26
ATOM     26  O   UNL     1      -7.988  -7.983   0.694  0.00  0.00    -0.507 OA
ATOM     27  H   UNL     1      -8.454  -7.974  -0.154  0.00  0.00    +0.292 HD
ENDBRANCH  24  26
ENDBRANCH   3  19
BRANCH   1  28
ATOM     28  C   UNL     1      -2.827  -4.123   0.007  0.00  0.00    +0.010 C 
BRANCH  28  29
ATOM     29  C   UNL     1      -2.848  -2.593   0.015  0.00  0.00    +0.000 C 
BRANCH  29  30
ATOM     30  C   UNL     1      -1.413  -2.063   0.004  0.00  0.00    -0.000 C 
BRANCH  30  31
ATOM     31  C   UNL     1      -1.433  -0.534   0.013  0.00  0.00    -0.000 C 
BRANCH  31  33
ATOM     32  C   UNL     1      -0.019   1.526   0.010  0.00  0.00    +0.004 C 
ATOM     33  C   UNL     1       0.002  -0.004   0.002  0.00  0.00    -0.003 C 
ENDBRANCH  31  33
ENDBRANCH  30  31
ENDBRANCH  29  30
ENDBRANCH  28  29
ENDBRANCH   1  28
TORSDOF 8
