REMARK  Name = ZINC19530275
REMARK  7 active torsions:
REMARK  status: ('A' for Active; 'I' for Inactive)
REMARK    1  A    between atoms: C_1  and  C_2
REMARK    2  A    between atoms: C_2  and  O_3
REMARK    3  A    between atoms: O_3  and  C_4
REMARK    4  A    between atoms: C_4  and  C_6
REMARK    5  A    between atoms: C_7  and  C_21
REMARK    6  A    between atoms: C_12  and  C_14
REMARK    7  A    between atoms: C_21  and  N_22
REMARK                            x       y       z     vdW  Elec       q    Type
REMARK                         _______ _______ _______ _____ _____    ______ ____
ROOT
ATOM      1  C   UNL     1       2.983   0.787  -1.440  0.00  0.00    +0.076 C 
ATOM      2  C   UNL     1       4.165   1.333  -1.797  0.00  0.00    +0.008 C 
ATOM      3  N   UNL     1       4.894   2.076  -0.913  0.00  0.00    -0.274 N 
ATOM      4  C   UNL     1       4.510   2.319   0.347  0.00  0.00    +0.304 C 
ATOM      5  O   UNL     1       5.227   2.993   1.061  0.00  0.00    -0.252 OA
ATOM      6  N   UNL     1       3.354   1.841   0.849  0.00  0.00    -0.288 N 
ATOM      7  C   UNL     1       2.494   1.026  -0.025  0.00  0.00    +0.144 C 
ATOM      8  H   UNL     1       5.854   2.513  -1.222  0.00  0.00    +0.156 HD
ATOM      9  H   UNL     1       3.048   2.046   1.885  0.00  0.00    +0.151 HD
ENDROOT
BRANCH   7  10
ATOM     10  C   UNL     1       1.147   1.696  -0.107  0.00  0.00    -0.020 A 
ATOM     11  C   UNL     1      -0.007   0.934  -0.090  0.00  0.00    +0.006 A 
ATOM     12  C   UNL     1      -1.243   1.547  -0.170  0.00  0.00    +0.003 A 
ATOM     13  C   UNL     1      -1.328   2.924  -0.255  0.00  0.00    +0.038 A 
ATOM     14  C   UNL     1      -0.174   3.688  -0.272  0.00  0.00    +0.124 A 
ATOM     15  C   UNL     1       1.064   3.073  -0.198  0.00  0.00    +0.044 A 
ATOM     16  F   UNL     1      -0.256   5.034  -0.361  0.00  0.00    -0.205 F 
ENDBRANCH   7  10
BRANCH   1  17
ATOM     17  C   UNL     1       2.227   0.017  -2.354  0.00  0.00    +0.339 C 
ATOM     18  O   UNL     1       1.287   0.519  -2.942  0.00  0.00    -0.245 OA
BRANCH  17  19
ATOM     19  O   UNL     1       2.548  -1.275  -2.576  0.00  0.00    -0.462 OA
BRANCH  19  21
ATOM     20  C   UNL     1       2.254  -3.429  -3.630  0.00  0.00    +0.048 C 
ATOM     21  C   UNL     1       1.742  -1.993  -3.512  0.00  0.00    +0.229 C 
ENDBRANCH  19  21
ENDBRANCH  17  19
ENDBRANCH   1  17
BRANCH   2  22
ATOM     22  C   UNL     1       4.689   1.119  -3.193  0.00  0.00    -0.026 C 
BRANCH  22  23
ATOM     23  N   UNL     1       4.756   2.408  -3.894  0.00  0.00    +0.383 N 
ATOM     24  C   UNL     1       3.414   2.966  -4.100  0.00  0.00    -0.078 C 
ATOM     25  C   UNL     1       3.530   4.370  -4.699  0.00  0.00    -0.019 C 
ATOM     26  C   UNL     1       4.280   4.291  -6.031  0.00  0.00    -0.004 C 
ATOM     27  C   UNL     1       5.656   3.662  -5.796  0.00  0.00    -0.019 C 
ATOM     28  C   UNL     1       5.479   2.279  -5.166  0.00  0.00    -0.078 C 
ATOM     29  H   UNL     1       5.317   3.110  -3.260  0.00  0.00    -0.081 HD
ENDBRANCH  22  23
ENDBRANCH   2  22
TORSDOF 6
