REMARK  Name = ZINC51131603
REMARK  4 active torsions:
REMARK  status: ('A' for Active; 'I' for Inactive)
REMARK    1  A    between atoms: C_4  and  C_25
REMARK    2  A    between atoms: N_7  and  C_8
REMARK    3  A    between atoms: C_8  and  C_9
REMARK    4  A    between atoms: N_14  and  C_15
REMARK                            x       y       z     vdW  Elec       q    Type
REMARK                         _______ _______ _______ _____ _____    ______ ____
ROOT
ATOM      1  C   UNL     1      -2.000  -0.192  -1.363  0.00  0.00    +0.234 C 
ATOM      2  O   UNL     1      -1.380   0.453  -2.182  0.00  0.00    -0.274 OA
ATOM      3  N   UNL     1      -3.259  -0.589  -1.631  0.00  0.00    -0.239 N 
ATOM      4  C   UNL     1      -3.830  -0.269  -2.809  0.00  0.00    +0.306 C 
ATOM      5  O   UNL     1      -3.209   0.377  -3.630  0.00  0.00    -0.252 OA
ATOM      6  N   UNL     1      -5.090  -0.667  -3.077  0.00  0.00    -0.294 N 
ATOM      7  H   UNL     1      -3.755  -1.105  -0.976  0.00  0.00    +0.159 HD
ATOM      8  H   UNL     1      -5.586  -1.182  -2.422  0.00  0.00    +0.151 HD
ENDROOT
BRANCH   6   9
ATOM      9  C   UNL     1      -5.710  -0.319  -4.358  0.00  0.00    +0.037 C 
ATOM     10  C   UNL     1      -4.885  -0.912  -5.502  0.00  0.00    +0.029 C 
ATOM     11  C   UNL     1      -5.533  -0.549  -6.840  0.00  0.00    -0.008 C 
ATOM     12  C   UNL     1      -6.953  -1.116  -6.889  0.00  0.00    +0.007 C 
ATOM     13  C   UNL     1      -7.779  -0.524  -5.745  0.00  0.00    -0.008 C 
ATOM     14  C   UNL     1      -7.131  -0.887  -4.407  0.00  0.00    +0.029 C 
ATOM     15  C   UNL     1      -7.832   0.998  -5.890  0.00  0.00    +0.007 C 
ATOM     16  C   UNL     1      -6.412   1.565  -5.841  0.00  0.00    -0.008 C 
ATOM     17  C   UNL     1      -5.587   0.973  -6.984  0.00  0.00    +0.007 C 
ATOM     18  C   UNL     1      -5.764   1.203  -4.503  0.00  0.00    +0.029 C 
ENDBRANCH   6   9
BRANCH   1  19
ATOM     19  C   UNL     1      -1.361  -0.549  -0.045  0.00  0.00    +0.181 C 
BRANCH  19  25
ATOM     20  C   UNL     1      -0.018   1.466   0.010  0.00  0.00    +0.113 C 
ATOM     21  C   UNL     1       1.420   1.990  -0.001  0.00  0.00    +0.176 C 
ATOM     22  O   UNL     1       2.127   1.452   1.120  0.00  0.00    -0.365 OA
ATOM     23  C   UNL     1       2.167   0.023   1.143  0.00  0.00    +0.217 C 
ATOM     24  C   UNL     1       0.736  -0.521   1.166  0.00  0.00    +0.126 C 
ATOM     25  N   UNL     1       0.002  -0.004   0.002  0.00  0.00    -0.289 NA
BRANCH  23  26
ATOM     26  C   UNL     1       2.902  -0.440   2.375  0.00  0.00    +0.241 C 
ATOM     27  O   UNL     1       3.269   0.368   3.202  0.00  0.00    -0.273 OA
ATOM     28  N   UNL     1       3.151  -1.752   2.558  0.00  0.00    -0.327 N 
ATOM     29  H   UNL     1       2.858  -2.398   1.896  0.00  0.00    +0.145 HD
ATOM     30  H   UNL     1       3.624  -2.050   3.350  0.00  0.00    +0.145 HD
ENDBRANCH  23  26
ENDBRANCH  19  25
ENDBRANCH   1  19
TORSDOF 4
