REMARK  Name = ZINC38658315
REMARK  14 active torsions:
REMARK  status: ('A' for Active; 'I' for Inactive)
REMARK    1  A    between atoms: C_1  and  C_2
REMARK    2  A    between atoms: C_2  and  C_3
REMARK    3  A    between atoms: C_2  and  C_4
REMARK    4  A    between atoms: C_2  and  C_5
REMARK    5  A    between atoms: C_8  and  C_11
REMARK    6  A    between atoms: C_11  and  O_13
REMARK    7  A    between atoms: O_13  and  C_14
REMARK    8  A    between atoms: C_21  and  N_37
REMARK    9  A    between atoms: C_22  and  C_35
REMARK   10  A    between atoms: C_23  and  C_25
REMARK   11  A    between atoms: C_28  and  O_33
REMARK   12  A    between atoms: C_29  and  O_31
REMARK   13  A    between atoms: O_31  and  C_32
REMARK   14  A    between atoms: O_33  and  C_34
REMARK                            x       y       z     vdW  Elec       q    Type
REMARK                         _______ _______ _______ _____ _____    ______ ____
ROOT
ATOM      1  C   UNL     1       4.668  -1.960  -6.039  0.00  0.00    +0.135 A 
ATOM      2  C   UNL     1       4.028  -2.724  -7.005  0.00  0.00    +0.047 A 
ATOM      3  C   UNL     1       4.729  -3.171  -8.107  0.00  0.00    +0.012 A 
ATOM      4  C   UNL     1       6.069  -2.860  -8.254  0.00  0.00    +0.008 A 
ATOM      5  C   UNL     1       6.714  -2.098  -7.293  0.00  0.00    +0.138 A 
ATOM      6  C   UNL     1       6.009  -1.642  -6.186  0.00  0.00    +0.093 A 
ATOM      7  O   UNL     1       8.027  -1.784  -7.419  0.00  0.00    -0.441 OA
ATOM      8  C   UNL     1       8.622  -1.863  -8.620  0.00  0.00    +0.199 C 
ATOM      9  C   UNL     1       8.098  -2.593  -9.633  0.00  0.00    +0.098 C 
ATOM     10  C   UNL     1       6.816  -3.358  -9.463  0.00  0.00    +0.098 C 
ENDROOT
BRANCH  10  11
ATOM     11  C   UNL     1       7.128  -4.822  -9.290  0.00  0.00    -0.031 A 
ATOM     12  C   UNL     1       7.895  -5.242  -8.218  0.00  0.00    +0.008 A 
ATOM     13  C   UNL     1       8.184  -6.584  -8.055  0.00  0.00    +0.050 A 
ATOM     14  C   UNL     1       7.704  -7.512  -8.966  0.00  0.00    +0.162 A 
ATOM     15  C   UNL     1       6.933  -7.089 -10.044  0.00  0.00    +0.162 A 
ATOM     16  C   UNL     1       6.643  -5.743 -10.199  0.00  0.00    +0.054 A 
BRANCH  15  17
ATOM     17  O   UNL     1       6.460  -7.996 -10.940  0.00  0.00    -0.491 OA
ATOM     18  C   UNL     1       5.675  -7.491 -12.022  0.00  0.00    +0.277 C 
ENDBRANCH  15  17
BRANCH  14  19
ATOM     19  O   UNL     1       7.988  -8.832  -8.806  0.00  0.00    -0.491 OA
ATOM     20  C   UNL     1       8.786  -9.193  -7.677  0.00  0.00    +0.277 C 
ENDBRANCH  14  19
ENDBRANCH  10  11
BRANCH   8  21
ATOM     21  N   UNL     1       9.796  -1.182  -8.828  0.00  0.00    -0.328 N 
ATOM     22  H   UNL     1      10.184  -0.655  -8.112  0.00  0.00    +0.145 HD
ATOM     23  H   UNL     1      10.238  -1.229  -9.690  0.00  0.00    +0.145 HD
ENDBRANCH   8  21
BRANCH   9  24
ATOM     24  C   UNL     1       8.780  -2.636 -10.892  0.00  0.00    +0.101 C 
ATOM     25  N   UNL     1       9.320  -2.671 -11.891  0.00  0.00    -0.191 NA
ENDBRANCH   9  24
BRANCH   1  26
ATOM     26  O   UNL     1       3.980  -1.519  -4.953  0.00  0.00    -0.422 OA
BRANCH  26  27
ATOM     27  C   UNL     1       3.728  -2.398  -3.964  0.00  0.00    +0.344 C 
ATOM     28  O   UNL     1       4.034  -3.566  -4.097  0.00  0.00    -0.245 OA
BRANCH  27  32
ATOM     29  C   UNL     1       1.865  -1.087  -0.380  0.00  0.00    -0.042 A 
ATOM     30  C   UNL     1       2.212  -2.418  -0.529  0.00  0.00    +0.005 A 
ATOM     31  C   UNL     1       2.817  -2.851  -1.690  0.00  0.00    +0.015 A 
ATOM     32  C   UNL     1       3.080  -1.942  -2.717  0.00  0.00    +0.059 A 
ATOM     33  C   UNL     1       2.727  -0.600  -2.561  0.00  0.00    +0.015 A 
ATOM     34  C   UNL     1       2.118  -0.182  -1.396  0.00  0.00    +0.005 A 
BRANCH  29  36
ATOM     35  C   UNL     1      -0.171  -0.035   0.566  0.00  0.00    +0.015 C 
ATOM     36  C   UNL     1       1.204  -0.622   0.891  0.00  0.00    -0.013 C 
ATOM     37  C   UNL     1       2.072   0.450   1.555  0.00  0.00    +0.015 C 
ATOM     38  C   UNL     1       1.040  -1.807   1.845  0.00  0.00    +0.015 C 
ENDBRANCH  29  36
ENDBRANCH  27  32
ENDBRANCH  26  27
ENDBRANCH   1  26
TORSDOF 9
