REMARK  Name = ZINC39664095
REMARK  9 active torsions:
REMARK  status: ('A' for Active; 'I' for Inactive)
REMARK    1  A    between atoms: C_1  and  C_2
REMARK    2  A    between atoms: C_2  and  C_8
REMARK    3  A    between atoms: C_12  and  C_21
REMARK    4  A    between atoms: N_23  and  C_24
REMARK    5  A    between atoms: C_24  and  C_25
REMARK    6  A    between atoms: C_25  and  C_27
REMARK    7  A    between atoms: C_25  and  N_35
REMARK    8  A    between atoms: C_30  and  O_33
REMARK    9  A    between atoms: O_33  and  C_34
REMARK                            x       y       z     vdW  Elec       q    Type
REMARK                         _______ _______ _______ _____ _____    ______ ____
ROOT
ATOM      1  C   UNL     1      -1.444  -0.415  -0.039  0.00  0.00    +0.222 C 
ATOM      2  O   UNL     1      -1.995  -0.956   0.897  0.00  0.00    -0.275 OA
ATOM      3  N   UNL     1      -2.163  -0.018  -1.107  0.00  0.00    -0.300 N 
ATOM      4  C   UNL     1      -1.662   0.557  -2.377  0.00  0.00    +0.121 C 
ATOM      5  C   UNL     1      -2.548  -0.079  -3.471  0.00  0.00    +0.100 C 
ATOM      6  C   UNL     1      -3.842  -0.480  -2.743  0.00  0.00    -0.004 C 
ATOM      7  C   UNL     1      -3.635  -0.065  -1.279  0.00  0.00    +0.115 C 
ATOM      8  C   UNL     1      -4.054  -1.988  -2.833  0.00  0.00    -0.010 C 
ATOM      9  C   UNL     1      -5.375  -2.355  -2.152  0.00  0.00    -0.082 C 
ATOM     10  N   UNL     1      -6.480  -1.645  -2.809  0.00  0.00    +0.379 N 
ATOM     11  C   UNL     1      -6.317  -0.197  -2.638  0.00  0.00    -0.082 C 
ATOM     12  C   UNL     1      -5.035   0.262  -3.339  0.00  0.00    -0.010 C 
ATOM     13  H   UNL     1      -6.483  -1.868  -3.793  0.00  0.00    -0.086 HD
ATOM     14  H   UNL     1      -7.355  -1.935  -2.399  0.00  0.00    -0.086 HD
ENDROOT
BRANCH   1  16
ATOM     15  C   UNL     1       0.719  -1.067  -1.062  0.00  0.00    +0.021 C 
ATOM     16  C   UNL     1       0.046  -0.187  -0.006  0.00  0.00    +0.044 C 
ATOM     17  C   UNL     1       0.587  -0.547   1.379  0.00  0.00    +0.016 C 
ATOM     18  C   UNL     1      -0.087   0.333   2.434  0.00  0.00    +0.001 C 
ATOM     19  C   UNL     1       0.210   1.804   2.136  0.00  0.00    +0.000 C 
ATOM     20  C   UNL     1      -0.331   2.164   0.751  0.00  0.00    +0.001 C 
ATOM     21  C   UNL     1       0.343   1.284  -0.304  0.00  0.00    +0.016 C 
ENDBRANCH   1  16
BRANCH   5  22
ATOM     22  C   UNL     1      -2.843   0.924  -4.556  0.00  0.00    +0.218 C 
ATOM     23  O   UNL     1      -2.933   2.103  -4.285  0.00  0.00    -0.275 OA
ATOM     24  N   UNL     1      -3.006   0.512  -5.829  0.00  0.00    -0.316 N 
ATOM     25  H   UNL     1      -2.934  -0.431  -6.046  0.00  0.00    +0.149 HD
BRANCH  24  26
ATOM     26  C   UNL     1      -3.293   1.487  -6.884  0.00  0.00    +0.093 C 
BRANCH  26  27
ATOM     27  C   UNL     1      -3.536   0.753  -8.204  0.00  0.00    -0.020 C 
BRANCH  27  28
ATOM     28  C   UNL     1      -2.268   0.064  -8.637  0.00  0.00    -0.059 A 
ATOM     29  C   UNL     1      -1.266   0.787  -9.257  0.00  0.00    +0.005 A 
ATOM     30  C   UNL     1      -0.102   0.158  -9.655  0.00  0.00    +0.046 A 
ATOM     31  C   UNL     1       0.061  -1.202  -9.432  0.00  0.00    +0.120 A 
ATOM     32  C   UNL     1      -0.946  -1.926  -8.809  0.00  0.00    +0.046 A 
ATOM     33  C   UNL     1      -2.105  -1.290  -8.408  0.00  0.00    +0.005 A 
BRANCH  31  34
ATOM     34  O   UNL     1       1.204  -1.823  -9.822  0.00  0.00    -0.495 OA
ATOM     35  C   UNL     1       1.303  -3.225  -9.560  0.00  0.00    +0.277 C 
ENDBRANCH  31  34
ENDBRANCH  27  28
BRANCH  27  36
ATOM     36  N   UNL     1      -3.944   1.718  -9.233  0.00  0.00    +0.385 N 
ATOM     37  C   UNL     1      -4.234   1.015 -10.509  0.00  0.00    -0.078 C 
ATOM     38  C   UNL     1      -5.151   2.012 -11.263  0.00  0.00    -0.020 C 
ATOM     39  C   UNL     1      -6.017   2.609 -10.130  0.00  0.00    -0.020 C 
ATOM     40  C   UNL     1      -5.208   2.379  -8.841  0.00  0.00    -0.078 C 
ATOM     41  H   UNL     1      -3.220   2.407  -9.372  0.00  0.00    -0.081 HD
ENDBRANCH  27  36
ENDBRANCH  26  27
ENDBRANCH  24  26
ENDBRANCH   5  22
TORSDOF 7
