REMARK  Name = ZINC08397260
REMARK  16 active torsions:
REMARK  status: ('A' for Active; 'I' for Inactive)
REMARK    1  A    between atoms: C_1  and  C_2
REMARK    2  A    between atoms: C_2  and  N_3
REMARK    3  A    between atoms: N_3  and  C_4
REMARK    4  A    between atoms: N_3  and  C_6
REMARK    5  A    between atoms: C_4  and  C_5
REMARK    6  A    between atoms: C_6  and  C_7
REMARK    7  A    between atoms: C_7  and  C_9
REMARK    8  A    between atoms: C_7  and  O_30
REMARK    9  A    between atoms: C_9  and  O_10
REMARK   10  A    between atoms: O_10  and  C_11
REMARK   11  A    between atoms: C_18  and  N_25
REMARK   12  A    between atoms: C_19  and  C_20
REMARK   13  A    between atoms: C_20  and  O_22
REMARK   14  A    between atoms: O_22  and  C_23
REMARK   15  A    between atoms: C_23  and  C_24
REMARK   16  A    between atoms: C_26  and  C_28
REMARK                            x       y       z     vdW  Elec       q    Type
REMARK                         _______ _______ _______ _____ _____    ______ ____
ROOT
ATOM      1  C   UNL     1      -0.562  -5.274   3.699  0.00  0.00    +0.149 A 
ATOM      2  C   UNL     1      -1.684  -5.847   4.279  0.00  0.00    +0.061 A 
ATOM      3  C   UNL     1      -1.633  -7.170   4.693  0.00  0.00    +0.019 A 
ATOM      4  C   UNL     1      -0.496  -7.922   4.538  0.00  0.00    +0.011 A 
ATOM      5  C   UNL     1       0.663  -7.368   3.951  0.00  0.00    +0.009 A 
ATOM      6  C   UNL     1       0.585  -6.028   3.535  0.00  0.00    +0.065 A 
ATOM      7  S   UNL     1       2.185  -5.684   2.851  0.00  0.00    -0.069 S 
ATOM      8  C   UNL     1       2.951  -7.274   3.096  0.00  0.00    +0.087 A 
ATOM      9  C   UNL     1       1.956  -8.017   3.708  0.00  0.00    +0.095 A 
ATOM     10 BR   UNL     1      -3.265  -4.836   4.506  0.00  0.00    -0.046 Br
ENDROOT
BRANCH   8  11
ATOM     11  N   UNL     1       4.234  -7.667   2.765  0.00  0.00    -0.280 N 
ATOM     12  C   UNL     1       5.077  -6.794   2.179  0.00  0.00    +0.214 C 
ATOM     13  O   UNL     1       4.710  -5.662   1.943  0.00  0.00    -0.276 OA
ATOM     14  C   UNL     1       6.476  -7.223   1.819  0.00  0.00    +0.109 C 
ATOM     15  H   UNL     1       4.528  -8.572   2.955  0.00  0.00    +0.155 HD
ENDBRANCH   8  11
BRANCH   9  16
ATOM     16  C   UNL     1       2.173  -9.369   4.073  0.00  0.00    +0.342 C 
ATOM     17  O   UNL     1       1.933 -10.259   3.279  0.00  0.00    -0.245 OA
BRANCH  16  18
ATOM     18  O   UNL     1       2.647  -9.669   5.300  0.00  0.00    -0.461 OA
BRANCH  18  19
ATOM     19  C   UNL     1       2.843 -11.053   5.600  0.00  0.00    +0.229 C 
ATOM     20  C   UNL     1       3.380 -11.195   7.025  0.00  0.00    +0.048 C 
ENDBRANCH  18  19
ENDBRANCH  16  18
ENDBRANCH   9  16
BRANCH   1  21
ATOM     21  O   UNL     1      -0.593  -3.978   3.287  0.00  0.00    -0.487 OA
BRANCH  21  22
ATOM     22  C   UNL     1      -1.017  -3.733   1.945  0.00  0.00    +0.258 C 
BRANCH  22  23
ATOM     23  C   UNL     1      -0.987  -2.229   1.667  0.00  0.00    +0.135 C 
BRANCH  23  24
ATOM     24  O   UNL     1       0.362  -1.760   1.729  0.00  0.00    -0.390 OA
ATOM     25  H   UNL     1       0.954  -2.180   1.090  0.00  0.00    +0.210 HD
ENDBRANCH  23  24
BRANCH  23  26
ATOM     26  C   UNL     1      -1.558  -1.956   0.274  0.00  0.00    -0.044 C 
BRANCH  26  27
ATOM     27  N   UNL     1      -1.681  -0.507   0.070  0.00  0.00    +0.381 N 
ATOM     28  H   UNL     1      -2.207  -0.104   0.831  0.00  0.00    -0.082 HD
BRANCH  27  30
ATOM     29  C   UNL     1       0.501  -0.609  -1.037  0.00  0.00    -0.017 C 
ATOM     30  C   UNL     1      -0.343   0.098   0.026  0.00  0.00    -0.082 C 
ENDBRANCH  27  30
BRANCH  27  31
ATOM     31  C   UNL     1      -2.377  -0.248  -1.197  0.00  0.00    -0.082 C 
ATOM     32  C   UNL     1      -2.625   1.255  -1.345  0.00  0.00    -0.017 C 
ENDBRANCH  27  31
ENDBRANCH  26  27
ENDBRANCH  23  26
ENDBRANCH  22  23
ENDBRANCH  21  22
ENDBRANCH   1  21
TORSDOF 12
