REMARK  Name = ZINC50563049
REMARK  4 active torsions:
REMARK  status: ('A' for Active; 'I' for Inactive)
REMARK    1  A    between atoms: C_1  and  C_2
REMARK    2  A    between atoms: C_8  and  C_10
REMARK    3  A    between atoms: C_11  and  C_13
REMARK    4  A    between atoms: C_15  and  N_19
REMARK                            x       y       z     vdW  Elec       q    Type
REMARK                         _______ _______ _______ _____ _____    ______ ____
ROOT
ATOM      1  C   UNL     1      -0.672   1.579   0.392  0.00  0.00    +0.009 C 
ATOM      2  C   UNL     1      -0.719   0.051   0.361  0.00  0.00    +0.006 C 
ATOM      3  C   UNL     1      -0.578  -0.436  -1.083  0.00  0.00    +0.006 C 
ATOM      4  C   UNL     1      -0.658  -1.964  -1.118  0.00  0.00    +0.019 C 
ATOM      5  C   UNL     1       0.494  -2.550  -0.296  0.00  0.00    +0.108 C 
ATOM      6  N   UNL     1       0.451  -1.975   1.056  0.00  0.00    -0.293 N 
ATOM      7  C   UNL     1       0.431  -0.513   1.202  0.00  0.00    +0.076 C 
ATOM      8  C   UNL     1       0.220  -0.147   2.672  0.00  0.00    +0.028 C 
ATOM      9  C   UNL     1       0.429  -2.774   2.141  0.00  0.00    +0.263 C 
ATOM     10  O   UNL     1       0.393  -2.285   3.255  0.00  0.00    -0.268 OA
ENDROOT
BRANCH   9  11
ATOM     11  C   UNL     1       0.449  -4.231   1.980  0.00  0.00    +0.104 A 
ATOM     12  C   UNL     1      -0.051  -5.156   2.873  0.00  0.00    +0.055 A 
ATOM     13  C   UNL     1       0.176  -6.425   2.324  0.00  0.00    +0.043 A 
ATOM     14  C   UNL     1       0.799  -6.254   1.129  0.00  0.00    +0.106 A 
ATOM     15  N   UNL     1       0.965  -4.923   0.908  0.00  0.00    -0.355 N 
ATOM     16  H   UNL     1       1.379  -4.526   0.126  0.00  0.00    +0.166 HD
BRANCH  13  17
ATOM     17  N   UNL     1      -0.178  -7.657   2.906  0.00  0.00    -0.357 N 
ATOM     18  H   UNL     1      -0.623  -7.676   3.768  0.00  0.00    +0.142 HD
ATOM     19  H   UNL     1       0.023  -8.486   2.446  0.00  0.00    +0.142 HD
ENDBRANCH  13  17
ENDBRANCH   9  11
TORSDOF 2
