REMARK  Name = ZINC45898541
REMARK  11 active torsions:
REMARK  status: ('A' for Active; 'I' for Inactive)
REMARK    1  A    between atoms: C_1  and  C_2
REMARK    2  A    between atoms: C_6  and  N_9
REMARK    3  A    between atoms: C_7  and  C_8
REMARK    4  A    between atoms: C_10  and  C_12
REMARK    5  A    between atoms: C_12  and  N_13
REMARK    6  A    between atoms: N_22  and  C_25
REMARK    7  A    between atoms: C_25  and  C_26
REMARK    8  A    between atoms: C_26  and  C_27
REMARK    9  A    between atoms: C_27  and  C_28
REMARK   10  A    between atoms: C_28  and  C_29
REMARK   11  A    between atoms: N_31  and  C_32
REMARK                            x       y       z     vdW  Elec       q    Type
REMARK                         _______ _______ _______ _____ _____    ______ ____
ROOT
ATOM      1  N   UNL     1      -0.207  -6.335   3.410  0.00  0.00    -0.284 N 
ATOM      2  C   UNL     1      -1.446  -6.933   3.229  0.00  0.00    +0.059 A 
ATOM      3  C   UNL     1      -2.623  -6.203   3.303  0.00  0.00    +0.027 A 
ATOM      4  C   UNL     1      -3.835  -6.837   3.117  0.00  0.00    +0.002 A 
ATOM      5  C   UNL     1      -3.889  -8.198   2.857  0.00  0.00    +0.001 A 
ATOM      6  C   UNL     1      -2.729  -8.940   2.780  0.00  0.00    +0.015 A 
ATOM      7  C   UNL     1      -1.500  -8.313   2.966  0.00  0.00    +0.063 A 
ATOM      8  C   UNL     1      -0.230  -9.059   2.895  0.00  0.00    +0.264 A 
ATOM      9  O   UNL     1      -0.221 -10.253   2.669  0.00  0.00    -0.267 OA
ATOM     10  N   UNL     1       0.922  -8.380   3.086  0.00  0.00    -0.260 N 
ATOM     11  C   UNL     1       0.921  -7.060   3.330  0.00  0.00    +0.333 A 
ATOM     12  O   UNL     1       1.987  -6.498   3.490  0.00  0.00    -0.246 OA
ENDROOT
BRANCH   1  13
ATOM     13  C   UNL     1      -0.129  -4.898   3.686  0.00  0.00    +0.222 C 
BRANCH  13  15
ATOM     14  N   UNL     1       0.052  -2.797   2.393  0.00  0.00    -0.284 N 
ATOM     15  C   UNL     1      -0.031  -4.143   2.385  0.00  0.00    +0.237 C 
ATOM     16  O   UNL     1      -0.028  -4.745   1.333  0.00  0.00    -0.274 OA
ATOM     17  H   UNL     1       0.130  -2.321   3.234  0.00  0.00    +0.155 HD
BRANCH  14  23
ATOM     18  C   UNL     1       1.206   1.236  -0.172  0.00  0.00    +0.044 C 
ATOM     19  C   UNL     1       0.577  -0.131  -0.084  0.00  0.00    -0.046 A 
ATOM     20  C   UNL     1      -0.027  -0.686  -1.198  0.00  0.00    +0.004 A 
ATOM     21  C   UNL     1      -0.605  -1.940  -1.122  0.00  0.00    +0.002 A 
ATOM     22  C   UNL     1      -0.580  -2.642   0.067  0.00  0.00    +0.023 A 
ATOM     23  C   UNL     1       0.026  -2.088   1.187  0.00  0.00    +0.037 A 
ATOM     24  C   UNL     1       0.610  -0.831   1.106  0.00  0.00    -0.026 A 
ATOM     25  C   UNL     1       1.274  -0.228   2.317  0.00  0.00    +0.046 C 
ENDBRANCH  14  23
ENDBRANCH  13  15
ENDBRANCH   1  13
BRANCH  10  26
ATOM     26  C   UNL     1       2.197  -9.098   3.021  0.00  0.00    +0.130 C 
BRANCH  26  27
ATOM     27  C   UNL     1       2.720  -9.081   1.583  0.00  0.00    +0.022 C 
BRANCH  27  28
ATOM     28  C   UNL     1       4.052  -9.831   1.516  0.00  0.00    +0.011 C 
BRANCH  28  29
ATOM     29  C   UNL     1       4.574  -9.814   0.077  0.00  0.00    +0.096 C 
BRANCH  29  30
ATOM     30  C   UNL     1       5.886 -10.553   0.011  0.00  0.00    +0.213 C 
ATOM     31  O   UNL     1       6.357 -11.044   1.015  0.00  0.00    -0.276 OA
ATOM     32  N   UNL     1       6.536 -10.667  -1.164  0.00  0.00    -0.312 N 
ATOM     33  H   UNL     1       6.159 -10.274  -1.967  0.00  0.00    +0.149 HD
BRANCH  32  34
ATOM     34  C   UNL     1       7.811 -11.385  -1.229  0.00  0.00    +0.073 C 
ATOM     35  C   UNL     1       8.951 -10.434  -0.859  0.00  0.00    +0.022 C 
ATOM     36  C   UNL     1      10.283 -11.184  -0.927  0.00  0.00    +0.002 C 
ATOM     37  C   UNL     1      10.500 -11.711  -2.346  0.00  0.00    +0.000 C 
ATOM     38  C   UNL     1       9.360 -12.662  -2.717  0.00  0.00    +0.002 C 
ATOM     39  C   UNL     1       8.028 -11.912  -2.649  0.00  0.00    +0.022 C 
ENDBRANCH  32  34
ENDBRANCH  29  30
ENDBRANCH  28  29
ENDBRANCH  27  28
ENDBRANCH  26  27
ENDBRANCH  10  26
TORSDOF 9
