REMARK  Name = ZINC66568103
REMARK  7 active torsions:
REMARK  status: ('A' for Active; 'I' for Inactive)
REMARK    1  A    between atoms: C_1  and  C_2
REMARK    2  A    between atoms: C_2  and  N_3
REMARK    3  A    between atoms: C_9  and  C_11
REMARK    4  A    between atoms: C_11  and  C_12
REMARK    5  A    between atoms: N_15  and  C_18
REMARK    6  A    between atoms: C_18  and  C_19
REMARK    7  A    between atoms: N_21  and  C_22
REMARK                            x       y       z     vdW  Elec       q    Type
REMARK                         _______ _______ _______ _____ _____    ______ ____
ROOT
ATOM      1  C   UNL     1       4.564  -4.915   3.680  0.00  0.00    -0.006 C 
ATOM      2  C   UNL     1       5.468  -4.922   2.444  0.00  0.00    -0.015 C 
ATOM      3  C   UNL     1       6.739  -5.716   2.753  0.00  0.00    -0.078 C 
ATOM      4  N   UNL     1       6.384  -7.095   3.110  0.00  0.00    +0.385 N 
ATOM      5  C   UNL     1       5.576  -7.101   4.335  0.00  0.00    -0.078 C 
ATOM      6  C   UNL     1       4.261  -6.360   4.086  0.00  0.00    -0.015 C 
ATOM      7  H   UNL     1       5.855  -7.510   2.357  0.00  0.00    -0.081 HD
ENDROOT
BRANCH   1   8
ATOM      8  C   UNL     1       3.257  -4.190   3.353  0.00  0.00    +0.099 C 
BRANCH   8  15
ATOM      9  N   UNL     1       0.713  -0.491   1.192  0.00  0.00    -0.300 NA
ATOM     10  C   UNL     1       2.132  -0.115   1.148  0.00  0.00    +0.103 C 
ATOM     11  C   UNL     1       2.795  -0.479   2.481  0.00  0.00    +0.123 C 
ATOM     12  N   UNL     1       2.536  -1.900   2.759  0.00  0.00    -0.299 N 
ATOM     13  C   UNL     1       1.149  -2.382   2.686  0.00  0.00    +0.123 C 
ATOM     14  C   UNL     1       0.551  -1.943   1.345  0.00  0.00    +0.103 C 
ATOM     15  C   UNL     1       3.544  -2.738   3.072  0.00  0.00    +0.216 C 
ATOM     16  O   UNL     1       4.682  -2.323   3.128  0.00  0.00    -0.276 OA
BRANCH   9  18
ATOM     17  C   UNL     1      -0.019   1.526   0.010  0.00  0.00    +0.020 C 
ATOM     18  C   UNL     1       0.002  -0.004   0.002  0.00  0.00    +0.081 C 
ENDBRANCH   9  18
ENDBRANCH   8  15
ENDBRANCH   1   8
BRANCH   4  19
ATOM     19  C   UNL     1       7.610  -7.874   3.330  0.00  0.00    +0.019 C 
BRANCH  19  20
ATOM     20  C   UNL     1       7.252  -9.317   3.575  0.00  0.00    +0.197 C 
ATOM     21  O   UNL     1       6.089  -9.663   3.566  0.00  0.00    -0.278 OA
ATOM     22  N   UNL     1       8.223 -10.223   3.802  0.00  0.00    -0.314 N 
ATOM     23  H   UNL     1       9.152  -9.947   3.809  0.00  0.00    +0.149 HD
BRANCH  22  24
ATOM     24  C   UNL     1       7.874 -11.626   4.040  0.00  0.00    +0.073 C 
ATOM     25  C   UNL     1       7.473 -11.797   5.520  0.00  0.00    +0.022 C 
ATOM     26  C   UNL     1       6.651 -13.050   5.651  0.00  0.00    +0.002 C 
ATOM     27  C   UNL     1       7.501 -14.276   6.037  0.00  0.00    +0.000 C 
ATOM     28  C   UNL     1       8.843 -14.334   5.282  0.00  0.00    +0.000 C 
ATOM     29  C   UNL     1       8.703 -13.966   3.829  0.00  0.00    +0.002 C 
ATOM     30  C   UNL     1       9.007 -12.462   3.673  0.00  0.00    +0.022 C 
ENDBRANCH  22  24
ENDBRANCH  19  20
ENDBRANCH   4  19
TORSDOF 6
