REMARK  Name = ZINC12498014
REMARK  6 active torsions:
REMARK  status: ('A' for Active; 'I' for Inactive)
REMARK    1  A    between atoms: C_1  and  O_2
REMARK    2  A    between atoms: O_2  and  C_3
REMARK    3  A    between atoms: C_3  and  C_5
REMARK    4  A    between atoms: C_5  and  C_34
REMARK    5  A    between atoms: C_10  and  C_12
REMARK    6  A    between atoms: N_21  and  C_24
REMARK                            x       y       z     vdW  Elec       q    Type
REMARK                         _______ _______ _______ _____ _____    ______ ____
ROOT
ATOM      1  C   UNL     1      -2.519   0.845   0.085  0.00  0.00    +0.070 C 
ATOM      2  C   UNL     1      -3.507   1.736  -0.574  0.00  0.00    +0.090 C 
ATOM      3  C   UNL     1      -3.217   1.437  -2.098  0.00  0.00    +0.078 C 
ATOM      4  C   UNL     1      -3.269  -0.071  -2.026  0.00  0.00    -0.023 C 
ATOM      5  C   UNL     1      -4.250   2.327  -2.672  0.00  0.00    +0.229 C 
ATOM      6  O   UNL     1      -4.920   2.133  -3.664  0.00  0.00    -0.275 OA
ATOM      7  N   UNL     1      -4.289   3.417  -1.843  0.00  0.00    -0.210 N 
ATOM      8  C   UNL     1      -3.668   3.187  -0.641  0.00  0.00    +0.229 C 
ATOM      9  O   UNL     1      -3.329   4.007   0.185  0.00  0.00    -0.275 OA
ATOM     10  N   UNL     1      -2.459  -0.352  -0.803  0.00  0.00    +0.398 N 
ATOM     11  H   UNL     1      -2.843  -1.168  -0.312  0.00  0.00    -0.083 HD
ATOM     12  H   UNL     1      -1.485  -0.539  -1.068  0.00  0.00    -0.083 HD
ENDROOT
BRANCH   7  13
ATOM     13  C   UNL     1      -4.897   4.635  -2.185  0.00  0.00    +0.048 A 
ATOM     14  C   UNL     1      -4.897   5.689  -1.282  0.00  0.00    +0.028 A 
ATOM     15  C   UNL     1      -5.492   6.889  -1.619  0.00  0.00    +0.051 A 
ATOM     16  C   UNL     1      -6.100   7.041  -2.857  0.00  0.00    +0.162 A 
ATOM     17  C   UNL     1      -6.104   5.986  -3.762  0.00  0.00    +0.164 A 
ATOM     18  C   UNL     1      -5.503   4.784  -3.424  0.00  0.00    +0.073 A 
ATOM     19  O   UNL     1      -6.689   6.120  -4.984  0.00  0.00    -0.485 OA
ATOM     20  C   UNL     1      -7.603   7.210  -5.145  0.00  0.00    +0.270 C 
ATOM     21  C   UNL     1      -6.956   8.470  -4.554  0.00  0.00    +0.270 C 
ATOM     22  O   UNL     1      -6.689   8.229  -3.168  0.00  0.00    -0.485 OA
ENDBRANCH   7  13
BRANCH   4  23
ATOM     23  C   UNL     1      -2.641  -0.688  -3.249  0.00  0.00    -0.025 A 
ATOM     24  C   UNL     1      -1.310  -1.057  -3.231  0.00  0.00    +0.005 A 
ATOM     25  C   UNL     1      -0.735  -1.628  -4.351  0.00  0.00    +0.000 A 
ATOM     26  C   UNL     1      -1.488  -1.821  -5.494  0.00  0.00    +0.003 A 
ATOM     27  C   UNL     1      -2.818  -1.448  -5.516  0.00  0.00    +0.038 A 
ATOM     28  C   UNL     1      -3.397  -0.880  -4.393  0.00  0.00    +0.125 A 
ATOM     29  F   UNL     1      -4.697  -0.516  -4.414  0.00  0.00    -0.205 F 
ENDBRANCH   4  23
BRANCH   1  30
ATOM     30  C   UNL     1      -1.172   1.517   0.160  0.00  0.00    -0.047 A 
ATOM     31  C   UNL     1      -0.250   1.333  -0.854  0.00  0.00    +0.003 A 
ATOM     32  C   UNL     1       0.983   1.954  -0.788  0.00  0.00    +0.000 A 
ATOM     33  C   UNL     1       1.297   2.754   0.294  0.00  0.00    +0.000 A 
ATOM     34  C   UNL     1       0.378   2.933   1.311  0.00  0.00    +0.000 A 
ATOM     35  C   UNL     1      -0.856   2.313   1.244  0.00  0.00    +0.003 A 
ENDBRANCH   1  30
BRANCH   1  36
ATOM     36  C   UNL     1      -2.991   0.461   1.464  0.00  0.00    +0.301 C 
ATOM     37  O   UNL     1      -3.734   1.193   2.073  0.00  0.00    -0.252 OA
BRANCH  36  39
ATOM     38  C   UNL     1      -3.080  -0.999   3.345  0.00  0.00    +0.280 C 
ATOM     39  O   UNL     1      -2.585  -0.694   2.014  0.00  0.00    -0.469 OA
ENDBRANCH  36  39
ENDBRANCH   1  36
TORSDOF 5
