REMARK  Name = ZINC45276990
REMARK  7 active torsions:
REMARK  status: ('A' for Active; 'I' for Inactive)
REMARK    1  A    between atoms: C_3  and  O_9
REMARK    2  A    between atoms: O_9  and  C_10
REMARK    3  A    between atoms: C_10  and  C_11
REMARK    4  A    between atoms: C_11  and  O_13
REMARK    5  A    between atoms: O_13  and  C_14
REMARK    6  A    between atoms: C_14  and  C_15
REMARK    7  A    between atoms: N_20  and  C_21
REMARK                            x       y       z     vdW  Elec       q    Type
REMARK                         _______ _______ _______ _____ _____    ______ ____
ROOT
ATOM      1  C   UNL     1       6.318   7.462  -0.021  0.00  0.00    +0.258 C 
ATOM      2  O   UNL     1       5.260   8.054  -0.008  0.00  0.00    -0.272 OA
ATOM      3  N   UNL     1       7.476   8.152  -0.029  0.00  0.00    -0.237 N 
ATOM      4  C   UNL     1       7.457   9.499  -0.022  0.00  0.00    +0.306 C 
ATOM      5  O   UNL     1       6.397  10.093  -0.009  0.00  0.00    -0.252 OA
ATOM      6  N   UNL     1       8.616  10.189  -0.030  0.00  0.00    -0.294 N 
ATOM      7  H   UNL     1       8.322   7.678  -0.039  0.00  0.00    +0.159 HD
ATOM      8  H   UNL     1       9.462   9.715  -0.040  0.00  0.00    +0.151 HD
ENDROOT
BRANCH   6   9
ATOM      9  C   UNL     1       8.596  11.654  -0.022  0.00  0.00    +0.037 C 
ATOM     10  C   UNL     1       7.856  12.160  -1.262  0.00  0.00    +0.029 C 
ATOM     11  C   UNL     1       7.835  13.690  -1.254  0.00  0.00    -0.008 C 
ATOM     12  C   UNL     1       9.271  14.220  -1.265  0.00  0.00    +0.007 C 
ATOM     13  C   UNL     1      10.011  13.713  -0.026  0.00  0.00    -0.008 C 
ATOM     14  C   UNL     1      10.031  12.183  -0.034  0.00  0.00    +0.029 C 
ATOM     15  C   UNL     1       9.295  14.207   1.233  0.00  0.00    +0.007 C 
ATOM     16  C   UNL     1       7.859  13.678   1.244  0.00  0.00    -0.008 C 
ATOM     17  C   UNL     1       7.119  14.184   0.005  0.00  0.00    +0.007 C 
ATOM     18  C   UNL     1       7.880  12.148   1.237  0.00  0.00    +0.029 C 
ENDBRANCH   6   9
BRANCH   1  19
ATOM     19  C   UNL     1       6.338   5.955  -0.029  0.00  0.00    +0.328 C 
BRANCH  19  20
ATOM     20  O   UNL     1       4.997   5.461  -0.018  0.00  0.00    -0.453 OA
BRANCH  20  21
ATOM     21  C   UNL     1       4.839   4.128  -0.023  0.00  0.00    +0.346 C 
ATOM     22  O   UNL     1       5.807   3.405  -0.036  0.00  0.00    -0.247 OA
BRANCH  21  23
ATOM     23  C   UNL     1       3.454   3.533  -0.013  0.00  0.00    +0.349 C 
BRANCH  23  24
ATOM     24  O   UNL     1       3.549   2.107  -0.021  0.00  0.00    -0.480 OA
BRANCH  24  27
ATOM     25  C   UNL     1      -0.017   1.380   0.010  0.00  0.00    +0.042 A 
ATOM     26  C   UNL     1       1.170   2.088   0.002  0.00  0.00    +0.049 A 
ATOM     27  C   UNL     1       2.380   1.412  -0.013  0.00  0.00    +0.135 A 
ATOM     28  C   UNL     1       2.398   0.024  -0.021  0.00  0.00    +0.062 A 
ATOM     29  C   UNL     1       1.210  -0.681  -0.013  0.00  0.00    +0.057 A 
ATOM     30  C   UNL     1       0.002  -0.004   0.002  0.00  0.00    +0.125 A 
ATOM     31  F   UNL     1      -1.159  -0.695   0.010  0.00  0.00    -0.205 F 
ATOM     32 BR   UNL     1       4.047  -0.901  -0.042  0.00  0.00    -0.046 Br
ENDBRANCH  24  27
ENDBRANCH  23  24
ENDBRANCH  21  23
ENDBRANCH  20  21
ENDBRANCH  19  20
ENDBRANCH   1  19
TORSDOF 7
