REMARK  Name = ZINC28055382
REMARK  8 active torsions:
REMARK  status: ('A' for Active; 'I' for Inactive)
REMARK    1  A    between atoms: C_1  and  C_2
REMARK    2  A    between atoms: C_2  and  O_3
REMARK    3  A    between atoms: O_3  and  C_4
REMARK    4  A    between atoms: C_7  and  C_12
REMARK    5  A    between atoms: C_9  and  O_10
REMARK    6  A    between atoms: O_10  and  C_11
REMARK    7  A    between atoms: C_18  and  C_23
REMARK    8  A    between atoms: C_30  and  C_32
REMARK                            x       y       z     vdW  Elec       q    Type
REMARK                         _______ _______ _______ _____ _____    ______ ____
ROOT
ATOM      1  C   UNL     1       2.796   0.867  -2.587  0.00  0.00    +0.234 C 
ATOM      2  C   UNL     1       3.421   1.542  -1.383  0.00  0.00    +0.025 C 
ATOM      3  C   UNL     1       4.458   2.359  -1.564  0.00  0.00    +0.050 C 
ATOM      4  C   UNL     1       4.930   2.608  -2.947  0.00  0.00    +0.038 A 
ATOM      5  C   UNL     1       6.175   3.170  -3.199  0.00  0.00    +0.016 A 
ATOM      6  C   UNL     1       6.574   3.384  -4.504  0.00  0.00    -0.050 A 
ATOM      7  C   UNL     1       5.739   3.044  -5.555  0.00  0.00    +0.007 A 
ATOM      8  C   UNL     1       4.497   2.485  -5.312  0.00  0.00    +0.046 A 
ATOM      9  C   UNL     1       4.086   2.264  -4.011  0.00  0.00    +0.131 A 
ATOM     10  O   UNL     1       2.877   1.714  -3.733  0.00  0.00    -0.479 OA
ATOM     11  C   UNL     1       7.924   3.992  -4.786  0.00  0.00    +0.044 C 
ATOM     12  N   UNL     1       5.104   2.992  -0.495  0.00  0.00    -0.282 N 
ATOM     13  C   UNL     1       4.810   2.542   0.782  0.00  0.00    +0.240 A 
ATOM     14  N   UNL     1       5.395   2.760   1.924  0.00  0.00    -0.092 NA
ATOM     15  N   UNL     1       4.785   2.124   2.866  0.00  0.00    -0.021 NA
ATOM     16  N   UNL     1       3.779   1.466   2.387  0.00  0.00    -0.042 NA
ATOM     17  N   UNL     1       3.756   1.717   1.016  0.00  0.00    -0.201 N 
ATOM     18  C   UNL     1       2.846   1.249  -0.019  0.00  0.00    +0.174 C 
ATOM     19  H   UNL     1       5.811   3.812  -0.688  0.00  0.00    +0.155 HD
ENDROOT
BRANCH  18  20
ATOM     20  C   UNL     1       1.521   1.951   0.126  0.00  0.00    -0.019 A 
ATOM     21  C   UNL     1       0.372   1.217   0.357  0.00  0.00    +0.009 A 
ATOM     22  C   UNL     1      -0.845   1.859   0.486  0.00  0.00    +0.039 A 
ATOM     23  C   UNL     1      -0.912   3.239   0.393  0.00  0.00    +0.123 A 
ATOM     24  C   UNL     1       0.239   3.973   0.161  0.00  0.00    +0.039 A 
ATOM     25  C   UNL     1       1.454   3.328   0.028  0.00  0.00    +0.009 A 
ATOM     26  F   UNL     1      -2.100   3.868   0.523  0.00  0.00    -0.205 F 
ENDBRANCH  18  20
BRANCH   1  30
ATOM     27  C   UNL     1       4.868  -2.787  -3.389  0.00  0.00    +0.162 A 
ATOM     28  C   UNL     1       5.436  -1.573  -3.743  0.00  0.00    +0.050 A 
ATOM     29  C   UNL     1       4.761  -0.394  -3.487  0.00  0.00    +0.011 A 
ATOM     30  C   UNL     1       3.525  -0.421  -2.869  0.00  0.00    +0.001 A 
ATOM     31  C   UNL     1       2.953  -1.629  -2.513  0.00  0.00    +0.057 A 
ATOM     32  C   UNL     1       3.622  -2.815  -2.772  0.00  0.00    +0.162 A 
BRANCH  32  33
ATOM     33  O   UNL     1       3.061  -4.003  -2.423  0.00  0.00    -0.491 OA
ATOM     34  C   UNL     1       1.779  -3.956  -1.793  0.00  0.00    +0.277 C 
ENDBRANCH  32  33
BRANCH  27  35
ATOM     35  O   UNL     1       5.528  -3.948  -3.645  0.00  0.00    -0.489 OA
BRANCH  35  37
ATOM     36  C   UNL     1       7.388  -5.241  -4.487  0.00  0.00    +0.048 C 
ATOM     37  C   UNL     1       6.803  -3.842  -4.282  0.00  0.00    +0.226 C 
ENDBRANCH  35  37
ENDBRANCH  27  35
ENDBRANCH   1  30
TORSDOF 5
