REMARK  Name = ZINC59166551
REMARK  9 active torsions:
REMARK  status: ('A' for Active; 'I' for Inactive)
REMARK    1  A    between atoms: C_4  and  C_7
REMARK    2  A    between atoms: C_7  and  N_8
REMARK    3  A    between atoms: N_16  and  N_17
REMARK    4  A    between atoms: C_18  and  C_20
REMARK    5  A    between atoms: C_20  and  N_21
REMARK    6  A    between atoms: N_21  and  C_22
REMARK    7  A    between atoms: N_21  and  C_29
REMARK    8  A    between atoms: C_22  and  C_23
REMARK    9  A    between atoms: C_29  and  C_30
REMARK                            x       y       z     vdW  Elec       q    Type
REMARK                         _______ _______ _______ _____ _____    ______ ____
ROOT
ATOM      1  N   UNL     1       5.324  -4.897   4.373  0.00  0.00    -0.208 N 
ATOM      2  C   UNL     1       5.203  -5.022   5.709  0.00  0.00    +0.216 C 
ATOM      3  O   UNL     1       4.474  -5.872   6.175  0.00  0.00    -0.276 OA
ATOM      4  H   UNL     1       5.907  -4.217   4.000  0.00  0.00    +0.177 HD
ENDROOT
BRANCH   1  13
ATOM      5  N   UNL     1       4.561  -6.053  -0.015  0.00  0.00    -0.261 N 
ATOM      6  C   UNL     1       5.352  -4.918   0.117  0.00  0.00    +0.046 A 
ATOM      7  C   UNL     1       5.968  -4.106  -0.830  0.00  0.00    +0.024 A 
ATOM      8  C   UNL     1       6.715  -3.017  -0.428  0.00  0.00    +0.002 A 
ATOM      9  C   UNL     1       6.861  -2.719   0.916  0.00  0.00    +0.001 A 
ATOM     10  C   UNL     1       6.258  -3.514   1.870  0.00  0.00    +0.012 A 
ATOM     11  C   UNL     1       5.503  -4.613   1.476  0.00  0.00    +0.028 A 
ATOM     12  C   UNL     1       4.745  -5.643   2.222  0.00  0.00    +0.153 C 
ATOM     13  N   UNL     1       4.609  -5.749   3.522  0.00  0.00    -0.175 NA
ATOM     14  C   UNL     1       4.170  -6.521   1.183  0.00  0.00    +0.272 C 
ATOM     15  O   UNL     1       3.468  -7.496   1.377  0.00  0.00    -0.268 OA
BRANCH   5  16
ATOM     16  C   UNL     1       4.195  -6.660  -1.297  0.00  0.00    +0.149 C 
BRANCH  16  20
ATOM     17  C   UNL     1       0.556  -4.924  -2.708  0.00  0.00    +0.000 A 
ATOM     18  C   UNL     1       1.770  -4.362  -3.056  0.00  0.00    +0.000 A 
ATOM     19  C   UNL     1       2.947  -4.924  -2.599  0.00  0.00    +0.005 A 
ATOM     20  C   UNL     1       2.911  -6.047  -1.794  0.00  0.00    -0.030 A 
ATOM     21  C   UNL     1       1.697  -6.608  -1.446  0.00  0.00    +0.005 A 
ATOM     22  C   UNL     1       0.519  -6.048  -1.904  0.00  0.00    +0.000 A 
ENDBRANCH  16  20
ENDBRANCH   5  16
ENDBRANCH   1  13
BRANCH   2  23
ATOM     23  C   UNL     1       5.973  -4.105   6.625  0.00  0.00    +0.021 C 
BRANCH  23  24
ATOM     24  N   UNL     1       5.670  -4.442   8.022  0.00  0.00    +0.391 N 
ATOM     25  H   UNL     1       4.672  -4.410   8.167  0.00  0.00    -0.080 HD
BRANCH  24  26
ATOM     26  C   UNL     1       6.165  -5.793   8.319  0.00  0.00    -0.042 C 
BRANCH  26  27
ATOM     27  C   UNL     1       5.735  -6.192   9.706  0.00  0.00    -0.064 A 
ATOM     28  C   UNL     1       6.597  -6.024  10.773  0.00  0.00    +0.002 A 
ATOM     29  C   UNL     1       6.202  -6.390  12.046  0.00  0.00    +0.000 A 
ATOM     30  C   UNL     1       4.944  -6.925  12.252  0.00  0.00    +0.000 A 
ATOM     31  C   UNL     1       4.081  -7.094  11.185  0.00  0.00    +0.000 A 
ATOM     32  C   UNL     1       4.475  -6.723   9.913  0.00  0.00    +0.002 A 
ENDBRANCH  26  27
ENDBRANCH  24  26
BRANCH  24  33
ATOM     33  C   UNL     1       6.325  -3.474   8.912  0.00  0.00    -0.042 C 
BRANCH  33  34
ATOM     34  C   UNL     1       5.696  -2.117   8.729  0.00  0.00    -0.064 A 
ATOM     35  C   UNL     1       6.273  -1.197   7.874  0.00  0.00    +0.002 A 
ATOM     36  C   UNL     1       5.696   0.048   7.706  0.00  0.00    +0.000 A 
ATOM     37  C   UNL     1       4.540   0.372   8.392  0.00  0.00    +0.000 A 
ATOM     38  C   UNL     1       3.962  -0.548   9.246  0.00  0.00    +0.000 A 
ATOM     39  C   UNL     1       4.537  -1.795   9.411  0.00  0.00    +0.002 A 
ENDBRANCH  33  34
ENDBRANCH  24  33
ENDBRANCH  23  24
ENDBRANCH   2  23
TORSDOF 9
