REMARK  Name = ZINC10768079
REMARK  4 active torsions:
REMARK  status: ('A' for Active; 'I' for Inactive)
REMARK    1  A    between atoms: C_13  and  N_17
REMARK    2  A    between atoms: C_18  and  C_20
REMARK    3  A    between atoms: N_25  and  S_27
REMARK    4  A    between atoms: S_27  and  C_30
REMARK                            x       y       z     vdW  Elec       q    Type
REMARK                         _______ _______ _______ _____ _____    ______ ____
ROOT
ATOM      1  N   UNL     1       8.232   0.561   4.307  0.00  0.00    -0.285 N 
ATOM      2  C   UNL     1       7.057   0.356   3.680  0.00  0.00    +0.222 C 
ATOM      3  O   UNL     1       6.494  -0.714   3.781  0.00  0.00    -0.275 OA
ATOM      4  H   UNL     1       8.722   1.386   4.163  0.00  0.00    +0.155 HD
ENDROOT
BRANCH   1  17
ATOM      5  C   UNL     1      15.221   0.233   5.505  0.00  0.00    +0.001 A 
ATOM      6  C   UNL     1      14.723   1.203   4.654  0.00  0.00    +0.001 A 
ATOM      7  C   UNL     1      13.365   1.286   4.404  0.00  0.00    +0.012 A 
ATOM      8  C   UNL     1      12.491   0.390   5.013  0.00  0.00    +0.033 A 
ATOM      9  C   UNL     1      12.997  -0.596   5.879  0.00  0.00    +0.033 A 
ATOM     10  C   UNL     1      14.367  -0.666   6.119  0.00  0.00    +0.012 A 
ATOM     11  C   UNL     1      12.077  -1.551   6.530  0.00  0.00    +0.195 C 
ATOM     12  O   UNL     1      12.513  -2.404   7.278  0.00  0.00    -0.287 OA
ATOM     13  C   UNL     1      10.625  -1.468   6.269  0.00  0.00    +0.035 A 
ATOM     14  C   UNL     1       9.751  -2.363   6.878  0.00  0.00    +0.012 A 
ATOM     15  C   UNL     1       8.389  -2.281   6.632  0.00  0.00    +0.003 A 
ATOM     16  C   UNL     1       7.886  -1.313   5.787  0.00  0.00    +0.024 A 
ATOM     17  C   UNL     1       8.743  -0.410   5.162  0.00  0.00    +0.045 A 
ATOM     18  C   UNL     1      10.120  -0.481   5.402  0.00  0.00    +0.054 A 
ATOM     19  C   UNL     1      11.039   0.471   4.752  0.00  0.00    +0.196 C 
ATOM     20  O   UNL     1      10.601   1.323   4.003  0.00  0.00    -0.287 OA
ENDBRANCH   1  17
BRANCH   2  21
ATOM     21  C   UNL     1       6.441   1.456   2.854  0.00  0.00    +0.091 C 
ATOM     22  C   UNL     1       6.176   2.674   3.742  0.00  0.00    +0.015 C 
ATOM     23  C   UNL     1       5.581   3.803   2.897  0.00  0.00    +0.018 C 
ATOM     24  C   UNL     1       4.254   3.342   2.297  0.00  0.00    +0.109 C 
ATOM     25  N   UNL     1       4.470   2.088   1.563  0.00  0.00    -0.175 NA
ATOM     26  C   UNL     1       5.119   0.967   2.256  0.00  0.00    +0.122 C 
BRANCH  25  27
ATOM     27  S   UNL     1       3.998   1.944  -0.018  0.00  0.00    +0.067 S 
ATOM     28  O   UNL     1       4.804   0.924  -0.591  0.00  0.00    -0.152 OA
ATOM     29  O   UNL     1       3.946   3.262  -0.548  0.00  0.00    -0.152 OA
BRANCH  27  30
ATOM     30  C   UNL     1       2.344   1.337  -0.014  0.00  0.00    +0.144 A 
ATOM     31  C   UNL     1       1.180   2.032   0.006  0.00  0.00    +0.038 A 
ATOM     32  C   UNL     1      -0.015   1.337   0.005  0.00  0.00    +0.030 A 
ATOM     33  C   UNL     1       0.012  -0.019  -0.016  0.00  0.00    +0.080 A 
ATOM     34  S   UNL     1       1.766  -0.352  -0.035  0.00  0.00    -0.057 S 
ATOM     35 CL   UNL     1      -1.313  -1.140  -0.021  0.00  0.00    -0.076 Cl
ENDBRANCH  27  30
ENDBRANCH  25  27
ENDBRANCH   2  21
TORSDOF 4
