REMARK  Name = ZINC22220122
REMARK  10 active torsions:
REMARK  status: ('A' for Active; 'I' for Inactive)
REMARK    1  A    between atoms: C_1  and  C_2
REMARK    2  A    between atoms: C_7  and  C_9
REMARK    3  A    between atoms: C_7  and  C_10
REMARK    4  A    between atoms: N_13  and  C_17
REMARK    5  A    between atoms: C_17  and  C_18
REMARK    6  A    between atoms: C_18  and  O_20
REMARK    7  A    between atoms: O_20  and  C_21
REMARK    8  A    between atoms: C_21  and  C_23
REMARK    9  A    between atoms: C_21  and  C_24
REMARK   10  A    between atoms: N_26  and  C_27
REMARK                            x       y       z     vdW  Elec       q    Type
REMARK                         _______ _______ _______ _____ _____    ______ ____
ROOT
ATOM      1  C   UNL     1      -4.227  -4.389  -2.369  0.00  0.00    +0.238 C 
ENDROOT
BRANCH   1  13
ATOM      2  C   UNL     1      -0.713   1.506  -0.596  0.00  0.00    +0.007 C 
ATOM      3  C   UNL     1      -0.593  -0.018  -0.528  0.00  0.00    -0.011 C 
ATOM      4  C   UNL     1      -1.983  -0.645  -0.659  0.00  0.00    +0.038 C 
ATOM      5  C   UNL     1      -1.867  -2.163  -0.571  0.00  0.00    +0.113 C 
ATOM      6  C   UNL     1      -1.234  -2.580   0.752  0.00  0.00    +0.041 C 
ATOM      7  C   UNL     1       0.154  -1.945   0.877  0.00  0.00    -0.032 C 
ATOM      8  C   UNL     1       0.024  -0.422   0.812  0.00  0.00    +0.009 C 
ATOM      9  C   UNL     1       0.780  -2.347   2.214  0.00  0.00    +0.011 C 
ATOM     10  C   UNL     1       1.042  -2.432  -0.269  0.00  0.00    +0.011 C 
ATOM     11  C   UNL     1      -3.225  -2.807  -0.731  0.00  0.00    +0.247 C 
ATOM     12  O   UNL     1      -4.195  -2.662  -0.018  0.00  0.00    -0.273 OA
ATOM     13  N   UNL     1      -3.131  -3.575  -1.836  0.00  0.00    -0.213 N 
ATOM     14  C   UNL     1      -1.912  -3.503  -2.384  0.00  0.00    +0.310 C 
ATOM     15  O   UNL     1      -1.585  -4.107  -3.387  0.00  0.00    -0.252 OA
ATOM     16  N   UNL     1      -1.089  -2.686  -1.701  0.00  0.00    -0.285 N 
ATOM     17  H   UNL     1      -0.164  -2.482  -1.913  0.00  0.00    +0.151 HD
ENDBRANCH   1  13
BRANCH   1  18
ATOM     18  C   UNL     1      -5.027  -3.573  -3.350  0.00  0.00    +0.326 C 
ATOM     19  O   UNL     1      -4.715  -2.429  -3.581  0.00  0.00    -0.249 OA
BRANCH  18  20
ATOM     20  O   UNL     1      -6.088  -4.116  -3.968  0.00  0.00    -0.451 OA
BRANCH  20  21
ATOM     21  C   UNL     1      -6.801  -3.285  -4.886  0.00  0.00    +0.259 C 
ATOM     22  C   UNL     1      -6.200  -3.438  -6.285  0.00  0.00    +0.062 C 
BRANCH  21  23
ATOM     23  C   UNL     1      -8.251  -3.695  -4.914  0.00  0.00    +0.258 C 
ATOM     24  O   UNL     1      -8.635  -4.610  -4.216  0.00  0.00    -0.271 OA
ATOM     25  N   UNL     1      -9.119  -3.046  -5.714  0.00  0.00    -0.282 N 
ATOM     26  H   UNL     1      -8.799  -2.366  -6.327  0.00  0.00    +0.155 HD
BRANCH  25  27
ATOM     27  C   UNL     1     -10.484  -3.354  -5.660  0.00  0.00    +0.034 A 
ATOM     28  C   UNL     1     -11.253  -3.306  -6.816  0.00  0.00    +0.024 A 
ATOM     29  C   UNL     1     -12.599  -3.610  -6.760  0.00  0.00    +0.017 A 
ATOM     30  C   UNL     1     -13.181  -3.962  -5.555  0.00  0.00    +0.018 A 
ATOM     31  C   UNL     1     -12.417  -4.011  -4.403  0.00  0.00    +0.017 A 
ATOM     32  C   UNL     1     -11.069  -3.712  -4.454  0.00  0.00    +0.024 A 
ATOM     33 BR   UNL     1     -15.024  -4.378  -5.483  0.00  0.00    -0.050 Br
ENDBRANCH  25  27
ENDBRANCH  21  23
ENDBRANCH  20  21
ENDBRANCH  18  20
ENDBRANCH   1  18
TORSDOF 6
