REMARK  Name = ZINC08812742
REMARK  10 active torsions:
REMARK  status: ('A' for Active; 'I' for Inactive)
REMARK    1  A    between atoms: C_1  and  C_2
REMARK    2  A    between atoms: C_5  and  C_37
REMARK    3  A    between atoms: N_8  and  C_10
REMARK    4  A    between atoms: C_10  and  C_11
REMARK    5  A    between atoms: C_11  and  C_12
REMARK    6  A    between atoms: C_12  and  N_13
REMARK    7  A    between atoms: C_14  and  C_16
REMARK    8  A    between atoms: C_16  and  N_17
REMARK    9  A    between atoms: C_20  and  S_28
REMARK   10  A    between atoms: S_28  and  N_31
REMARK                            x       y       z     vdW  Elec       q    Type
REMARK                         _______ _______ _______ _____ _____    ______ ____
ROOT
ATOM      1  N   UNL     1       8.311  -2.500   5.238  0.00  0.00    -0.261 N 
ATOM      2  C   UNL     1       8.389  -1.655   6.342  0.00  0.00    +0.052 A 
ATOM      3  C   UNL     1       7.425  -0.668   6.517  0.00  0.00    +0.053 A 
ATOM      4  C   UNL     1       7.489   0.182   7.603  0.00  0.00    +0.107 A 
ATOM      5  C   UNL     1       8.511   0.062   8.528  0.00  0.00    +0.030 A 
ATOM      6  C   UNL     1       9.475  -0.916   8.368  0.00  0.00    +0.018 A 
ATOM      7  C   UNL     1       9.414  -1.773   7.281  0.00  0.00    +0.030 A 
ATOM      8  S   UNL     1      10.631  -3.033   7.071  0.00  0.00    -0.114 S 
ATOM      9  C   UNL     1       9.705  -4.336   6.205  0.00  0.00    +0.170 C 
ATOM     10  C   UNL     1       8.867  -3.704   5.127  0.00  0.00    +0.230 C 
ATOM     11  O   UNL     1       8.692  -4.323   4.099  0.00  0.00    -0.274 OA
ENDROOT
BRANCH   4  12
ATOM     12  S   UNL     1       6.262   1.429   7.813  0.00  0.00    +0.061 S 
ATOM     13  O   UNL     1       6.849   2.447   8.612  0.00  0.00    -0.153 OA
ATOM     14  O   UNL     1       5.723   1.688   6.524  0.00  0.00    -0.153 OA
BRANCH  12  15
ATOM     15  N   UNL     1       5.040   0.766   8.713  0.00  0.00    -0.177 NA
ATOM     16  C   UNL     1       3.918   0.077   8.060  0.00  0.00    +0.109 C 
ATOM     17  C   UNL     1       3.780  -1.323   8.666  0.00  0.00    +0.017 C 
ATOM     18  C   UNL     1       3.646  -1.205  10.186  0.00  0.00    +0.003 C 
ATOM     19  C   UNL     1       4.904  -0.551  10.762  0.00  0.00    +0.017 C 
ATOM     20  C   UNL     1       5.059   0.852  10.179  0.00  0.00    +0.109 C 
ENDBRANCH  12  15
ENDBRANCH   4  12
BRANCH   1  21
ATOM     21  C   UNL     1       7.538  -2.020   4.090  0.00  0.00    +0.209 C 
BRANCH  21  23
ATOM     22  N   UNL     1       5.198  -2.115   3.294  0.00  0.00    -0.314 N 
ATOM     23  C   UNL     1       6.100  -2.446   4.238  0.00  0.00    +0.231 C 
ATOM     24  O   UNL     1       5.755  -3.088   5.208  0.00  0.00    -0.274 OA
ATOM     25  H   UNL     1       5.474  -1.601   2.519  0.00  0.00    +0.149 HD
BRANCH  22  26
ATOM     26  C   UNL     1       3.800  -2.529   3.438  0.00  0.00    +0.102 C 
BRANCH  26  27
ATOM     27  C   UNL     1       2.993  -2.028   2.239  0.00  0.00    +0.000 C 
BRANCH  27  28
ATOM     28  C   UNL     1       1.534  -2.461   2.390  0.00  0.00    -0.077 C 
BRANCH  28  34
ATOM     29  C   UNL     1      -0.019   1.526   0.010  0.00  0.00    +0.005 C 
ATOM     30  C   UNL     1       0.002  -0.004   0.002  0.00  0.00    -0.031 C 
ATOM     31  C   UNL     1      -1.434  -0.535   0.015  0.00  0.00    +0.003 C 
ATOM     32  C   UNL     1      -1.402  -2.064   0.086  0.00  0.00    -0.031 C 
ATOM     33  C   UNL     1      -0.613  -2.496   1.324  0.00  0.00    -0.076 C 
ATOM     34  N   UNL     1       0.758  -1.980   1.239  0.00  0.00    +0.380 N 
ATOM     35  C   UNL     1       0.740  -0.512   1.242  0.00  0.00    -0.076 C 
ATOM     36  C   UNL     1      -2.832  -2.602   0.177  0.00  0.00    +0.005 C 
ATOM     37  H   UNL     1       1.188  -2.307   0.386  0.00  0.00    -0.082 HD
ENDBRANCH  28  34
ENDBRANCH  27  28
ENDBRANCH  26  27
ENDBRANCH  22  26
ENDBRANCH  21  23
ENDBRANCH   1  21
TORSDOF 8
