REMARK  Name = ZINC40733897
REMARK  11 active torsions:
REMARK  status: ('A' for Active; 'I' for Inactive)
REMARK    1  A    between atoms: C_1  and  O_2
REMARK    2  A    between atoms: O_2  and  C_3
REMARK    3  A    between atoms: C_6  and  C_9
REMARK    4  A    between atoms: C_9  and  N_10
REMARK    5  A    between atoms: N_10  and  C_11
REMARK    6  A    between atoms: C_11  and  C_12
REMARK    7  A    between atoms: C_14  and  O_29
REMARK    8  A    between atoms: C_15  and  O_19
REMARK    9  A    between atoms: O_19  and  C_20
REMARK   10  A    between atoms: C_20  and  C_21
REMARK   11  A    between atoms: O_29  and  C_30
REMARK                            x       y       z     vdW  Elec       q    Type
REMARK                         _______ _______ _______ _____ _____    ______ ____
ROOT
ATOM      1  C   UNL     1       6.038  -3.582  -4.912  0.00  0.00    -0.060 A 
ATOM      2  C   UNL     1       6.963  -2.604  -5.229  0.00  0.00    +0.051 A 
ATOM      3  C   UNL     1       8.305  -2.801  -4.945  0.00  0.00    +0.163 A 
ATOM      4  C   UNL     1       8.718  -3.983  -4.339  0.00  0.00    +0.176 A 
ATOM      5  C   UNL     1       7.786  -4.959  -4.022  0.00  0.00    +0.063 A 
ATOM      6  C   UNL     1       6.447  -4.754  -4.305  0.00  0.00    +0.021 A 
ATOM      7 BR   UNL     1       8.343  -6.568  -3.199  0.00  0.00    -0.046 Br
ENDROOT
BRANCH   3   8
ATOM      8  O   UNL     1       9.215  -1.841  -5.258  0.00  0.00    -0.491 OA
ATOM      9  C   UNL     1       8.719  -0.653  -5.879  0.00  0.00    +0.277 C 
ENDBRANCH   3   8
BRANCH   1  10
ATOM     10  C   UNL     1       4.579  -3.366  -5.222  0.00  0.00    -0.046 C 
BRANCH  10  11
ATOM     11  N   UNL     1       3.927  -2.714  -4.079  0.00  0.00    +0.384 N 
ATOM     12  H   UNL     1       4.368  -1.824  -3.902  0.00  0.00    -0.085 HD
ATOM     13  H   UNL     1       4.013  -3.301  -3.263  0.00  0.00    -0.085 HD
BRANCH  11  14
ATOM     14  C   UNL     1       2.505  -2.503  -4.381  0.00  0.00    -0.046 C 
BRANCH  14  18
ATOM     15  C   UNL     1       0.606  -0.607  -1.056  0.00  0.00    +0.120 A 
ATOM     16  C   UNL     1       1.173   0.161  -2.062  0.00  0.00    +0.046 A 
ATOM     17  C   UNL     1       1.786  -0.455  -3.136  0.00  0.00    +0.005 A 
ATOM     18  C   UNL     1       1.835  -1.835  -3.209  0.00  0.00    -0.064 A 
ATOM     19  C   UNL     1       1.270  -2.602  -2.207  0.00  0.00    +0.005 A 
ATOM     20  C   UNL     1       0.661  -1.992  -1.128  0.00  0.00    +0.046 A 
BRANCH  15  22
ATOM     21  C   UNL     1      -0.017   1.425   0.010  0.00  0.00    +0.277 C 
ATOM     22  O   UNL     1       0.002  -0.004   0.002  0.00  0.00    -0.495 OA
ENDBRANCH  15  22
ENDBRANCH  14  18
ENDBRANCH  11  14
ENDBRANCH  10  11
ENDBRANCH   1  10
BRANCH   4  23
ATOM     23  O   UNL     1      10.034  -4.181  -4.058  0.00  0.00    -0.483 OA
BRANCH  23  24
ATOM     24  C   UNL     1      10.497  -3.746  -2.778  0.00  0.00    +0.266 C 
BRANCH  24  25
ATOM     25  C   UNL     1      11.968  -4.045  -2.647  0.00  0.00    +0.008 A 
ATOM     26  C   UNL     1      12.646  -4.648  -3.690  0.00  0.00    +0.011 A 
ATOM     27  C   UNL     1      13.995  -4.923  -3.572  0.00  0.00    +0.039 A 
ATOM     28  C   UNL     1      14.669  -4.595  -2.407  0.00  0.00    +0.125 A 
ATOM     29  C   UNL     1      13.990  -3.990  -1.363  0.00  0.00    +0.058 A 
ATOM     30  C   UNL     1      12.641  -3.711  -1.486  0.00  0.00    +0.050 A 
ATOM     31 CL   UNL     1      11.791  -2.948  -0.179  0.00  0.00    -0.083 Cl
ATOM     32  F   UNL     1      15.988  -4.864  -2.291  0.00  0.00    -0.205 F 
ENDBRANCH  24  25
ENDBRANCH  23  24
ENDBRANCH   4  23
TORSDOF 9
