REMARK  Name = ZINC12883767
REMARK  8 active torsions:
REMARK  status: ('A' for Active; 'I' for Inactive)
REMARK    1  A    between atoms: C_1  and  C_2
REMARK    2  A    between atoms: C_2  and  C_3
REMARK    3  A    between atoms: C_3  and  C_5
REMARK    4  A    between atoms: C_3  and  C_6
REMARK    5  A    between atoms: C_6  and  C_8
REMARK    6  A    between atoms: C_6  and  N_17
REMARK    7  A    between atoms: N_10  and  C_11
REMARK    8  A    between atoms: C_18  and  C_20
REMARK                            x       y       z     vdW  Elec       q    Type
REMARK                         _______ _______ _______ _____ _____    ______ ____
ROOT
ATOM      1  C   UNL     1      -1.421  -0.222   5.612  0.00  0.00    +0.167 C 
ATOM      2  C   UNL     1      -2.192   1.018   6.088  0.00  0.00    +0.069 C 
ATOM      3  C   UNL     1      -2.126   1.126   7.590  0.00  0.00    -0.015 A 
ATOM      4  C   UNL     1      -2.950   1.959   8.448  0.00  0.00    +0.003 A 
ATOM      5  C   UNL     1      -4.001   2.841   8.178  0.00  0.00    +0.010 A 
ATOM      6  C   UNL     1      -4.566   3.479   9.255  0.00  0.00    +0.001 A 
ATOM      7  C   UNL     1      -4.124   3.267  10.550  0.00  0.00    +0.002 A 
ATOM      8  C   UNL     1      -3.087   2.400  10.845  0.00  0.00    +0.026 A 
ATOM      9  C   UNL     1      -2.494   1.738   9.772  0.00  0.00    +0.047 A 
ATOM     10  N   UNL     1      -1.474   0.835   9.704  0.00  0.00    -0.356 N 
ATOM     11  H   UNL     1      -0.971   0.502  10.464  0.00  0.00    +0.166 HD
ATOM     12  C   UNL     1      -1.266   0.470   8.402  0.00  0.00    +0.046 A 
ATOM     13  C   UNL     1      -0.243  -0.516   7.890  0.00  0.00    +0.155 C 
ATOM     14  N   UNL     1      -0.203  -0.333   6.420  0.00  0.00    -0.273 N 
ATOM     15  C   UNL     1       1.078  -0.260   6.036  0.00  0.00    +0.248 C 
ATOM     16  O   UNL     1       1.471  -0.330   4.888  0.00  0.00    -0.270 OA
ATOM     17  C   UNL     1       1.935  -0.083   7.213  0.00  0.00    +0.042 A 
ATOM     18  C   UNL     1       1.136  -0.211   8.368  0.00  0.00    -0.009 A 
ATOM     19  C   UNL     1       1.667  -0.075   9.631  0.00  0.00    +0.006 A 
ATOM     20  C   UNL     1       3.033   0.180   9.719  0.00  0.00    +0.000 A 
ATOM     21  C   UNL     1       3.826   0.291   8.595  0.00  0.00    +0.001 A 
ATOM     22  C   UNL     1       3.306   0.161   7.316  0.00  0.00    +0.013 A 
ENDROOT
BRANCH   1  24
ATOM     23  N   UNL     1      -0.177   0.882   3.781  0.00  0.00    -0.302 N 
ATOM     24  C   UNL     1      -1.056  -0.067   4.158  0.00  0.00    +0.235 C 
ATOM     25  O   UNL     1      -1.553  -0.797   3.326  0.00  0.00    -0.274 OA
ATOM     26  H   UNL     1       0.221   1.466   4.446  0.00  0.00    +0.150 HD
BRANCH  23  27
ATOM     27  C   UNL     1       0.179   1.033   2.368  0.00  0.00    +0.162 C 
BRANCH  27  28
ATOM     28  C   UNL     1       1.542   1.666   2.257  0.00  0.00    +0.234 C 
ATOM     29  O   UNL     1       2.016   2.253   3.206  0.00  0.00    -0.274 OA
ATOM     30  N   UNL     1       2.233   1.580   1.103  0.00  0.00    -0.311 N 
ATOM     31  H   UNL     1       1.887   1.049   0.369  0.00  0.00    +0.149 HD
BRANCH  30  32
ATOM     32  C   UNL     1       3.506   2.290   0.958  0.00  0.00    +0.073 C 
ATOM     33  C   UNL     1       3.240   3.731   0.520  0.00  0.00    +0.022 C 
ATOM     34  C   UNL     1       4.570   4.472   0.368  0.00  0.00    +0.002 C 
ATOM     35  C   UNL     1       5.428   3.770  -0.686  0.00  0.00    +0.000 C 
ATOM     36  C   UNL     1       5.694   2.328  -0.249  0.00  0.00    +0.002 C 
ATOM     37  C   UNL     1       4.364   1.587  -0.097  0.00  0.00    +0.022 C 
ENDBRANCH  30  32
ENDBRANCH  27  28
BRANCH  27  38
ATOM     38  C   UNL     1      -0.855   1.922   1.674  0.00  0.00    +0.015 C 
ATOM     39  C   UNL     1      -0.940   3.267   2.399  0.00  0.00    +0.010 C 
BRANCH  38  41
ATOM     40  C   UNL     1      -3.229   2.066   0.907  0.00  0.00    +0.004 C 
ATOM     41  C   UNL     1      -2.223   1.237   1.708  0.00  0.00    +0.002 C 
ENDBRANCH  38  41
ENDBRANCH  27  38
ENDBRANCH  23  27
ENDBRANCH   1  24
TORSDOF 6
