REMARK  Name = ZINC04236250
REMARK  1 active torsions:
REMARK  status: ('A' for Active; 'I' for Inactive)
REMARK    1  A    between atoms: C_18  and  N_23
REMARK                            x       y       z     vdW  Elec       q    Type
REMARK                         _______ _______ _______ _____ _____    ______ ____
ROOT
ATOM      1  C   UNL     1       1.384   0.696   4.573  0.00  0.00    +0.039 A 
ATOM      2  C   UNL     1       1.963   1.425   3.546  0.00  0.00    +0.116 A 
ATOM      3  N   UNL     1       1.252   1.692   2.463  0.00  0.00    -0.223 NA
ATOM      4  C   UNL     1       0.000   1.270   2.354  0.00  0.00    +0.218 A 
ATOM      5  N   UNL     1      -0.584   0.576   3.320  0.00  0.00    -0.223 NA
ATOM      6  C   UNL     1       0.073   0.271   4.426  0.00  0.00    +0.116 A 
ATOM      7  N   UNL     1      -0.716   1.567   1.207  0.00  0.00    -0.299 N 
ATOM      8  C   UNL     1      -2.069   1.033   1.277  0.00  0.00    +0.113 C 
ATOM      9  C   UNL     1      -2.882   1.393   0.043  0.00  0.00    +0.027 C 
ATOM     10  C   UNL     1      -2.160   0.954  -1.234  0.00  0.00    +0.018 C 
ATOM     11  C   UNL     1      -0.771   1.603  -1.226  0.00  0.00    +0.054 C 
ATOM     12  C   UNL     1      -0.013   1.086   0.008  0.00  0.00    +0.117 C 
ATOM     13  C   UNL     1      -0.922   3.100  -1.071  0.00  0.00    +0.027 A 
ATOM     14  C   UNL     1       0.067   3.881  -1.577  0.00  0.00    +0.024 A 
ATOM     15  C   UNL     1       0.031   5.271  -1.418  0.00  0.00    +0.030 A 
ATOM     16  C   UNL     1      -1.009   5.829  -0.725  0.00  0.00    +0.090 A 
ATOM     17  C   UNL     1      -2.019   4.990  -0.216  0.00  0.00    +0.272 A 
ATOM     18  O   UNL     1      -2.927   5.469   0.444  0.00  0.00    -0.266 OA
ATOM     19  N   UNL     1      -1.993   3.654  -0.452  0.00  0.00    -0.310 N 
ATOM     20  C   UNL     1      -3.162   2.885  -0.024  0.00  0.00    +0.130 C 
ENDROOT
BRANCH  16  21
ATOM     21  N   UNL     1      -1.068   7.214  -0.525  0.00  0.00    -0.354 N 
ATOM     22  H   UNL     1      -1.808   7.601  -0.033  0.00  0.00    +0.142 HD
ATOM     23  H   UNL     1      -0.368   7.785  -0.879  0.00  0.00    +0.142 HD
ENDBRANCH  16  21
TORSDOF 1
