REMARK  Name = ZINC65358663
REMARK  7 active torsions:
REMARK  status: ('A' for Active; 'I' for Inactive)
REMARK    1  A    between atoms: C_1  and  C_2
REMARK    2  A    between atoms: C_3  and  C_9
REMARK    3  A    between atoms: C_4  and  C_8
REMARK    4  A    between atoms: N_5  and  C_7
REMARK    5  A    between atoms: C_9  and  C_10
REMARK    6  A    between atoms: C_9  and  N_11
REMARK    7  A    between atoms: N_14  and  C_15
REMARK                            x       y       z     vdW  Elec       q    Type
REMARK                         _______ _______ _______ _____ _____    ______ ____
ROOT
ATOM      1  N   UNL     1       0.832   0.848  -2.775  0.00  0.00    -0.292 N 
ATOM      2  C   UNL     1       1.375   1.115  -3.979  0.00  0.00    +0.304 C 
ATOM      3  O   UNL     1       0.961   0.548  -4.972  0.00  0.00    -0.252 OA
ATOM      4  N   UNL     1       2.377   2.010  -4.083  0.00  0.00    -0.269 N 
ATOM      5  H   UNL     1       1.163   1.300  -1.983  0.00  0.00    +0.151 HD
ATOM      6  H   UNL     1       2.656   2.518  -3.306  0.00  0.00    +0.156 HD
ENDROOT
BRANCH   4   7
ATOM      7  C   UNL     1       3.017   2.206  -5.315  0.00  0.00    +0.038 A 
ATOM      8  C   UNL     1       3.500   3.462  -5.654  0.00  0.00    +0.027 A 
ATOM      9  C   UNL     1       4.130   3.659  -6.868  0.00  0.00    +0.051 A 
ATOM     10  C   UNL     1       4.282   2.602  -7.749  0.00  0.00    +0.167 A 
ATOM     11  C   UNL     1       3.798   1.338  -7.411  0.00  0.00    +0.169 A 
ATOM     12  C   UNL     1       3.171   1.142  -6.194  0.00  0.00    +0.073 A 
ATOM     13  O   UNL     1       4.076   0.481  -8.444  0.00  0.00    -0.447 OA
ATOM     14  C   UNL     1       4.268   1.350  -9.569  0.00  0.00    +0.254 C 
ATOM     15  O   UNL     1       4.856   2.525  -8.992  0.00  0.00    -0.448 OA
ATOM     16  C   UNL     1       2.937   1.672 -10.256  0.00  0.00    +0.093 C 
ATOM     17  C   UNL     1       3.306   1.772 -11.759  0.00  0.00    +0.008 C 
ATOM     18  C   UNL     1       4.376   0.663 -11.927  0.00  0.00    +0.008 C 
ATOM     19  C   UNL     1       5.188   0.718 -10.613  0.00  0.00    +0.093 C 
ENDBRANCH   4   7
BRANCH   1  20
ATOM     20  C   UNL     1      -0.258  -0.125  -2.662  0.00  0.00    +0.105 C 
ATOM     21  C   UNL     1      -1.592   0.568  -2.946  0.00  0.00    +0.033 C 
BRANCH  20  24
ATOM     22  C   UNL     1       0.017   1.520   0.033  0.00  0.00    +0.068 C 
ATOM     23  C   UNL     1      -0.156   0.027  -0.079  0.00  0.00    +0.065 A 
ATOM     24  C   UNL     1      -0.276  -0.699  -1.268  0.00  0.00    +0.016 A 
ATOM     25  C   UNL     1      -0.413  -2.006  -0.947  0.00  0.00    +0.041 A 
ATOM     26  N   UNL     1      -0.381  -2.104   0.398  0.00  0.00    -0.271 N 
ATOM     27  N   UNL     1      -0.213  -0.816   0.921  0.00  0.00    -0.176 NA
ATOM     28  C   UNL     1      -0.496  -3.341   1.175  0.00  0.00    +0.172 C 
ATOM     29  C   UNL     1      -0.575  -3.147  -1.918  0.00  0.00    +0.065 C 
ENDBRANCH  20  24
ENDBRANCH   1  20
TORSDOF 3
