REMARK  Name = ZINC02066359
REMARK  12 active torsions:
REMARK  status: ('A' for Active; 'I' for Inactive)
REMARK    1  A    between atoms: C_1  and  C_2
REMARK    2  A    between atoms: C_2  and  C_3
REMARK    3  A    between atoms: C_3  and  C_4
REMARK    4  A    between atoms: C_4  and  O_5
REMARK    5  A    between atoms: O_5  and  C_6
REMARK    6  A    between atoms: C_6  and  C_8
REMARK    7  A    between atoms: C_9  and  C_31
REMARK    8  A    between atoms: C_13  and  C_15
REMARK    9  A    between atoms: C_18  and  O_22
REMARK   10  A    between atoms: O_22  and  C_23
REMARK   11  A    between atoms: C_27  and  C_29
REMARK   12  A    between atoms: C_27  and  C_30
REMARK                            x       y       z     vdW  Elec       q    Type
REMARK                         _______ _______ _______ _____ _____    ______ ____
ROOT
ATOM      1  C   UNL     1      -1.571   3.866   2.418  0.00  0.00    +0.065 C 
ATOM      2  C   UNL     1      -1.447   5.177   2.691  0.00  0.00    +0.016 C 
ATOM      3  N   UNL     1      -1.937   5.690   3.859  0.00  0.00    -0.321 N 
ATOM      4  C   UNL     1      -2.185   4.873   4.929  0.00  0.00    +0.016 C 
ATOM      5  C   UNL     1      -2.332   3.542   4.755  0.00  0.00    +0.024 C 
ATOM      6  C   UNL     1      -2.241   2.930   3.380  0.00  0.00    +0.092 C 
ATOM      7  C   UNL     1      -2.572   2.690   5.847  0.00  0.00    +0.162 C 
ATOM      8  O   UNL     1      -2.706   1.498   5.655  0.00  0.00    -0.292 OA
ATOM      9  C   UNL     1      -2.665   3.227   7.250  0.00  0.00    +0.086 C 
ATOM     10  C   UNL     1      -1.813   4.495   7.356  0.00  0.00    -0.023 C 
ATOM     11  C   UNL     1      -2.293   5.494   6.300  0.00  0.00    +0.058 C 
ATOM     12  C   UNL     1      -0.344   4.150   7.105  0.00  0.00    +0.011 C 
ATOM     13  C   UNL     1      -1.966   5.108   8.749  0.00  0.00    +0.011 C 
ATOM     14  C   UNL     1      -0.769   6.087   1.700  0.00  0.00    +0.061 C 
ATOM     15  H   UNL     1      -2.136   6.768   3.946  0.00  0.00    +0.152 HD
ENDROOT
BRANCH   6  16
ATOM     16  C   UNL     1      -3.630   2.622   2.884  0.00  0.00    -0.034 A 
ATOM     17  C   UNL     1      -3.988   1.317   2.601  0.00  0.00    +0.008 A 
ATOM     18  C   UNL     1      -5.261   1.031   2.147  0.00  0.00    +0.047 A 
ATOM     19  C   UNL     1      -6.181   2.055   1.974  0.00  0.00    +0.134 A 
ATOM     20  C   UNL     1      -5.820   3.364   2.259  0.00  0.00    +0.060 A 
ATOM     21  C   UNL     1      -4.547   3.644   2.719  0.00  0.00    +0.023 A 
ATOM     22 BR   UNL     1      -7.071   4.763   2.026  0.00  0.00    -0.047 Br
BRANCH  19  23
ATOM     23  O   UNL     1      -7.434   1.776   1.528  0.00  0.00    -0.494 OA
ATOM     24  C   UNL     1      -7.736   0.406   1.255  0.00  0.00    +0.277 C 
ENDBRANCH  19  23
ENDBRANCH   6  16
BRANCH   1  25
ATOM     25  C   UNL     1      -1.054   3.359   1.202  0.00  0.00    +0.338 C 
ATOM     26  O   UNL     1      -0.031   2.701   1.204  0.00  0.00    -0.245 OA
BRANCH  25  27
ATOM     27  O   UNL     1      -1.697   3.606   0.041  0.00  0.00    -0.461 OA
BRANCH  27  28
ATOM     28  C   UNL     1      -1.119   3.063  -1.147  0.00  0.00    +0.232 C 
BRANCH  28  29
ATOM     29  C   UNL     1      -1.980   3.443  -2.353  0.00  0.00    +0.041 C 
BRANCH  29  31
ATOM     30  C   UNL     1      -2.223   3.243  -4.832  0.00  0.00    +0.004 C 
ATOM     31  C   UNL     1      -1.362   2.862  -3.626  0.00  0.00    -0.000 C 
ENDBRANCH  29  31
ENDBRANCH  28  29
ENDBRANCH  27  28
ENDBRANCH  25  27
ENDBRANCH   1  25
TORSDOF 7
