REMARK  Name = ZINC07750539
REMARK  6 active torsions:
REMARK  status: ('A' for Active; 'I' for Inactive)
REMARK    1  A    between atoms: C_1  and  C_2
REMARK    2  A    between atoms: C_2  and  C_4
REMARK    3  A    between atoms: C_2  and  N_48
REMARK    4  A    between atoms: C_17  and  C_19
REMARK    5  A    between atoms: C_17  and  C_25
REMARK    6  A    between atoms: C_17  and  N_48
REMARK                            x       y       z     vdW  Elec       q    Type
REMARK                         _______ _______ _______ _____ _____    ______ ____
ROOT
ATOM      1  C   UNL     1      -3.137  -3.296   0.382  0.00  0.00    -0.004 C 
ATOM      2  C   UNL     1      -2.473  -2.368   1.401  0.00  0.00    +0.015 C 
ENDROOT
BRANCH   2   3
ATOM      3  C   UNL     1      -2.292  -3.101   2.705  0.00  0.00    +0.206 C 
ATOM      4  O   UNL     1      -1.181  -3.254   3.167  0.00  0.00    -0.277 OA
ATOM      5  N   UNL     1      -3.366  -3.587   3.359  0.00  0.00    -0.262 N 
ATOM      6  C   UNL     1      -4.724  -3.411   2.824  0.00  0.00    +0.209 C 
ATOM      7  C   UNL     1      -5.658  -3.057   3.949  0.00  0.00    +0.235 C 
ATOM      8  O   UNL     1      -6.638  -2.381   3.722  0.00  0.00    -0.274 OA
ATOM      9  N   UNL     1      -5.416  -3.478   5.205  0.00  0.00    -0.283 N 
ATOM     10  C   UNL     1      -4.266  -4.218   5.502  0.00  0.00    +0.055 A 
ATOM     11  C   UNL     1      -3.224  -4.274   4.575  0.00  0.00    +0.058 A 
ATOM     12  C   UNL     1      -2.079  -4.995   4.859  0.00  0.00    +0.025 A 
ATOM     13  C   UNL     1      -1.970  -5.665   6.065  0.00  0.00    +0.002 A 
ATOM     14  C   UNL     1      -3.002  -5.614   6.984  0.00  0.00    +0.002 A 
ATOM     15  C   UNL     1      -4.150  -4.893   6.707  0.00  0.00    +0.025 A 
ATOM     16  H   UNL     1      -6.046  -3.267   5.911  0.00  0.00    +0.155 HD
ENDBRANCH   2   3
BRANCH   2  17
ATOM     17  N   UNL     1      -1.152  -1.947   0.896  0.00  0.00    +0.394 N 
ATOM     18  H   UNL     1      -0.729  -2.720   0.370  0.00  0.00    -0.083 HD
ATOM     19  H   UNL     1      -0.549  -1.702   1.689  0.00  0.00    -0.083 HD
BRANCH  17  20
ATOM     20  C   UNL     1      -1.293  -0.775   0.011  0.00  0.00    -0.002 C 
BRANCH  20  21
ATOM     21  C   UNL     1       0.002  -0.004   0.002  0.00  0.00    -0.057 A 
ATOM     22  C   UNL     1      -0.017   1.378   0.010  0.00  0.00    +0.002 A 
ATOM     23  C   UNL     1       1.171   2.086   0.002  0.00  0.00    +0.000 A 
ATOM     24  C   UNL     1       2.377   1.411  -0.015  0.00  0.00    +0.000 A 
ATOM     25  C   UNL     1       2.396   0.029  -0.021  0.00  0.00    +0.000 A 
ATOM     26  C   UNL     1       1.208  -0.679  -0.013  0.00  0.00    +0.002 A 
ENDBRANCH  20  21
BRANCH  20  27
ATOM     27  C   UNL     1      -1.612  -1.237  -1.388  0.00  0.00    -0.020 A 
ATOM     28  C   UNL     1      -2.474  -0.703  -2.287  0.00  0.00    +0.010 A 
ATOM     29  C   UNL     1      -2.604  -1.299  -3.527  0.00  0.00    +0.008 A 
ATOM     30  C   UNL     1      -1.873  -2.407  -3.804  0.00  0.00    +0.045 A 
ATOM     31  S   UNL     1      -0.959  -2.634  -2.287  0.00  0.00    -0.103 S 
ENDBRANCH  20  27
ENDBRANCH  17  20
ENDBRANCH   2  17
TORSDOF 5
