REMARK  Name = ZINC61095452
REMARK  5 active torsions:
REMARK  status: ('A' for Active; 'I' for Inactive)
REMARK    1  A    between atoms: C_1  and  C_2
REMARK    2  A    between atoms: C_2  and  C_4
REMARK    3  A    between atoms: C_2  and  N_11
REMARK    4  A    between atoms: N_9  and  C_10
REMARK    5  A    between atoms: N_11  and  C_12
REMARK                            x       y       z     vdW  Elec       q    Type
REMARK                         _______ _______ _______ _____ _____    ______ ____
ROOT
ATOM      1  C   UNL     1      -0.019   1.526   0.010  0.00  0.00    +0.038 C 
ATOM      2  C   UNL     1       0.002  -0.004   0.002  0.00  0.00    +0.154 C 
ENDROOT
BRANCH   2   3
ATOM      3  C   UNL     1       0.731  -0.503   1.223  0.00  0.00    +0.240 C 
ATOM      4  O   UNL     1       0.159  -1.212   2.023  0.00  0.00    -0.273 OA
ATOM      5  N   UNL     1       2.019  -0.161   1.426  0.00  0.00    -0.239 N 
ATOM      6  C   UNL     1       2.671  -0.608   2.518  0.00  0.00    +0.306 C 
ATOM      7  O   UNL     1       2.097  -1.319   3.319  0.00  0.00    -0.252 OA
ATOM      8  N   UNL     1       3.958  -0.266   2.720  0.00  0.00    -0.302 N 
ATOM      9  C   UNL     1       4.667  -0.751   3.907  0.00  0.00    +0.129 C 
ATOM     10  H   UNL     1       2.476   0.406   0.786  0.00  0.00    +0.159 HD
ATOM     11  H   UNL     1       4.416   0.302   2.081  0.00  0.00    +0.150 HD
ENDBRANCH   2   3
BRANCH   2  12
ATOM     12  N   UNL     1      -1.372  -0.511   0.012  0.00  0.00    -0.331 N 
ATOM     13  H   UNL     1      -1.794  -0.752   0.852  0.00  0.00    +0.147 HD
BRANCH  12  14
ATOM     14  C   UNL     1      -2.076  -0.648  -1.188  0.00  0.00    +0.069 A 
ATOM     15  C   UNL     1      -1.472  -0.308  -2.391  0.00  0.00    +0.064 A 
ATOM     16  C   UNL     1      -2.170  -0.445  -3.578  0.00  0.00    +0.128 A 
ATOM     17  C   UNL     1      -3.471  -0.918  -3.567  0.00  0.00    +0.079 A 
ATOM     18  C   UNL     1      -4.077  -1.257  -2.369  0.00  0.00    +0.163 A 
ATOM     19  C   UNL     1      -3.380  -1.129  -1.179  0.00  0.00    +0.179 A 
ATOM     20  F   UNL     1      -3.970  -1.465  -0.011  0.00  0.00    -0.201 F 
ATOM     21  F   UNL     1      -5.347  -1.719  -2.362  0.00  0.00    -0.202 F 
ATOM     22  F   UNL     1      -1.581  -0.114  -4.748  0.00  0.00    -0.205 F 
ENDBRANCH  12  14
ENDBRANCH   2  12
TORSDOF 3
