REMARK  Name = ZINC36014242
REMARK  6 active torsions:
REMARK  status: ('A' for Active; 'I' for Inactive)
REMARK    1  A    between atoms: C_4  and  C_7
REMARK    2  A    between atoms: C_7  and  C_8
REMARK    3  A    between atoms: N_12  and  C_30
REMARK    4  A    between atoms: N_17  and  S_20
REMARK    5  A    between atoms: S_20  and  C_23
REMARK    6  A    between atoms: C_30  and  C_31
REMARK                            x       y       z     vdW  Elec       q    Type
REMARK                         _______ _______ _______ _____ _____    ______ ____
ROOT
ATOM      1  C   UNL     1       4.726  -3.969   2.252  0.00  0.00    +0.023 C 
ATOM      2  C   UNL     1       6.175  -3.666   2.563  0.00  0.00    +0.201 C 
ATOM      3  O   UNL     1       7.013  -4.477   2.897  0.00  0.00    -0.277 OA
ATOM      4  N   UNL     1       6.379  -2.341   2.406  0.00  0.00    -0.309 N 
ATOM      5  C   UNL     1       5.125  -1.699   2.002  0.00  0.00    +0.006 C 
ATOM      6  N   UNL     1       4.237  -2.777   1.517  0.00  0.00    +0.401 N 
ATOM      7  C   UNL     1       4.480  -1.001   3.199  0.00  0.00    +0.023 C 
ATOM      8  C   UNL     1       5.423   0.088   3.721  0.00  0.00    +0.109 C 
ATOM      9  N   UNL     1       5.776   0.981   2.609  0.00  0.00    -0.177 NA
ATOM     10  C   UNL     1       6.335   0.396   1.382  0.00  0.00    +0.109 C 
ATOM     11  C   UNL     1       5.384  -0.696   0.879  0.00  0.00    +0.023 C 
ATOM     12  H   UNL     1       4.343  -2.905   0.521  0.00  0.00    -0.082 HD
ATOM     13  H   UNL     1       3.276  -2.583   1.752  0.00  0.00    -0.082 HD
ENDROOT
BRANCH   9  14
ATOM     14  S   UNL     1       5.548   2.616   2.735  0.00  0.00    +0.061 S 
ATOM     15  O   UNL     1       5.433   3.114   1.409  0.00  0.00    -0.153 OA
ATOM     16  O   UNL     1       4.535   2.810   3.712  0.00  0.00    -0.153 OA
BRANCH  14  17
ATOM     17  C   UNL     1       7.029   3.298   3.402  0.00  0.00    +0.106 A 
ATOM     18  C   UNL     1       7.180   3.415   4.771  0.00  0.00    +0.031 A 
ATOM     19  C   UNL     1       8.341   3.950   5.296  0.00  0.00    +0.040 A 
ATOM     20  C   UNL     1       9.354   4.369   4.450  0.00  0.00    +0.124 A 
ATOM     21  C   UNL     1       9.201   4.252   3.078  0.00  0.00    +0.040 A 
ATOM     22  C   UNL     1       8.041   3.712   2.556  0.00  0.00    +0.031 A 
ATOM     23  F   UNL     1      10.489   4.893   4.961  0.00  0.00    -0.205 F 
ENDBRANCH  14  17
ENDBRANCH   9  14
BRANCH   1  24
ATOM     24  C   UNL     1       4.619  -5.218   1.374  0.00  0.00    +0.028 C 
BRANCH  24  28
ATOM     25  C   UNL     1       0.504  -6.103   0.647  0.00  0.00    +0.000 A 
ATOM     26  C   UNL     1       1.195  -5.272  -0.215  0.00  0.00    +0.000 A 
ATOM     27  C   UNL     1       2.526  -4.985   0.021  0.00  0.00    +0.003 A 
ATOM     28  C   UNL     1       3.167  -5.529   1.118  0.00  0.00    -0.048 A 
ATOM     29  C   UNL     1       2.476  -6.360   1.980  0.00  0.00    +0.003 A 
ATOM     30  C   UNL     1       1.145  -6.647   1.744  0.00  0.00    +0.000 A 
ENDBRANCH  24  28
ENDBRANCH   1  24
BRANCH   4  31
ATOM     31  C   UNL     1       7.656  -1.652   2.609  0.00  0.00    +0.141 C 
BRANCH  31  32
ATOM     32  C   UNL     1       8.462  -1.704   1.337  0.00  0.00    -0.030 A 
ATOM     33  C   UNL     1       8.397  -2.819   0.523  0.00  0.00    +0.008 A 
ATOM     34  C   UNL     1       9.136  -2.867  -0.644  0.00  0.00    +0.038 A 
ATOM     35  C   UNL     1       9.941  -1.798  -0.998  0.00  0.00    +0.123 A 
ATOM     36  C   UNL     1      10.006  -0.682  -0.181  0.00  0.00    +0.038 A 
ATOM     37  C   UNL     1       9.262  -0.634   0.983  0.00  0.00    +0.008 A 
ATOM     38  F   UNL     1      10.664  -1.845  -2.138  0.00  0.00    -0.205 F 
ENDBRANCH  31  32
ENDBRANCH   4  31
TORSDOF 6
