REMARK  Name = ZINC23827619
REMARK  6 active torsions:
REMARK  status: ('A' for Active; 'I' for Inactive)
REMARK    1  A    between atoms: C_1  and  C_2
REMARK    2  A    between atoms: C_2  and  C_4
REMARK    3  A    between atoms: C_2  and  N_17
REMARK    4  A    between atoms: N_6  and  C_7
REMARK    5  A    between atoms: N_20  and  S_23
REMARK    6  A    between atoms: S_23  and  C_26
REMARK                            x       y       z     vdW  Elec       q    Type
REMARK                         _______ _______ _______ _____ _____    ______ ____
ROOT
ATOM      1  C   UNL     1       4.877   0.669  -6.341  0.00  0.00    -0.004 C 
ATOM      2  C   UNL     1       3.859  -0.329  -5.785  0.00  0.00    +0.017 C 
ENDROOT
BRANCH   2   3
ATOM      3  N   UNL     1       4.159  -0.597  -4.372  0.00  0.00    +0.389 N 
ATOM      4  C   UNL     1       5.586  -0.892  -4.183  0.00  0.00    -0.060 C 
ATOM      5  C   UNL     1       5.824  -1.341  -2.737  0.00  0.00    +0.091 C 
ATOM      6  N   UNL     1       5.276  -0.318  -1.834  0.00  0.00    -0.180 NA
ATOM      7  C   UNL     1       3.889   0.125  -2.045  0.00  0.00    +0.091 C 
ATOM      8  C   UNL     1       3.729   0.521  -3.521  0.00  0.00    -0.060 C 
ATOM      9  H   UNL     1       3.590  -1.488  -4.067  0.00  0.00    -0.081 HD
BRANCH   6  10
ATOM     10  S   UNL     1       6.192   0.312  -0.607  0.00  0.00    +0.067 S 
ATOM     11  O   UNL     1       7.190  -0.654  -0.308  0.00  0.00    -0.152 OA
ATOM     12  O   UNL     1       5.283   0.797   0.371  0.00  0.00    -0.152 OA
BRANCH  10  13
ATOM     13  C   UNL     1       7.032   1.719  -1.255  0.00  0.00    +0.144 A 
ATOM     14  C   UNL     1       6.633   3.014  -1.282  0.00  0.00    +0.038 A 
ATOM     15  C   UNL     1       7.465   3.962  -1.848  0.00  0.00    +0.030 A 
ATOM     16  C   UNL     1       8.657   3.566  -2.361  0.00  0.00    +0.080 A 
ATOM     17  S   UNL     1       8.629   1.809  -2.048  0.00  0.00    -0.057 S 
ATOM     18 CL   UNL     1       9.887   4.520  -3.130  0.00  0.00    -0.076 Cl
ENDBRANCH  10  13
ENDBRANCH   6  10
ENDBRANCH   2   3
BRANCH   2  19
ATOM     19  C   UNL     1       3.937  -1.615  -6.567  0.00  0.00    +0.203 C 
ATOM     20  O   UNL     1       4.449  -2.596  -6.072  0.00  0.00    -0.277 OA
ATOM     21  N   UNL     1       3.436  -1.674  -7.817  0.00  0.00    -0.286 N 
ATOM     22  H   UNL     1       3.034  -0.767  -8.292  0.00  0.00    +0.155 HD
BRANCH  21  23
ATOM     23  C   UNL     1       3.428  -2.886  -8.509  0.00  0.00    +0.041 A 
ATOM     24  C   UNL     1       4.380  -3.846  -8.241  0.00  0.00    +0.024 A 
ATOM     25  C   UNL     1       4.378  -5.059  -8.923  0.00  0.00    +0.002 A 
ATOM     26  C   UNL     1       3.444  -5.329  -9.876  0.00  0.00    +0.008 A 
ATOM     27  C   UNL     1       2.459  -4.375 -10.183  0.00  0.00    -0.016 A 
ATOM     28  C   UNL     1       2.448  -3.138  -9.493  0.00  0.00    +0.003 A 
ATOM     29  C   UNL     1       1.464  -2.186  -9.801  0.00  0.00    +0.010 A 
ATOM     30  C   UNL     1       0.534  -2.462 -10.756  0.00  0.00    +0.001 A 
ATOM     31  C   UNL     1       0.544  -3.679 -11.435  0.00  0.00    +0.001 A 
ATOM     32  C   UNL     1       1.483  -4.626 -11.163  0.00  0.00    +0.008 A 
ENDBRANCH  21  23
ENDBRANCH   2  19
TORSDOF 5
