REMARK  Name = ZINC36313115
REMARK  13 active torsions:
REMARK  status: ('A' for Active; 'I' for Inactive)
REMARK    1  A    between atoms: C_1  and  C_2
REMARK    2  A    between atoms: C_2  and  C_3
REMARK    3  A    between atoms: C_2  and  C_4
REMARK    4  A    between atoms: C_11  and  C_15
REMARK    5  A    between atoms: C_15  and  N_16
REMARK    6  A    between atoms: N_16  and  C_17
REMARK    7  A    between atoms: N_16  and  C_24
REMARK    8  A    between atoms: C_17  and  C_18
REMARK    9  A    between atoms: C_24  and  C_25
REMARK   10  A    between atoms: C_25  and  C_27
REMARK   11  A    between atoms: C_25  and  O_36
REMARK   12  A    between atoms: C_27  and  O_28
REMARK   13  A    between atoms: O_28  and  C_29
REMARK                            x       y       z     vdW  Elec       q    Type
REMARK                         _______ _______ _______ _____ _____    ______ ____
ROOT
ATOM      1  N   UNL     1      -7.635  -2.002   2.051  0.00  0.00    +0.389 N 
ATOM      2  H   UNL     1      -7.127  -2.109   2.916  0.00  0.00    -0.081 HD
ENDROOT
BRANCH   1   3
ATOM      3  C   UNL     1      -7.205  -3.035   1.100  0.00  0.00    -0.003 C 
BRANCH   3  11
ATOM      4  C   UNL     1      -1.025  -1.653   1.363  0.00  0.00    -0.005 A 
ATOM      5  C   UNL     1      -1.547  -2.629   0.603  0.00  0.00    +0.027 A 
ATOM      6  C   UNL     1      -2.981  -2.853   0.625  0.00  0.00    +0.072 A 
ATOM      7  C   UNL     1      -3.761  -3.821  -0.089  0.00  0.00    +0.260 A 
ATOM      8  O   UNL     1      -3.224  -4.611  -0.846  0.00  0.00    -0.267 OA
ATOM      9  N   UNL     1      -5.094  -3.843   0.091  0.00  0.00    -0.312 N 
ATOM     10  H   UNL     1      -5.628  -4.496  -0.390  0.00  0.00    +0.170 HD
ATOM     11  C   UNL     1      -5.709  -2.971   0.931  0.00  0.00    +0.094 A 
ATOM     12  N   UNL     1      -5.026  -2.077   1.595  0.00  0.00    -0.229 NA
ATOM     13  C   UNL     1      -3.705  -1.993   1.470  0.00  0.00    +0.116 A 
ATOM     14  S   UNL     1      -2.450  -0.959   2.180  0.00  0.00    -0.073 S 
BRANCH   4  16
ATOM     15  C   UNL     1       0.578   0.217   1.077  0.00  0.00    +0.013 C 
ATOM     16  C   UNL     1       0.420  -1.246   1.497  0.00  0.00    +0.020 C 
ATOM     17  C   UNL     1       0.862  -1.409   2.953  0.00  0.00    +0.013 C 
ENDBRANCH   4  16
ENDBRANCH   3  11
ENDBRANCH   1   3
BRANCH   1  18
ATOM     18  C   UNL     1      -7.364  -0.673   1.486  0.00  0.00    -0.042 C 
BRANCH  18  19
ATOM     19  C   UNL     1      -8.014  -0.562   0.130  0.00  0.00    -0.064 A 
ATOM     20  C   UNL     1      -7.309  -0.915  -1.005  0.00  0.00    +0.002 A 
ATOM     21  C   UNL     1      -7.904  -0.813  -2.248  0.00  0.00    +0.000 A 
ATOM     22  C   UNL     1      -9.205  -0.358  -2.356  0.00  0.00    +0.000 A 
ATOM     23  C   UNL     1      -9.910  -0.005  -1.221  0.00  0.00    +0.000 A 
ATOM     24  C   UNL     1      -9.316  -0.111   0.023  0.00  0.00    +0.002 A 
ENDBRANCH  18  19
ENDBRANCH   1  18
BRANCH   1  25
ATOM     25  C   UNL     1      -9.075  -2.140   2.307  0.00  0.00    -0.043 C 
BRANCH  25  26
ATOM     26  C   UNL     1      -9.452  -1.330   3.548  0.00  0.00    +0.135 C 
BRANCH  26  27
ATOM     27  O   UNL     1      -9.300   0.064   3.272  0.00  0.00    -0.390 OA
ATOM     28  H   UNL     1      -9.935   0.409   2.630  0.00  0.00    +0.210 HD
ENDBRANCH  26  27
BRANCH  26  29
ATOM     29  C   UNL     1     -10.907  -1.619   3.923  0.00  0.00    +0.258 C 
BRANCH  29  30
ATOM     30  O   UNL     1     -11.225  -0.953   5.147  0.00  0.00    -0.489 OA
BRANCH  30  31
ATOM     31  C   UNL     1     -12.489  -1.108   5.623  0.00  0.00    +0.121 A 
ATOM     32  C   UNL     1     -13.402  -1.889   4.930  0.00  0.00    +0.047 A 
ATOM     33  C   UNL     1     -14.686  -2.045   5.415  0.00  0.00    +0.023 A 
ATOM     34  C   UNL     1     -15.061  -1.422   6.593  0.00  0.00    +0.041 A 
ATOM     35  C   UNL     1     -14.152  -0.643   7.286  0.00  0.00    +0.023 A 
ATOM     36  C   UNL     1     -12.866  -0.490   6.807  0.00  0.00    +0.047 A 
ATOM     37 CL   UNL     1     -16.675  -1.619   7.200  0.00  0.00    -0.084 Cl
ENDBRANCH  30  31
ENDBRANCH  29  30
ENDBRANCH  26  29
ENDBRANCH  25  26
ENDBRANCH   1  25
TORSDOF 11
