REMARK  Name = ZINC04727294
REMARK  8 active torsions:
REMARK  status: ('A' for Active; 'I' for Inactive)
REMARK    1  A    between atoms: C_1  and  C_2
REMARK    2  A    between atoms: C_2  and  C_3
REMARK    3  A    between atoms: C_3  and  C_24
REMARK    4  A    between atoms: C_4  and  C_22
REMARK    5  A    between atoms: C_4  and  O_23
REMARK    6  A    between atoms: N_5  and  C_9
REMARK    7  A    between atoms: C_9  and  C_10
REMARK    8  A    between atoms: C_10  and  C_11
REMARK                            x       y       z     vdW  Elec       q    Type
REMARK                         _______ _______ _______ _____ _____    ______ ____
ROOT
ATOM      1  C   UNL     1      -1.947  -2.378   1.445  0.00  0.00    +0.119 C 
ENDROOT
BRANCH   1   4
ATOM      2  C   UNL     1      -2.624  -6.119   1.377  0.00  0.00    +0.157 C 
ATOM      3  C   UNL     1      -1.606  -4.963   1.323  0.00  0.00    +0.175 C 
ATOM      4  N   UNL     1      -2.440  -3.757   1.442  0.00  0.00    -0.235 N 
ATOM      5  C   UNL     1      -3.723  -4.126   1.553  0.00  0.00    +0.406 C 
ATOM      6  O   UNL     1      -4.634  -3.331   1.671  0.00  0.00    -0.226 OA
ATOM      7  O   UNL     1      -3.910  -5.450   1.519  0.00  0.00    -0.439 OA
ATOM      8  C   UNL     1      -0.856  -4.969  -0.010  0.00  0.00    +0.068 C 
ATOM      9  C   UNL     1      -2.350  -7.018   2.585  0.00  0.00    +0.060 C 
BRANCH   2  11
ATOM     10  C   UNL     1      -3.599  -8.071   0.161  0.00  0.00    +0.008 C 
ATOM     11  C   UNL     1      -2.582  -6.932   0.082  0.00  0.00    +0.049 C 
ENDBRANCH   2  11
BRANCH   3  12
ATOM     12  O   UNL     1      -0.690  -5.050   2.417  0.00  0.00    -0.368 OA
ATOM     13  H   UNL     1      -0.068  -4.311   2.468  0.00  0.00    +0.212 HD
ENDBRANCH   3  12
ENDBRANCH   1   4
BRANCH   1  14
ATOM     14  C   UNL     1      -1.907  -1.847   0.010  0.00  0.00    +0.056 C 
BRANCH  14  15
ATOM     15  C   UNL     1      -1.400  -0.428   0.013  0.00  0.00    -0.021 A 
ATOM     16  C   UNL     1      -2.147   0.687   0.026  0.00  0.00    +0.087 A 
ATOM     17  N   UNL     1      -1.339   1.790   0.030  0.00  0.00    -0.360 N 
ATOM     18  H   UNL     1      -1.650   2.709   0.039  0.00  0.00    +0.165 HD
ATOM     19  C   UNL     1      -0.017   1.403   0.010  0.00  0.00    +0.047 A 
ATOM     20  C   UNL     1       0.002  -0.004   0.002  0.00  0.00    +0.004 A 
ATOM     21  C   UNL     1       1.221  -0.685  -0.013  0.00  0.00    +0.030 A 
ATOM     22  C   UNL     1       2.399   0.029  -0.020  0.00  0.00    +0.042 A 
ATOM     23  C   UNL     1       2.379   1.418  -0.012  0.00  0.00    +0.022 A 
ATOM     24  C   UNL     1       1.184   2.103   0.002  0.00  0.00    +0.027 A 
ATOM     25 CL   UNL     1       3.918  -0.813  -0.038  0.00  0.00    -0.084 Cl
ENDBRANCH  14  15
ENDBRANCH   1  14
TORSDOF 5
