REMARK  Name = ZINC14464768
REMARK  6 active torsions:
REMARK  status: ('A' for Active; 'I' for Inactive)
REMARK    1  A    between atoms: C_1  and  C_2
REMARK    2  A    between atoms: C_2  and  N_3
REMARK    3  A    between atoms: N_3  and  C_4
REMARK    4  A    between atoms: N_3  and  S_10
REMARK    5  A    between atoms: S_10  and  C_13
REMARK    6  A    between atoms: C_26  and  C_29
REMARK                            x       y       z     vdW  Elec       q    Type
REMARK                         _______ _______ _______ _____ _____    ______ ____
ROOT
ATOM      1  C   UNL     1       4.071   3.702   2.178  0.00  0.00    +0.109 A 
ATOM      2  C   UNL     1       3.096   3.631   3.156  0.00  0.00    +0.030 A 
ATOM      3  C   UNL     1       3.461   3.628   4.487  0.00  0.00    +0.025 A 
ATOM      4  C   UNL     1       4.802   3.708   4.840  0.00  0.00    +0.031 A 
ATOM      5  C   UNL     1       5.783   3.783   3.864  0.00  0.00    -0.018 A 
ATOM      6  C   UNL     1       5.404   3.781   2.529  0.00  0.00    +0.034 A 
ATOM      7  C   UNL     1       7.239   3.869   4.197  0.00  0.00    +0.049 C 
ATOM      8  C   UNL     1       7.938   2.553   3.947  0.00  0.00    -0.023 C 
ATOM      9  C   UNL     1       8.860   2.350   4.856  0.00  0.00    -0.030 C 
ATOM     10  C   UNL     1       8.906   3.508   5.834  0.00  0.00    +0.033 C 
ATOM     11  C   UNL     1       7.499   4.159   5.688  0.00  0.00    +0.029 C 
ATOM     12  C   UNL     1       6.531   3.349   6.555  0.00  0.00    +0.105 C 
ATOM     13  N   UNL     1       5.155   3.708   6.194  0.00  0.00    -0.336 N 
ATOM     14  H   UNL     1       4.507   3.940   6.877  0.00  0.00    +0.147 HD
ENDROOT
BRANCH  12  15
ATOM     15  C   UNL     1       6.748   1.877   6.314  0.00  0.00    -0.027 A 
ATOM     16  C   UNL     1       6.195   1.271   5.201  0.00  0.00    +0.007 A 
ATOM     17  C   UNL     1       6.399  -0.078   4.977  0.00  0.00    +0.020 A 
ATOM     18  C   UNL     1       7.146  -0.823   5.871  0.00  0.00    +0.041 A 
ATOM     19  C   UNL     1       7.695  -0.216   6.987  0.00  0.00    +0.020 A 
ATOM     20  C   UNL     1       7.495   1.134   7.208  0.00  0.00    +0.007 A 
ATOM     21 CL   UNL     1       7.396  -2.518   5.594  0.00  0.00    -0.084 Cl
ENDBRANCH  12  15
BRANCH   1  22
ATOM     22  S   UNL     1       3.611   3.701   0.477  0.00  0.00    +0.075 S 
ATOM     23  O   UNL     1       4.669   4.331  -0.231  0.00  0.00    -0.150 OA
ATOM     24  O   UNL     1       2.270   4.169   0.419  0.00  0.00    -0.150 OA
BRANCH  22  25
ATOM     25  N   UNL     1       3.582   2.122  -0.021  0.00  0.00    -0.203 N 
BRANCH  25  26
ATOM     26  C   UNL     1       2.379   1.412  -0.024  0.00  0.00    +0.051 A 
ATOM     27  C   UNL     1       1.312   1.855  -0.795  0.00  0.00    +0.025 A 
ATOM     28  C   UNL     1       0.124   1.151  -0.796  0.00  0.00    +0.002 A 
ATOM     29  C   UNL     1      -0.004   0.006  -0.030  0.00  0.00    +0.000 A 
ATOM     30  C   UNL     1       1.056  -0.437   0.739  0.00  0.00    +0.002 A 
ATOM     31  C   UNL     1       2.247   0.263   0.744  0.00  0.00    +0.025 A 
ENDBRANCH  25  26
BRANCH  25  33
ATOM     32  C   UNL     1       4.935   1.566  -1.981  0.00  0.00    +0.026 C 
ATOM     33  C   UNL     1       4.819   1.470  -0.458  0.00  0.00    +0.128 C 
ENDBRANCH  25  33
ENDBRANCH  22  25
ENDBRANCH   1  22
TORSDOF 5
