REMARK  Name = ZINC14471308
REMARK  7 active torsions:
REMARK  status: ('A' for Active; 'I' for Inactive)
REMARK    1  A    between atoms: C_1  and  C_2
REMARK    2  A    between atoms: C_2  and  C_3
REMARK    3  A    between atoms: C_2  and  C_4
REMARK    4  A    between atoms: C_4  and  C_5
REMARK    5  A    between atoms: N_7  and  C_8
REMARK    6  A    between atoms: C_21  and  C_24
REMARK    7  A    between atoms: C_28  and  N_30
REMARK                            x       y       z     vdW  Elec       q    Type
REMARK                         _______ _______ _______ _____ _____    ______ ____
ROOT
ATOM      1  C   UNL     1      -5.112   5.997  -0.200  0.00  0.00    +0.034 A 
ATOM      2  C   UNL     1      -4.777   6.042   1.147  0.00  0.00    +0.025 A 
ATOM      3  C   UNL     1      -3.457   6.201   1.516  0.00  0.00    +0.025 A 
ATOM      4  C   UNL     1      -2.470   6.315   0.546  0.00  0.00    +0.031 A 
ATOM      5  C   UNL     1      -2.796   6.271  -0.801  0.00  0.00    -0.018 A 
ATOM      6  C   UNL     1      -4.125   6.111  -1.167  0.00  0.00    +0.029 A 
ATOM      7  C   UNL     1      -1.766   6.392  -1.879  0.00  0.00    +0.049 C 
ATOM      8  C   UNL     1      -1.452   5.047  -2.539  0.00  0.00    -0.023 C 
ATOM      9  C   UNL     1      -0.178   4.969  -2.839  0.00  0.00    -0.030 C 
ATOM     10  C   UNL     1       0.541   6.241  -2.434  0.00  0.00    +0.033 C 
ATOM     11  C   UNL     1      -0.394   6.856  -1.351  0.00  0.00    +0.029 C 
ATOM     12  C   UNL     1      -0.080   6.155  -0.027  0.00  0.00    +0.105 C 
ATOM     13  N   UNL     1      -1.145   6.456   0.935  0.00  0.00    -0.336 N 
ATOM     14  H   UNL     1      -0.935   6.767   1.829  0.00  0.00    +0.147 HD
ENDROOT
BRANCH  12  15
ATOM     15  C   UNL     1      -0.006   4.666  -0.248  0.00  0.00    -0.025 A 
ATOM     16  C   UNL     1      -1.167   3.920  -0.327  0.00  0.00    +0.007 A 
ATOM     17  C   UNL     1      -1.100   2.556  -0.536  0.00  0.00    +0.022 A 
ATOM     18  C   UNL     1       0.130   1.935  -0.656  0.00  0.00    +0.071 A 
ATOM     19  C   UNL     1       1.292   2.681  -0.578  0.00  0.00    +0.145 A 
ATOM     20  C   UNL     1       1.224   4.046  -0.374  0.00  0.00    +0.039 A 
ATOM     21 CL   UNL     1       0.215   0.220  -0.912  0.00  0.00    -0.081 Cl
BRANCH  19  22
ATOM     22  N   UNL     1       2.608   2.018  -0.712  0.00  0.00    +0.058 N 
ATOM     23  O   UNL     1       3.631   2.675  -0.643  0.00  0.00    -0.126 OA
ATOM     24  O   UNL     1       2.668   0.814  -0.891  0.00  0.00    -0.126 OA
ENDBRANCH  19  22
ENDBRANCH  12  15
BRANCH   1  27
ATOM     25  C   UNL     1      -7.435   6.367   0.169  0.00  0.00    +0.217 C 
ATOM     26  O   UNL     1      -7.160   7.064   1.123  0.00  0.00    -0.275 OA
ATOM     27  N   UNL     1      -6.450   5.836  -0.583  0.00  0.00    -0.285 N 
ATOM     28  H   UNL     1      -6.668   5.342  -1.389  0.00  0.00    +0.155 HD
BRANCH  25  29
ATOM     29  C   UNL     1      -8.876   6.094  -0.176  0.00  0.00    +0.099 C 
BRANCH  29  31
ATOM     30  C   UNL     1      -9.613   8.322   0.682  0.00  0.00    +0.008 C 
ATOM     31  C   UNL     1      -9.784   6.809   0.827  0.00  0.00    -0.008 C 
ATOM     32  C   UNL     1     -11.242   6.432   0.554  0.00  0.00    +0.008 C 
ENDBRANCH  29  31
ENDBRANCH  25  29
ENDBRANCH   1  27
TORSDOF 5
