REMARK  Name = ZINC16157825
REMARK  3 active torsions:
REMARK  status: ('A' for Active; 'I' for Inactive)
REMARK    1  A    between atoms: C_4  and  C_7
REMARK    2  A    between atoms: C_13  and  C_15
REMARK    3  A    between atoms: N_17  and  N_18
REMARK                            x       y       z     vdW  Elec       q    Type
REMARK                         _______ _______ _______ _____ _____    ______ ____
ROOT
ATOM      1  C   UNL     1       2.290  -2.039  -1.466  0.00  0.00    +0.245 C 
ATOM      2  O   UNL     1       1.650  -2.752  -0.723  0.00  0.00    -0.273 OA
ATOM      3  N   UNL     1       1.736  -1.586  -2.608  0.00  0.00    -0.206 N 
ATOM      4  H   UNL     1       2.248  -1.016  -3.203  0.00  0.00    +0.177 HD
ENDROOT
BRANCH   3   5
ATOM      5  N   UNL     1       0.421  -1.939  -2.938  0.00  0.00    -0.175 NA
ATOM      6  C   UNL     1      -0.154  -1.417  -3.993  0.00  0.00    +0.153 C 
ATOM      7  C   UNL     1       0.373  -0.344  -4.869  0.00  0.00    +0.030 A 
ATOM      8  C   UNL     1       1.549   0.399  -4.862  0.00  0.00    +0.027 A 
ATOM      9  C   UNL     1       1.761   1.355  -5.836  0.00  0.00    +0.020 A 
ATOM     10  C   UNL     1       0.806   1.571  -6.816  0.00  0.00    +0.032 A 
ATOM     11  C   UNL     1      -0.364   0.838  -6.831  0.00  0.00    +0.041 A 
ATOM     12  C   UNL     1      -0.595  -0.129  -5.858  0.00  0.00    +0.057 A 
ATOM     13  N   UNL     1      -1.667  -0.990  -5.647  0.00  0.00    -0.279 N 
ATOM     14  C   UNL     1      -1.465  -1.773  -4.573  0.00  0.00    +0.269 C 
ATOM     15  O   UNL     1      -2.227  -2.622  -4.152  0.00  0.00    -0.268 OA
ATOM     16 BR   UNL     1      -1.655   1.149  -8.177  0.00  0.00    -0.048 Br
ATOM     17 BR   UNL     1       3.357   2.369  -5.832  0.00  0.00    -0.050 Br
ATOM     18  H   UNL     1      -2.459  -1.024  -6.206  0.00  0.00    +0.155 HD
ENDBRANCH   3   5
BRANCH   1  24
ATOM     19  C   UNL     1       3.734  -0.286  -0.402  0.00  0.00    +0.057 C 
ATOM     20  C   UNL     1       3.693  -0.699   1.086  0.00  0.00    +0.113 C 
ATOM     21  N   UNL     1       4.257  -2.054   1.132  0.00  0.00    -0.314 N 
ATOM     22  C   UNL     1       4.270  -2.618  -0.088  0.00  0.00    +0.226 C 
ATOM     23  O   UNL     1       4.676  -3.735  -0.332  0.00  0.00    -0.275 OA
ATOM     24  C   UNL     1       3.704  -1.659  -1.112  0.00  0.00    +0.171 C 
ATOM     25  H   UNL     1       4.579  -2.486   1.939  0.00  0.00    +0.149 HD
BRANCH  19  29
ATOM     26  C   UNL     1       0.307   2.047  -1.433  0.00  0.00    +0.000 A 
ATOM     27  C   UNL     1       0.173   0.953  -0.599  0.00  0.00    +0.000 A 
ATOM     28  C   UNL     1       1.282   0.198  -0.265  0.00  0.00    +0.004 A 
ATOM     29  C   UNL     1       2.525   0.537  -0.766  0.00  0.00    -0.042 A 
ATOM     30  C   UNL     1       2.659   1.630  -1.601  0.00  0.00    +0.004 A 
ATOM     31  C   UNL     1       1.550   2.386  -1.933  0.00  0.00    +0.000 A 
ENDBRANCH  19  29
ENDBRANCH   1  24
TORSDOF 3
