REMARK  Name = ZINC35070135
REMARK  8 active torsions:
REMARK  status: ('A' for Active; 'I' for Inactive)
REMARK    1  A    between atoms: C_1  and  C_2
REMARK    2  A    between atoms: C_2  and  C_3
REMARK    3  A    between atoms: C_3  and  C_5
REMARK    4  A    between atoms: C_3  and  N_23
REMARK    5  A    between atoms: N_15  and  C_16
REMARK    6  A    between atoms: N_23  and  C_24
REMARK    7  A    between atoms: C_24  and  C_25
REMARK    8  A    between atoms: N_28  and  C_29
REMARK                            x       y       z     vdW  Elec       q    Type
REMARK                         _______ _______ _______ _____ _____    ______ ____
ROOT
ATOM      1  C   UNL     1      -1.642  -2.010  -0.322  0.00  0.00    +0.138 A 
ATOM      2  N   UNL     1      -0.528  -2.545  -0.721  0.00  0.00    -0.231 NA
ATOM      3  C   UNL     1      -0.340  -3.888  -0.712  0.00  0.00    +0.078 A 
ATOM      4  C   UNL     1       0.858  -4.463  -1.141  0.00  0.00    +0.028 A 
ATOM      5  C   UNL     1       1.005  -5.832  -1.115  0.00  0.00    +0.002 A 
ATOM      6  C   UNL     1      -0.023  -6.650  -0.665  0.00  0.00    +0.001 A 
ATOM      7  C   UNL     1      -1.215  -6.106  -0.237  0.00  0.00    +0.015 A 
ATOM      8  C   UNL     1      -1.384  -4.723  -0.256  0.00  0.00    +0.065 A 
ATOM      9  C   UNL     1      -2.632  -4.087   0.190  0.00  0.00    +0.266 A 
ATOM     10  O   UNL     1      -3.570  -4.750   0.595  0.00  0.00    -0.267 OA
ATOM     11  N   UNL     1      -2.697  -2.736   0.138  0.00  0.00    -0.263 N 
ENDROOT
BRANCH  11  12
ATOM     12  C   UNL     1      -3.862  -2.080   0.556  0.00  0.00    +0.051 A 
ATOM     13  C   UNL     1      -4.999  -2.107  -0.241  0.00  0.00    +0.027 A 
ATOM     14  C   UNL     1      -6.146  -1.459   0.173  0.00  0.00    +0.017 A 
ATOM     15  C   UNL     1      -6.163  -0.784   1.381  0.00  0.00    +0.018 A 
ATOM     16  C   UNL     1      -5.031  -0.755   2.176  0.00  0.00    +0.017 A 
ATOM     17  C   UNL     1      -3.884  -1.407   1.770  0.00  0.00    +0.027 A 
ATOM     18 BR   UNL     1      -7.735   0.103   1.944  0.00  0.00    -0.050 Br
ENDBRANCH  11  12
BRANCH   1  19
ATOM     19  C   UNL     1      -1.771  -0.510  -0.363  0.00  0.00    +0.144 C 
BRANCH  19  20
ATOM     20  N   UNL     1      -2.620  -0.123  -1.493  0.00  0.00    -0.276 N 
ATOM     21  C   UNL     1      -3.699   0.658  -1.288  0.00  0.00    +0.303 C 
ATOM     22  O   UNL     1      -3.967   1.043  -0.167  0.00  0.00    -0.253 OA
ATOM     23  N   UNL     1      -4.480   1.014  -2.328  0.00  0.00    -0.296 N 
ATOM     24  H   UNL     1      -4.265   0.707  -3.223  0.00  0.00    +0.151 HD
BRANCH  23  25
ATOM     25  C   UNL     1      -5.652   1.863  -2.106  0.00  0.00    +0.074 C 
ATOM     26  C   UNL     1      -5.226   3.333  -2.113  0.00  0.00    +0.022 C 
ATOM     27  C   UNL     1      -6.451   4.220  -1.881  0.00  0.00    +0.002 C 
ATOM     28  C   UNL     1      -7.473   3.980  -2.994  0.00  0.00    +0.000 C 
ATOM     29  C   UNL     1      -7.899   2.510  -2.987  0.00  0.00    +0.002 C 
ATOM     30  C   UNL     1      -6.674   1.623  -3.219  0.00  0.00    +0.022 C 
ENDBRANCH  23  25
BRANCH  20  31
ATOM     31  C   UNL     1      -2.296  -0.586  -2.844  0.00  0.00    +0.107 C 
ATOM     32  C   UNL     1      -3.112  -1.841  -3.163  0.00  0.00    +0.024 C 
ENDBRANCH  20  31
ENDBRANCH  19  20
BRANCH  19  34
ATOM     33  C   UNL     1      -0.505   1.641  -0.489  0.00  0.00    +0.006 C 
ATOM     34  C   UNL     1      -0.385   0.117  -0.529  0.00  0.00    +0.027 C 
ENDBRANCH  19  34
ENDBRANCH   1  19
TORSDOF 6
