REMARK  Name = ZINC63486268
REMARK  12 active torsions:
REMARK  status: ('A' for Active; 'I' for Inactive)
REMARK    1  A    between atoms: C_1  and  C_2
REMARK    2  A    between atoms: C_5  and  N_9
REMARK    3  A    between atoms: C_7  and  C_8
REMARK    4  A    between atoms: C_12  and  C_33
REMARK    5  A    between atoms: C_13  and  C_17
REMARK    6  A    between atoms: C_14  and  C_16
REMARK    7  A    between atoms: C_17  and  C_18
REMARK    8  A    between atoms: C_18  and  C_19
REMARK    9  A    between atoms: N_21  and  C_22
REMARK   10  A    between atoms: C_22  and  C_23
REMARK   11  A    between atoms: C_23  and  C_24
REMARK   12  A    between atoms: C_34  and  C_36
REMARK                            x       y       z     vdW  Elec       q    Type
REMARK                         _______ _______ _______ _____ _____    ______ ____
ROOT
ATOM      1  N   UNL     1       0.058  -4.171  -0.021  0.00  0.00    -0.214 N 
ATOM      2  C   UNL     1      -0.572  -4.969  -0.941  0.00  0.00    +0.164 A 
ATOM      3  C   UNL     1      -0.293  -6.301  -0.575  0.00  0.00    +0.045 A 
ATOM      4  C   UNL     1      -0.815  -7.346  -1.346  0.00  0.00    -0.033 A 
ATOM      5  C   UNL     1      -1.583  -7.025  -2.434  0.00  0.00    -0.022 A 
ATOM      6  C   UNL     1      -1.820  -5.692  -2.739  0.00  0.00    +0.044 A 
ATOM      7  N   UNL     1      -1.323  -4.720  -2.006  0.00  0.00    -0.232 NA
ATOM      8  C   UNL     1      -2.666  -5.351  -3.938  0.00  0.00    +0.066 C 
ATOM      9  C   UNL     1      -0.539  -8.784  -0.989  0.00  0.00    +0.045 C 
ATOM     10  C   UNL     1       0.543  -6.235   0.619  0.00  0.00    +0.070 A 
ATOM     11  N   UNL     1       0.728  -4.978   0.905  0.00  0.00    -0.169 NA
ATOM     12  C   UNL     1       1.097  -7.411   1.382  0.00  0.00    +0.068 C 
ENDROOT
BRANCH   1  17
ATOM     13  C   UNL     1      -0.018   1.503   0.010  0.00  0.00    +0.044 C 
ATOM     14  C   UNL     1       0.002  -0.004   0.002  0.00  0.00    -0.047 A 
ATOM     15  C   UNL     1       0.006  -0.688  -1.200  0.00  0.00    +0.006 A 
ATOM     16  C   UNL     1       0.024  -2.068  -1.211  0.00  0.00    +0.028 A 
ATOM     17  C   UNL     1       0.040  -2.771  -0.013  0.00  0.00    +0.068 A 
ATOM     18  C   UNL     1       0.036  -2.082   1.192  0.00  0.00    +0.031 A 
ATOM     19  C   UNL     1       0.023  -0.700   1.196  0.00  0.00    -0.046 A 
ATOM     20  C   UNL     1       0.026   0.049   2.504  0.00  0.00    +0.044 C 
ENDBRANCH   1  17
BRANCH   5  21
ATOM     21  C   UNL     1      -2.167  -8.115  -3.296  0.00  0.00    +0.046 C 
BRANCH  21  22
ATOM     22  C   UNL     1      -3.546  -8.505  -2.761  0.00  0.00    +0.100 C 
BRANCH  22  23
ATOM     23  C   UNL     1      -4.131  -9.594  -3.623  0.00  0.00    +0.213 C 
ATOM     24  O   UNL     1      -3.506 -10.017  -4.572  0.00  0.00    -0.276 OA
ATOM     25  N   UNL     1      -5.348 -10.098  -3.339  0.00  0.00    -0.315 N 
ATOM     26  H   UNL     1      -5.848  -9.760  -2.579  0.00  0.00    +0.149 HD
BRANCH  25  27
ATOM     27  C   UNL     1      -5.916 -11.157  -4.177  0.00  0.00    +0.108 C 
BRANCH  27  28
ATOM     28  C   UNL     1      -7.295 -11.547  -3.641  0.00  0.00    +0.052 C 
BRANCH  28  29
ATOM     29  C   UNL     1      -7.879 -12.636  -4.503  0.00  0.00    -0.040 C 
ATOM     30  C   UNL     1      -7.821 -13.969  -4.280  0.00  0.00    -0.001 A 
ATOM     31  C   UNL     1      -7.218 -14.773  -3.210  0.00  0.00    +0.010 A 
ATOM     32  C   UNL     1      -7.326 -16.120  -3.261  0.00  0.00    +0.001 A 
ATOM     33  C   UNL     1      -7.997 -16.766  -4.308  0.00  0.00    +0.002 A 
ATOM     34  C   UNL     1      -8.576 -16.096  -5.327  0.00  0.00    +0.026 A 
ATOM     35  C   UNL     1      -8.524 -14.675  -5.374  0.00  0.00    +0.043 A 
ATOM     36  N   UNL     1      -8.999 -13.813  -6.240  0.00  0.00    -0.380 N 
ATOM     37  C   UNL     1      -8.655 -12.460  -5.789  0.00  0.00    +0.144 C 
ATOM     38  H   UNL     1      -9.498 -14.033  -7.042  0.00  0.00    +0.160 HD
ENDBRANCH  28  29
ENDBRANCH  27  28
ENDBRANCH  25  27
ENDBRANCH  22  23
ENDBRANCH  21  22
ENDBRANCH   5  21
TORSDOF 7
