REMARK  Name = ZINC09267122
REMARK  10 active torsions:
REMARK  status: ('A' for Active; 'I' for Inactive)
REMARK    1  A    between atoms: C_1  and  C_2
REMARK    2  A    between atoms: C_2  and  C_4
REMARK    3  A    between atoms: C_5  and  N_31
REMARK    4  A    between atoms: C_12  and  C_14
REMARK    5  A    between atoms: C_16  and  O_24
REMARK    6  A    between atoms: C_17  and  O_22
REMARK    7  A    between atoms: C_18  and  O_20
REMARK    8  A    between atoms: O_20  and  C_21
REMARK    9  A    between atoms: O_22  and  C_23
REMARK   10  A    between atoms: O_24  and  C_25
REMARK                            x       y       z     vdW  Elec       q    Type
REMARK                         _______ _______ _______ _____ _____    ______ ____
ROOT
ATOM      1  C   UNL     1       2.024   4.590  -3.586  0.00  0.00    +0.077 A 
ATOM      2  C   UNL     1       1.285   4.079  -2.511  0.00  0.00    +0.048 A 
ATOM      3  C   UNL     1       1.833   4.120  -1.240  0.00  0.00    +0.014 A 
ATOM      4  C   UNL     1       3.096   4.681  -1.129  0.00  0.00    +0.076 A 
ATOM      5  S   UNL     1       3.522   5.141  -2.781  0.00  0.00    -0.068 S 
ATOM      6  N   UNL     1       3.785   4.810   0.046  0.00  0.00    -0.312 N 
ATOM      7  C   UNL     1       3.087   4.647   1.221  0.00  0.00    +0.016 C 
ATOM      8  C   UNL     1       1.852   4.103   1.245  0.00  0.00    +0.024 C 
ATOM      9  C   UNL     1       1.145   3.598   0.010  0.00  0.00    +0.088 C 
ATOM     10  C   UNL     1       1.151   3.981   2.462  0.00  0.00    +0.162 C 
ATOM     11  O   UNL     1       0.044   3.479   2.459  0.00  0.00    -0.292 OA
ATOM     12  C   UNL     1       1.735   4.456   3.761  0.00  0.00    +0.080 C 
ATOM     13  C   UNL     1       2.706   5.608   3.481  0.00  0.00    +0.014 C 
ATOM     14  C   UNL     1       3.761   5.113   2.489  0.00  0.00    +0.051 C 
ATOM     15  H   UNL     1       4.734   5.009   0.051  0.00  0.00    +0.152 HD
ENDROOT
BRANCH   9  16
ATOM     16  C   UNL     1       1.170   2.092   0.002  0.00  0.00    -0.028 A 
ATOM     17  C   UNL     1      -0.017   1.382   0.010  0.00  0.00    +0.054 A 
ATOM     18  C   UNL     1       0.002  -0.004   0.002  0.00  0.00    +0.165 A 
ATOM     19  C   UNL     1       1.216  -0.681  -0.013  0.00  0.00    +0.204 A 
ATOM     20  C   UNL     1       2.407   0.036  -0.021  0.00  0.00    +0.165 A 
ATOM     21  C   UNL     1       2.379   1.423  -0.013  0.00  0.00    +0.054 A 
BRANCH  20  22
ATOM     22  O   UNL     1       3.597  -0.621  -0.035  0.00  0.00    -0.491 OA
ATOM     23  C   UNL     1       4.780   0.180  -0.042  0.00  0.00    +0.277 C 
ENDBRANCH  20  22
BRANCH  19  24
ATOM     24  O   UNL     1       1.239  -2.041  -0.020  0.00  0.00    -0.488 OA
ATOM     25  C   UNL     1       1.237  -2.684  -1.297  0.00  0.00    +0.277 C 
ENDBRANCH  19  24
BRANCH  18  26
ATOM     26  O   UNL     1      -1.166  -0.701   0.009  0.00  0.00    -0.491 OA
ATOM     27  C   UNL     1      -2.375   0.060   0.024  0.00  0.00    +0.277 C 
ENDBRANCH  18  26
ENDBRANCH   9  16
BRANCH   1  29
ATOM     28  C   UNL     1       2.639   5.252  -5.934  0.00  0.00    +0.092 C 
ATOM     29  C   UNL     1       1.679   4.653  -4.939  0.00  0.00    +0.168 C 
ATOM     30  O   UNL     1       0.604   4.224  -5.313  0.00  0.00    -0.292 OA
ENDBRANCH   1  29
BRANCH   2  31
ATOM     31  N   UNL     1       0.022   3.538  -2.719  0.00  0.00    -0.357 N 
ATOM     32  H   UNL     1      -0.353   3.513  -3.613  0.00  0.00    +0.142 HD
ATOM     33  H   UNL     1      -0.483   3.186  -1.970  0.00  0.00    +0.142 HD
ENDBRANCH   2  31
TORSDOF 6
