REMARK  Name = ZINC37442804
REMARK  10 active torsions:
REMARK  status: ('A' for Active; 'I' for Inactive)
REMARK    1  A    between atoms: C_1  and  C_2
REMARK    2  A    between atoms: C_5  and  C_37
REMARK    3  A    between atoms: N_8  and  C_10
REMARK    4  A    between atoms: C_10  and  C_11
REMARK    5  A    between atoms: C_11  and  C_12
REMARK    6  A    between atoms: C_12  and  N_13
REMARK    7  A    between atoms: C_22  and  C_23
REMARK    8  A    between atoms: C_22  and  C_24
REMARK    9  A    between atoms: N_26  and  C_27
REMARK   10  A    between atoms: C_30  and  C_33
REMARK                            x       y       z     vdW  Elec       q    Type
REMARK                         _______ _______ _______ _____ _____    ______ ____
ROOT
ATOM      1  N   UNL     1       2.207   0.402   6.106  0.00  0.00    -0.281 N 
ATOM      2  C   UNL     1       2.650   1.608   6.532  0.00  0.00    +0.264 C 
ATOM      3  O   UNL     1       3.417   2.281   5.868  0.00  0.00    -0.268 OA
ATOM      4  C   UNL     1       2.155   2.059   7.838  0.00  0.00    +0.106 A 
ATOM      5  C   UNL     1       2.266   3.268   8.460  0.00  0.00    +0.048 A 
ATOM      6  C   UNL     1       1.603   3.164   9.677  0.00  0.00    +0.038 A 
ATOM      7  C   UNL     1       1.076   1.871   9.816  0.00  0.00    +0.057 A 
ATOM      8  N   UNL     1       1.440   1.199   8.664  0.00  0.00    -0.333 N 
ATOM      9  C   UNL     1       1.175  -0.193   8.289  0.00  0.00    +0.157 C 
ATOM     10  C   UNL     1       1.105  -0.293   6.762  0.00  0.00    +0.128 C 
ATOM     11  C   UNL     1       1.144  -1.770   6.362  0.00  0.00    +0.043 C 
ATOM     12  C   UNL     1       0.373   1.628  11.005  0.00  0.00    +0.034 A 
ATOM     13  C   UNL     1       0.240   2.604  11.928  0.00  0.00    +0.048 A 
ATOM     14  S   UNL     1       1.113   3.970  11.180  0.00  0.00    -0.095 S 
ENDROOT
BRANCH  10  15
ATOM     15  C   UNL     1      -0.196   0.302   6.289  0.00  0.00    +0.238 C 
ATOM     16  O   UNL     1      -1.171  -0.406   6.148  0.00  0.00    -0.273 OA
ATOM     17  N   UNL     1      -0.277   1.621   6.024  0.00  0.00    -0.311 N 
ATOM     18  H   UNL     1       0.503   2.187   6.137  0.00  0.00    +0.149 HD
BRANCH  17  19
ATOM     19  C   UNL     1      -1.541   2.200   5.564  0.00  0.00    +0.073 C 
ATOM     20  C   UNL     1      -1.656   2.037   4.047  0.00  0.00    +0.022 C 
ATOM     21  C   UNL     1      -2.977   2.641   3.567  0.00  0.00    +0.005 C 
ATOM     22  C   UNL     1      -3.017   4.128   3.925  0.00  0.00    -0.014 C 
ATOM     23  C   UNL     1      -2.902   4.291   5.442  0.00  0.00    +0.005 C 
ATOM     24  C   UNL     1      -1.581   3.687   5.922  0.00  0.00    +0.022 C 
ATOM     25  C   UNL     1      -4.338   4.733   3.445  0.00  0.00    +0.007 C 
ENDBRANCH  17  19
ENDBRANCH  10  15
BRANCH   1  26
ATOM     26  C   UNL     1       2.850  -0.222   4.947  0.00  0.00    +0.107 C 
BRANCH  26  27
ATOM     27  C   UNL     1       2.136   0.221   3.668  0.00  0.00    +0.000 C 
BRANCH  27  28
ATOM     28  C   UNL     1       2.808  -0.431   2.458  0.00  0.00    -0.077 C 
BRANCH  28  34
ATOM     29  C   UNL     1      -0.019   1.526   0.010  0.00  0.00    +0.005 C 
ATOM     30  C   UNL     1       0.002  -0.004   0.002  0.00  0.00    -0.031 C 
ATOM     31  C   UNL     1       0.721  -0.499  -1.257  0.00  0.00    +0.003 C 
ATOM     32  C   UNL     1       2.177  -0.027  -1.220  0.00  0.00    -0.031 C 
ATOM     33  C   UNL     1       2.839  -0.534   0.063  0.00  0.00    -0.076 C 
ATOM     34  N   UNL     1       2.123  -0.005   1.230  0.00  0.00    +0.380 N 
ATOM     35  C   UNL     1       0.744  -0.512   1.240  0.00  0.00    -0.076 C 
ATOM     36  C   UNL     1       2.924  -0.581  -2.434  0.00  0.00    +0.005 C 
ATOM     37  H   UNL     1       2.109   1.003   1.187  0.00  0.00    -0.082 HD
ENDBRANCH  28  34
ENDBRANCH  27  28
ENDBRANCH  26  27
ENDBRANCH   1  26
TORSDOF 6
