REMARK  Name = ZINC01419615
REMARK  11 active torsions:
REMARK  status: ('A' for Active; 'I' for Inactive)
REMARK    1  A    between atoms: C_1  and  N_2
REMARK    2  A    between atoms: N_2  and  C_3
REMARK    3  A    between atoms: N_2  and  C_4
REMARK    4  A    between atoms: C_7  and  N_10
REMARK    5  A    between atoms: C_11  and  C_13
REMARK    6  A    between atoms: C_13  and  C_15
REMARK    7  A    between atoms: C_13  and  N_24
REMARK    8  A    between atoms: N_24  and  C_25
REMARK    9  A    between atoms: C_25  and  C_26
REMARK   10  A    between atoms: C_32  and  C_34
REMARK   11  A    between atoms: C_34  and  C_35
REMARK                            x       y       z     vdW  Elec       q    Type
REMARK                         _______ _______ _______ _____ _____    ______ ____
ROOT
ATOM      1  C   UNL     1      -5.969  -0.842   1.452  0.00  0.00    +0.193 C 
ENDROOT
BRANCH   1   2
ATOM      2  C   UNL     1      -6.415  -1.073   2.873  0.00  0.00    -0.014 A 
ATOM      3  C   UNL     1      -7.710  -0.767   3.248  0.00  0.00    +0.010 A 
ATOM      4  C   UNL     1      -8.124  -0.977   4.550  0.00  0.00    +0.050 A 
ATOM      5  C   UNL     1      -7.241  -1.497   5.483  0.00  0.00    +0.166 A 
ATOM      6  C   UNL     1      -5.936  -1.806   5.105  0.00  0.00    +0.167 A 
ATOM      7  C   UNL     1      -5.530  -1.597   3.797  0.00  0.00    +0.055 A 
ATOM      8  O   UNL     1      -5.272  -2.296   6.192  0.00  0.00    -0.453 OA
ATOM      9  C   UNL     1      -6.058  -1.904   7.333  0.00  0.00    +0.466 C 
ATOM     10  O   UNL     1      -7.394  -1.794   6.806  0.00  0.00    -0.453 OA
ENDBRANCH   1   2
BRANCH   1  12
ATOM     11  N   UNL     1      -4.569   1.192   1.306  0.00  0.00    -0.284 N 
ATOM     12  C   UNL     1      -5.793   0.636   1.215  0.00  0.00    +0.242 C 
ATOM     13  O   UNL     1      -6.753   1.325   0.943  0.00  0.00    -0.273 OA
ATOM     14  H   UNL     1      -3.785   0.627   1.396  0.00  0.00    +0.155 HD
BRANCH  11  18
ATOM     15  C   UNL     1      -4.148   5.340   1.198  0.00  0.00    +0.029 A 
ATOM     16  C   UNL     1      -5.060   4.756   2.067  0.00  0.00    +0.025 A 
ATOM     17  C   UNL     1      -5.200   3.383   2.103  0.00  0.00    +0.025 A 
ATOM     18  C   UNL     1      -4.427   2.585   1.269  0.00  0.00    +0.034 A 
ATOM     19  C   UNL     1      -3.515   3.168   0.400  0.00  0.00    +0.025 A 
ATOM     20  C   UNL     1      -3.380   4.542   0.359  0.00  0.00    +0.025 A 
BRANCH  15  22
ATOM     21  C   UNL     1      -3.049   7.346   0.240  0.00  0.00    +0.129 C 
ATOM     22  N   UNL     1      -4.007   6.731   1.161  0.00  0.00    -0.336 N 
ATOM     23  C   UNL     1      -4.817   7.573   2.046  0.00  0.00    +0.129 C 
ENDBRANCH  15  22
ENDBRANCH  11  18
ENDBRANCH   1  12
BRANCH   1  24
ATOM     24  N   UNL     1      -6.980  -1.367   0.531  0.00  0.00    -0.281 N 
ATOM     25  C   UNL     1      -6.764  -2.530  -0.115  0.00  0.00    +0.221 C 
ATOM     26  O   UNL     1      -5.772  -3.184   0.129  0.00  0.00    -0.275 OA
BRANCH  24  27
ATOM     27  C   UNL     1      -8.227  -0.629   0.313  0.00  0.00    +0.144 C 
BRANCH  27  28
ATOM     28  C   UNL     1      -8.302  -0.184  -1.124  0.00  0.00    -0.030 A 
ATOM     29  C   UNL     1      -7.179  -0.250  -1.928  0.00  0.00    +0.005 A 
ATOM     30  C   UNL     1      -7.248   0.158  -3.247  0.00  0.00    +0.000 A 
ATOM     31  C   UNL     1      -8.440   0.633  -3.762  0.00  0.00    +0.000 A 
ATOM     32  C   UNL     1      -9.563   0.698  -2.958  0.00  0.00    +0.000 A 
ATOM     33  C   UNL     1      -9.495   0.286  -1.641  0.00  0.00    +0.005 A 
ENDBRANCH  27  28
ENDBRANCH  24  27
BRANCH  25  34
ATOM     34  C   UNL     1      -7.754  -3.017  -1.142  0.00  0.00    +0.131 C 
BRANCH  34  35
ATOM     35  C   UNL     1      -7.404  -4.425  -1.550  0.00  0.00    -0.039 A 
ATOM     36  C   UNL     1      -6.541  -4.643  -2.608  0.00  0.00    +0.004 A 
ATOM     37  C   UNL     1      -6.220  -5.935  -2.982  0.00  0.00    +0.000 A 
ATOM     38  C   UNL     1      -6.760  -7.007  -2.297  0.00  0.00    +0.000 A 
ATOM     39  C   UNL     1      -7.622  -6.789  -1.239  0.00  0.00    +0.000 A 
ATOM     40  C   UNL     1      -7.940  -5.497  -0.862  0.00  0.00    +0.004 A 
ENDBRANCH  34  35
ENDBRANCH  25  34
ENDBRANCH   1  24
TORSDOF 9
