REMARK  Name = ZINC16754368
REMARK  5 active torsions:
REMARK  status: ('A' for Active; 'I' for Inactive)
REMARK    1  A    between atoms: N_11  and  C_15
REMARK    2  A    between atoms: C_15  and  C_16
REMARK    3  A    between atoms: C_16  and  C_17
REMARK    4  A    between atoms: C_17  and  C_18
REMARK    5  A    between atoms: N_20  and  C_21
REMARK                            x       y       z     vdW  Elec       q    Type
REMARK                         _______ _______ _______ _____ _____    ______ ____
ROOT
ATOM      1  C   UNL     1      -0.007   1.095   0.012  0.00  0.00    +0.001 A 
ATOM      2  C   UNL     1       1.177   1.808   0.011  0.00  0.00    +0.004 A 
ATOM      3  C   UNL     1       1.151   3.188   0.024  0.00  0.00    +0.046 A 
ATOM      4  C   UNL     1      -0.065   3.865   0.038  0.00  0.00    +0.124 A 
ATOM      5  C   UNL     1      -1.249   3.147   0.041  0.00  0.00    +0.003 A 
ATOM      6  C   UNL     1      -1.216   1.763   0.022  0.00  0.00    +0.008 A 
ATOM      7  C   UNL     1      -2.582   3.845   0.063  0.00  0.00    +0.069 C 
ATOM      8  C   UNL     1      -3.582   3.118  -0.763  0.00  0.00    +0.033 A 
ATOM      9  C   UNL     1      -4.105   3.447  -1.964  0.00  0.00    +0.090 A 
ATOM     10  N   UNL     1      -5.019   2.567  -2.490  0.00  0.00    -0.297 N 
ATOM     11  C   UNL     1      -5.352   1.448  -1.816  0.00  0.00    +0.292 A 
ATOM     12  O   UNL     1      -6.136   0.570  -2.132  0.00  0.00    -0.259 OA
ATOM     13  S   UNL     1      -4.381   1.576  -0.384  0.00  0.00    -0.030 S 
ATOM     14  S   UNL     1      -3.606   4.950  -2.779  0.00  0.00    -0.106 S 
ATOM     15  C   UNL     1      -2.121   5.422  -1.845  0.00  0.00    +0.083 C 
ATOM     16  C   UNL     1      -2.424   5.303  -0.347  0.00  0.00    +0.049 C 
ATOM     17  C   UNL     1      -1.247   5.901   0.438  0.00  0.00    +0.234 C 
ATOM     18  O   UNL     1      -0.053   5.223   0.045  0.00  0.00    -0.491 OA
ENDROOT
BRANCH  10  19
ATOM     19  C   UNL     1      -5.635   2.845  -3.790  0.00  0.00    +0.127 C 
BRANCH  19  20
ATOM     20  C   UNL     1      -6.915   3.657  -3.585  0.00  0.00    +0.031 C 
BRANCH  20  21
ATOM     21  C   UNL     1      -7.558   3.948  -4.942  0.00  0.00    +0.098 C 
BRANCH  21  22
ATOM     22  C   UNL     1      -8.819   4.747  -4.740  0.00  0.00    +0.217 C 
ATOM     23  O   UNL     1      -9.170   5.054  -3.620  0.00  0.00    -0.275 OA
ATOM     24  N   UNL     1      -9.558   5.121  -5.803  0.00  0.00    -0.285 N 
ATOM     25  H   UNL     1      -9.244   4.934  -6.702  0.00  0.00    +0.155 HD
BRANCH  24  26
ATOM     26  C   UNL     1     -10.779   5.779  -5.611  0.00  0.00    +0.034 A 
ATOM     27  C   UNL     1     -11.837   5.550  -6.481  0.00  0.00    +0.026 A 
ATOM     28  C   UNL     1     -13.042   6.196  -6.286  0.00  0.00    +0.040 A 
ATOM     29  C   UNL     1     -13.192   7.080  -5.231  0.00  0.00    +0.124 A 
ATOM     30  C   UNL     1     -12.137   7.315  -4.366  0.00  0.00    +0.040 A 
ATOM     31  C   UNL     1     -10.932   6.667  -4.554  0.00  0.00    +0.026 A 
ATOM     32  F   UNL     1     -14.370   7.715  -5.045  0.00  0.00    -0.205 F 
ENDBRANCH  24  26
ENDBRANCH  21  22
ENDBRANCH  20  21
ENDBRANCH  19  20
ENDBRANCH  10  19
TORSDOF 5
