REMARK  Name = ZINC46583187
REMARK  7 active torsions:
REMARK  status: ('A' for Active; 'I' for Inactive)
REMARK    1  A    between atoms: C_11  and  C_32
REMARK    2  A    between atoms: C_14  and  C_16
REMARK    3  A    between atoms: C_16  and  N_17
REMARK    4  A    between atoms: N_17  and  C_18
REMARK    5  A    between atoms: N_17  and  C_29
REMARK    6  A    between atoms: C_18  and  C_19
REMARK    7  A    between atoms: C_22  and  C_25
REMARK                            x       y       z     vdW  Elec       q    Type
REMARK                         _______ _______ _______ _____ _____    ______ ____
ROOT
ATOM      1  C   UNL     1      -0.152   0.908  -0.016  0.00  0.00    +0.002 A 
ATOM      2  C   UNL     1       0.986   1.692   0.025  0.00  0.00    +0.002 A 
ATOM      3  C   UNL     1       2.238   1.104   0.026  0.00  0.00    +0.025 A 
ATOM      4  C   UNL     1       2.350  -0.276  -0.018  0.00  0.00    +0.058 A 
ATOM      5  C   UNL     1       1.202  -1.066  -0.076  0.00  0.00    +0.055 A 
ATOM      6  C   UNL     1      -0.048  -0.470  -0.065  0.00  0.00    +0.025 A 
ATOM      7  N   UNL     1       1.332  -2.456  -0.178  0.00  0.00    -0.284 N 
ATOM      8  C   UNL     1       2.150  -3.129   0.660  0.00  0.00    +0.219 C 
ATOM      9  O   UNL     1       2.320  -4.321   0.509  0.00  0.00    -0.275 OA
ATOM     10  C   UNL     1       2.853  -2.410   1.781  0.00  0.00    +0.128 C 
ATOM     11  C   UNL     1       4.022  -1.593   1.231  0.00  0.00    +0.194 C 
ATOM     12  N   UNL     1       3.610  -0.892   0.014  0.00  0.00    -0.259 N 
ATOM     13  C   UNL     1       4.425  -0.841  -1.058  0.00  0.00    +0.204 C 
ATOM     14  O   UNL     1       5.512  -1.377  -1.019  0.00  0.00    -0.277 OA
ATOM     15  H   UNL     1       0.832  -2.939  -0.854  0.00  0.00    +0.155 HD
ENDROOT
BRANCH  11  16
ATOM     16  C   UNL     1       4.465  -0.570   2.278  0.00  0.00    +0.409 C 
ATOM     17  F   UNL     1       4.868  -1.237   3.440  0.00  0.00    -0.169 F 
ATOM     18  F   UNL     1       5.535   0.179   1.776  0.00  0.00    -0.169 F 
ATOM     19  F   UNL     1       3.398   0.284   2.577  0.00  0.00    -0.169 F 
ENDBRANCH  11  16
BRANCH  13  20
ATOM     20  C   UNL     1       3.987  -0.116  -2.304  0.00  0.00    +0.020 C 
BRANCH  20  21
ATOM     21  N   UNL     1       5.045  -0.204  -3.320  0.00  0.00    +0.390 N 
ATOM     22  H   UNL     1       5.279  -1.172  -3.478  0.00  0.00    -0.080 HD
BRANCH  21  23
ATOM     23  C   UNL     1       6.236   0.517  -2.849  0.00  0.00    -0.068 C 
ATOM     24  C   UNL     1       7.510  -0.298  -2.619  0.00  0.00    -0.017 C 
ATOM     25  C   UNL     1       7.412   0.646  -3.819  0.00  0.00    -0.017 C 
ENDBRANCH  21  23
BRANCH  21  26
ATOM     26  C   UNL     1       4.572   0.398  -4.574  0.00  0.00    -0.042 C 
BRANCH  26  27
ATOM     27  C   UNL     1       3.441  -0.428  -5.131  0.00  0.00    -0.064 A 
ATOM     28  C   UNL     1       3.713  -1.544  -5.900  0.00  0.00    +0.002 A 
ATOM     29  C   UNL     1       2.676  -2.301  -6.411  0.00  0.00    +0.012 A 
ATOM     30  C   UNL     1       1.366  -1.942  -6.153  0.00  0.00    +0.055 A 
ATOM     31  C   UNL     1       1.094  -0.826  -5.384  0.00  0.00    +0.012 A 
ATOM     32  C   UNL     1       2.131  -0.072  -4.869  0.00  0.00    +0.002 A 
BRANCH  30  33
ATOM     33  C   UNL     1       0.235  -2.767  -6.712  0.00  0.00    +0.417 C 
ATOM     34  F   UNL     1      -0.106  -3.770  -5.798  0.00  0.00    -0.166 F 
ATOM     35  F   UNL     1      -0.874  -1.945  -6.938  0.00  0.00    -0.166 F 
ATOM     36  F   UNL     1       0.636  -3.351  -7.918  0.00  0.00    -0.166 F 
ENDBRANCH  30  33
ENDBRANCH  26  27
ENDBRANCH  21  26
ENDBRANCH  20  21
ENDBRANCH  13  20
TORSDOF 7
