REMARK  Name = ZINC41152945
REMARK  3 active torsions:
REMARK  status: ('A' for Active; 'I' for Inactive)
REMARK    1  A    between atoms: C_3  and  C_8
REMARK    2  A    between atoms: C_10  and  C_13
REMARK    3  A    between atoms: C_13  and  N_18
REMARK                            x       y       z     vdW  Elec       q    Type
REMARK                         _______ _______ _______ _____ _____    ______ ____
ROOT
ATOM      1  C   UNL     1       3.656   2.162  -0.022  0.00  0.00    +0.258 A 
ATOM      2  N   UNL     1       4.863   1.641  -0.041  0.00  0.00    -0.193 NA
ATOM      3  C   UNL     1       5.779   2.612  -0.044  0.00  0.00    +0.161 A 
ATOM      4  N   UNL     1       5.176   3.767  -0.025  0.00  0.00    -0.062 NA
ATOM      5  O   UNL     1       3.781   3.500  -0.017  0.00  0.00    -0.333 OA
ENDROOT
BRANCH   1   8
ATOM      6  C   UNL     1      -0.017   1.379   0.010  0.00  0.00    +0.002 A 
ATOM      7  C   UNL     1       1.167   2.088   0.002  0.00  0.00    +0.013 A 
ATOM      8  C   UNL     1       2.385   1.408  -0.013  0.00  0.00    +0.040 A 
ATOM      9  C   UNL     1       2.398   0.012  -0.021  0.00  0.00    +0.028 A 
ATOM     10  C   UNL     1       1.207  -0.686  -0.013  0.00  0.00    +0.019 A 
ATOM     11  C   UNL     1       0.002  -0.004   0.002  0.00  0.00    +0.015 A 
ATOM     12 BR   UNL     1       1.221  -2.577  -0.024  0.00  0.00    -0.050 Br
ENDBRANCH   1   8
BRANCH   3  13
ATOM     13  C   UNL     1       7.271   2.406  -0.064  0.00  0.00    -0.006 C 
ATOM     14  C   UNL     1       7.720   1.666   1.213  0.00  0.00    -0.005 C 
ATOM     15  C   UNL     1       9.082   2.313   1.569  0.00  0.00    -0.001 C 
ATOM     16  C   UNL     1       8.853   3.805   1.219  0.00  0.00    -0.001 C 
ATOM     17  C   UNL     1       7.992   3.766  -0.060  0.00  0.00    -0.005 C 
BRANCH  13  18
ATOM     18  N   UNL     1       7.657   1.636  -1.254  0.00  0.00    +0.387 N 
ATOM     19  H   UNL     1       7.390   2.144  -2.084  0.00  0.00    -0.089 HD
ATOM     20  H   UNL     1       8.655   1.493  -1.253  0.00  0.00    -0.089 HD
ATOM     21  H   UNL     1       7.189   0.742  -1.242  0.00  0.00    -0.089 HD
ENDBRANCH  13  18
ENDBRANCH   3  13
TORSDOF 3
