REMARK  Name = ZINC15016083
REMARK  5 active torsions:
REMARK  status: ('A' for Active; 'I' for Inactive)
REMARK    1  A    between atoms: C_2  and  C_3
REMARK    2  A    between atoms: C_3  and  S_4
REMARK    3  A    between atoms: S_4  and  C_5
REMARK    4  A    between atoms: C_18  and  C_21
REMARK    5  A    between atoms: C_25  and  N_27
REMARK                            x       y       z     vdW  Elec       q    Type
REMARK                         _______ _______ _______ _____ _____    ______ ____
ROOT
ATOM      1  C   UNL     1      -0.553  -2.280   1.411  0.00  0.00    +0.213 A 
ATOM      2  N   UNL     1      -0.946  -3.142   2.345  0.00  0.00    -0.184 NA
ATOM      3  C   UNL     1      -0.893  -4.438   2.091  0.00  0.00    +0.248 A 
ATOM      4  C   UNL     1      -0.414  -4.865   0.832  0.00  0.00    +0.156 A 
ATOM      5  N   UNL     1      -0.041  -3.955  -0.055  0.00  0.00    -0.141 NA
ATOM      6  N   UNL     1      -0.116  -2.701   0.231  0.00  0.00    -0.122 NA
ATOM      7  C   UNL     1      -0.334  -6.310   0.533  0.00  0.00    +0.029 A 
ATOM      8  C   UNL     1      -0.809  -6.832  -0.664  0.00  0.00    +0.027 A 
ATOM      9  C   UNL     1      -0.687  -8.185  -0.919  0.00  0.00    +0.019 A 
ATOM     10  C   UNL     1      -0.094  -9.023   0.010  0.00  0.00    +0.017 A 
ATOM     11  C   UNL     1       0.377  -8.517   1.208  0.00  0.00    +0.025 A 
ATOM     12  C   UNL     1       0.256  -7.167   1.480  0.00  0.00    +0.040 A 
ATOM     13  N   UNL     1       0.707  -6.624   2.688  0.00  0.00    -0.305 N 
ATOM     14  C   UNL     1      -0.276  -6.123   3.644  0.00  0.00    +0.294 C 
ATOM     15  O   UNL     1      -1.289  -5.354   3.007  0.00  0.00    -0.449 OA
ATOM     16 BR   UNL     1      -1.334  -8.896  -2.548  0.00  0.00    -0.050 Br
ATOM     17  H   UNL     1       1.656  -6.581   2.886  0.00  0.00    +0.150 HD
ENDROOT
BRANCH  14  18
ATOM     18  C   UNL     1      -0.916  -7.293   4.347  0.00  0.00    +0.013 A 
ATOM     19  C   UNL     1      -0.160  -8.405   4.667  0.00  0.00    +0.009 A 
ATOM     20  C   UNL     1      -0.747  -9.478   5.312  0.00  0.00    +0.003 A 
ATOM     21  C   UNL     1      -2.091  -9.437   5.637  0.00  0.00    +0.033 A 
ATOM     22  C   UNL     1      -2.846  -8.325   5.317  0.00  0.00    +0.127 A 
ATOM     23  C   UNL     1      -2.257  -7.250   4.677  0.00  0.00    +0.041 A 
BRANCH  22  24
ATOM     24  N   UNL     1      -4.284  -8.282   5.665  0.00  0.00    +0.056 N 
ATOM     25  O   UNL     1      -4.802  -9.227   6.233  0.00  0.00    -0.126 OA
ATOM     26  O   UNL     1      -4.950  -7.302   5.383  0.00  0.00    -0.126 OA
ENDBRANCH  22  24
ENDBRANCH  14  18
BRANCH   1  27
ATOM     27  S   UNL     1      -0.621  -0.551   1.744  0.00  0.00    -0.080 S 
BRANCH  27  28
ATOM     28  C   UNL     1       0.011   0.096   0.176  0.00  0.00    +0.104 C 
BRANCH  28  30
ATOM     29  C   UNL     1       1.189   2.234   0.179  0.00  0.00    +0.005 C 
ATOM     30  C   UNL     1       0.043   1.601   0.230  0.00  0.00    -0.023 C 
ENDBRANCH  28  30
ENDBRANCH  27  28
ENDBRANCH   1  27
TORSDOF 5
