REMARK  Name = ZINC22802308
REMARK  9 active torsions:
REMARK  status: ('A' for Active; 'I' for Inactive)
REMARK    1  A    between atoms: C_4  and  C_7
REMARK    2  A    between atoms: C_7  and  N_8
REMARK    3  A    between atoms: N_11  and  C_14
REMARK    4  A    between atoms: C_14  and  C_15
REMARK    5  A    between atoms: C_15  and  C_16
REMARK    6  A    between atoms: C_16  and  N_17
REMARK    7  A    between atoms: C_18  and  C_20
REMARK    8  A    between atoms: N_31  and  C_33
REMARK    9  A    between atoms: C_33  and  C_34
REMARK                            x       y       z     vdW  Elec       q    Type
REMARK                         _______ _______ _______ _____ _____    ______ ____
ROOT
ATOM      1  N   UNL     1       5.857   0.694  -0.891  0.00  0.00    -0.315 N 
ATOM      2  C   UNL     1       4.712   0.691  -0.180  0.00  0.00    +0.220 C 
ATOM      3  O   UNL     1       4.744   0.529   1.021  0.00  0.00    -0.275 OA
ATOM      4  H   UNL     1       5.828   0.841  -1.981  0.00  0.00    +0.149 HD
ENDROOT
BRANCH   2   5
ATOM      5  C   UNL     1       3.392   0.888  -0.879  0.00  0.00    +0.122 C 
ATOM      6  C   UNL     1       3.060  -0.328  -1.803  0.00  0.00    +0.155 C 
ATOM      7  C   UNL     1       3.185  -1.589  -0.941  0.00  0.00    +0.004 C 
ATOM      8  C   UNL     1       2.104  -1.601  -0.121  0.00  0.00    +0.008 C 
ATOM      9  C   UNL     1       1.384  -0.345  -0.461  0.00  0.00    +0.116 C 
ATOM     10  C   UNL     1       2.226   0.848   0.125  0.00  0.00    +0.127 C 
ATOM     11  C   UNL     1       1.244   1.978   0.001  0.00  0.00    +0.223 C 
ATOM     12  O   UNL     1       1.533   3.152  -0.094  0.00  0.00    -0.275 OA
ATOM     13  N   UNL     1      -0.018   1.478   0.010  0.00  0.00    -0.294 N 
ATOM     14  C   UNL     1       0.002  -0.004   0.002  0.00  0.00    +0.148 C 
ATOM     15  O   UNL     1       1.596  -0.189  -1.890  0.00  0.00    -0.359 OA
BRANCH  13  16
ATOM     16  C   UNL     1      -1.235   2.294   0.021  0.00  0.00    +0.144 C 
BRANCH  16  17
ATOM     17  C   UNL     1      -1.646   2.566   1.445  0.00  0.00    -0.012 A 
ATOM     18  C   UNL     1      -2.657   1.824   2.026  0.00  0.00    +0.006 A 
ATOM     19  C   UNL     1      -3.030   2.070   3.334  0.00  0.00    +0.000 A 
ATOM     20  C   UNL     1      -2.400   3.065   4.059  0.00  0.00    +0.001 A 
ATOM     21  C   UNL     1      -1.392   3.810   3.477  0.00  0.00    +0.020 A 
ATOM     22  C   UNL     1      -1.014   3.561   2.169  0.00  0.00    +0.046 A 
ATOM     23 CL   UNL     1       0.251   4.497   1.437  0.00  0.00    -0.083 Cl
ENDBRANCH  16  17
ENDBRANCH  13  16
ENDBRANCH   2   5
BRANCH   1  24
ATOM     24  C   UNL     1       7.141   0.502  -0.212  0.00  0.00    +0.102 C 
BRANCH  24  25
ATOM     25  C   UNL     1       8.274   0.548  -1.239  0.00  0.00    +0.000 C 
BRANCH  25  26
ATOM     26  C   UNL     1       9.615   0.347  -0.530  0.00  0.00    -0.077 C 
BRANCH  26  30
ATOM     27  N   UNL     1      13.033  -0.576  -2.834  0.00  0.00    -0.302 NA
ATOM     28  C   UNL     1      13.112   0.566  -1.912  0.00  0.00    +0.066 C 
ATOM     29  C   UNL     1      12.013   0.440  -0.854  0.00  0.00    -0.063 C 
ATOM     30  N   UNL     1      10.702   0.391  -1.517  0.00  0.00    +0.381 N 
ATOM     31  C   UNL     1      10.623  -0.750  -2.439  0.00  0.00    -0.063 C 
ATOM     32  C   UNL     1      11.723  -0.625  -3.497  0.00  0.00    +0.066 C 
ATOM     33  H   UNL     1      10.585   1.313  -2.106  0.00  0.00    -0.082 HD
BRANCH  27  34
ATOM     34  C   UNL     1      14.121  -0.532  -3.821  0.00  0.00    +0.119 C 
BRANCH  34  38
ATOM     35  C   UNL     1      13.416  -3.461  -6.849  0.00  0.00    +0.000 A 
ATOM     36  C   UNL     1      12.918  -2.179  -6.997  0.00  0.00    +0.000 A 
ATOM     37  C   UNL     1      13.146  -1.232  -6.017  0.00  0.00    +0.005 A 
ATOM     38  C   UNL     1      13.872  -1.565  -4.889  0.00  0.00    -0.033 A 
ATOM     39  C   UNL     1      14.375  -2.845  -4.744  0.00  0.00    +0.005 A 
ATOM     40  C   UNL     1      14.142  -3.794  -5.721  0.00  0.00    +0.000 A 
ENDBRANCH  34  38
ENDBRANCH  27  34
ENDBRANCH  26  30
ENDBRANCH  25  26
ENDBRANCH  24  25
ENDBRANCH   1  24
TORSDOF 9
