REMARK  Name = ZINC39695128
REMARK  6 active torsions:
REMARK  status: ('A' for Active; 'I' for Inactive)
REMARK    1  A    between atoms: C_1  and  C_2
REMARK    2  A    between atoms: C_3  and  C_9
REMARK    3  A    between atoms: C_9  and  N_10
REMARK    4  A    between atoms: C_11  and  C_13
REMARK    5  A    between atoms: C_24  and  C_26
REMARK    6  A    between atoms: C_29  and  C_31
REMARK                            x       y       z     vdW  Elec       q    Type
REMARK                         _______ _______ _______ _____ _____    ______ ____
ROOT
ATOM      1  C   UNL     1       2.959   1.739  -4.246  0.00  0.00    +0.100 C 
ATOM      2  C   UNL     1       3.394   2.822  -3.233  0.00  0.00    +0.121 C 
ATOM      3  N   UNL     1       4.169   3.797  -4.036  0.00  0.00    -0.294 N 
ATOM      4  C   UNL     1       3.429   3.891  -5.317  0.00  0.00    +0.115 C 
ATOM      5  C   UNL     1       2.983   2.445  -5.612  0.00  0.00    -0.004 C 
ATOM      6  C   UNL     1       3.983   1.764  -6.542  0.00  0.00    -0.010 C 
ATOM      7  C   UNL     1       3.947   2.447  -7.912  0.00  0.00    -0.082 C 
ATOM      8  N   UNL     1       2.592   2.359  -8.469  0.00  0.00    +0.379 N 
ATOM      9  C   UNL     1       1.651   3.095  -7.617  0.00  0.00    -0.082 C 
ATOM     10  C   UNL     1       1.590   2.439  -6.234  0.00  0.00    -0.010 C 
ATOM     11  C   UNL     1       5.293   4.450  -3.682  0.00  0.00    +0.282 C 
ATOM     12  O   UNL     1       5.817   5.227  -4.460  0.00  0.00    -0.267 OA
ATOM     13  H   UNL     1       2.584   2.756  -9.397  0.00  0.00    -0.086 HD
ATOM     14  H   UNL     1       2.312   1.391  -8.518  0.00  0.00    -0.086 HD
ENDROOT
BRANCH  11  15
ATOM     15  C   UNL     1       5.886   4.226  -2.361  0.00  0.00    +0.190 A 
ATOM     16  C   UNL     1       7.024   4.829  -1.872  0.00  0.00    +0.055 A 
ATOM     17  C   UNL     1       7.224   4.327  -0.582  0.00  0.00    +0.050 A 
ATOM     18  C   UNL     1       6.212   3.445  -0.333  0.00  0.00    +0.136 A 
ATOM     19  O   UNL     1       5.409   3.397  -1.409  0.00  0.00    -0.450 OA
BRANCH  18  20
ATOM     20  C   UNL     1       6.027   2.676   0.915  0.00  0.00    +0.017 A 
ATOM     21  C   UNL     1       6.930   2.825   1.970  0.00  0.00    +0.011 A 
ATOM     22  C   UNL     1       6.751   2.104   3.133  0.00  0.00    +0.001 A 
ATOM     23  C   UNL     1       5.681   1.236   3.255  0.00  0.00    +0.000 A 
ATOM     24  C   UNL     1       4.783   1.084   2.212  0.00  0.00    +0.001 A 
ATOM     25  C   UNL     1       4.946   1.802   1.046  0.00  0.00    +0.011 A 
ENDBRANCH  18  20
ENDBRANCH  11  15
BRANCH   1  27
ATOM     26  N   UNL     1       1.203  -0.003  -4.256  0.00  0.00    -0.311 N 
ATOM     27  C   UNL     1       1.568   1.253  -3.930  0.00  0.00    +0.218 C 
ATOM     28  O   UNL     1       0.778   1.992  -3.383  0.00  0.00    -0.275 OA
ATOM     29  H   UNL     1       1.836  -0.594  -4.694  0.00  0.00    +0.149 HD
BRANCH  26  30
ATOM     30  C   UNL     1      -0.149  -0.475  -3.949  0.00  0.00    +0.139 C 
BRANCH  30  33
ATOM     31  C   UNL     1       0.894  -2.635  -2.338  0.00  0.00    +0.045 C 
ATOM     32  C   UNL     1       0.199  -2.935  -3.641  0.00  0.00    -0.027 A 
ATOM     33  C   UNL     1      -0.300  -1.901  -4.412  0.00  0.00    -0.026 A 
ATOM     34  C   UNL     1      -0.938  -2.176  -5.607  0.00  0.00    +0.005 A 
ATOM     35  C   UNL     1      -1.077  -3.484  -6.032  0.00  0.00    +0.002 A 
ATOM     36  C   UNL     1      -0.579  -4.518  -5.262  0.00  0.00    +0.020 A 
ATOM     37  C   UNL     1       0.065  -4.243  -4.068  0.00  0.00    +0.044 A 
ATOM     38 CL   UNL     1       0.697  -5.541  -3.104  0.00  0.00    -0.083 Cl
ENDBRANCH  30  33
ENDBRANCH  26  30
ENDBRANCH   1  27
TORSDOF 5
