REMARK  Name = ZINC20214423
REMARK  11 active torsions:
REMARK  status: ('A' for Active; 'I' for Inactive)
REMARK    1  A    between atoms: C_1  and  C_2
REMARK    2  A    between atoms: C_2  and  O_3
REMARK    3  A    between atoms: O_3  and  C_4
REMARK    4  A    between atoms: C_4  and  C_6
REMARK    5  A    between atoms: C_7  and  C_24
REMARK    6  A    between atoms: C_12  and  C_14
REMARK    7  A    between atoms: C_17  and  O_20
REMARK    8  A    between atoms: O_20  and  C_21
REMARK    9  A    between atoms: C_21  and  C_22
REMARK   10  A    between atoms: C_21  and  C_23
REMARK   11  A    between atoms: C_24  and  N_25
REMARK                            x       y       z     vdW  Elec       q    Type
REMARK                         _______ _______ _______ _____ _____    ______ ____
ROOT
ATOM      1  C   UNL     1      -1.130   3.168  -0.225  0.00  0.00    +0.080 C 
ATOM      2  C   UNL     1      -1.158   1.819  -0.171  0.00  0.00    +0.041 C 
ATOM      3  N   UNL     1      -0.006   1.094  -0.063  0.00  0.00    -0.271 N 
ATOM      4  C   UNL     1       1.215   1.642  -0.014  0.00  0.00    +0.304 C 
ATOM      5  O   UNL     1       2.183   0.913   0.078  0.00  0.00    -0.252 OA
ATOM      6  N   UNL     1       1.405   2.975  -0.064  0.00  0.00    -0.288 N 
ATOM      7  C   UNL     1       0.223   3.848  -0.175  0.00  0.00    +0.144 C 
ATOM      8  H   UNL     1      -0.050  -0.004  -0.011  0.00  0.00    +0.156 HD
ATOM      9  H   UNL     1       2.412   3.416  -0.023  0.00  0.00    +0.151 HD
ENDROOT
BRANCH   7  10
ATOM     10  C   UNL     1       0.227   4.787   1.003  0.00  0.00    -0.022 A 
ATOM     11  C   UNL     1       0.585   4.322   2.256  0.00  0.00    +0.009 A 
ATOM     12  C   UNL     1       0.594   5.183   3.336  0.00  0.00    +0.046 A 
ATOM     13  C   UNL     1       0.233   6.511   3.167  0.00  0.00    +0.121 A 
ATOM     14  C   UNL     1      -0.131   6.974   1.911  0.00  0.00    +0.046 A 
ATOM     15  C   UNL     1      -0.133   6.111   0.832  0.00  0.00    +0.009 A 
BRANCH  13  16
ATOM     16  O   UNL     1       0.236   7.358   4.230  0.00  0.00    -0.489 OA
BRANCH  16  17
ATOM     17  C   UNL     1      -0.098   8.724   3.972  0.00  0.00    +0.167 C 
ATOM     18  C   UNL     1      -0.595   9.379   5.262  0.00  0.00    +0.051 C 
ATOM     19  C   UNL     1       1.142   9.465   3.468  0.00  0.00    +0.051 C 
ENDBRANCH  16  17
ENDBRANCH  13  16
ENDBRANCH   7  10
BRANCH   1  20
ATOM     20  C   UNL     1      -2.323   3.920  -0.332  0.00  0.00    +0.339 C 
ATOM     21  O   UNL     1      -3.402   3.360  -0.290  0.00  0.00    -0.245 OA
BRANCH  20  22
ATOM     22  O   UNL     1      -2.264   5.260  -0.482  0.00  0.00    -0.462 OA
BRANCH  22  24
ATOM     23  C   UNL     1      -3.242   7.455  -0.747  0.00  0.00    +0.048 C 
ATOM     24  C   UNL     1      -3.508   5.957  -0.583  0.00  0.00    +0.229 C 
ENDBRANCH  22  24
ENDBRANCH  20  22
ENDBRANCH   1  20
BRANCH   2  25
ATOM     25  C   UNL     1      -2.483   1.102  -0.224  0.00  0.00    +0.156 C 
BRANCH  25  26
ATOM     26  N   UNL     1      -2.910   0.967  -1.623  0.00  0.00    -0.324 N 
ATOM     27  C   UNL     1      -1.824   0.449  -2.456  0.00  0.00    +0.106 C 
ATOM     28  C   UNL     1      -2.334   0.304  -3.895  0.00  0.00    +0.024 C 
ATOM     29  C   UNL     1      -3.373  -0.819  -3.917  0.00  0.00    +0.038 C 
ATOM     30  C   UNL     1      -4.346  -0.632  -2.780  0.00  0.00    -0.026 A 
ATOM     31  C   UNL     1      -4.080   0.214  -1.718  0.00  0.00    +0.033 A 
ATOM     32  C   UNL     1      -5.013   0.334  -0.686  0.00  0.00    +0.023 A 
ATOM     33  C   UNL     1      -6.191  -0.380  -0.725  0.00  0.00    +0.002 A 
ATOM     34  C   UNL     1      -6.455  -1.220  -1.791  0.00  0.00    +0.000 A 
ATOM     35  C   UNL     1      -5.535  -1.344  -2.813  0.00  0.00    +0.005 A 
ENDBRANCH  25  26
ENDBRANCH   2  25
TORSDOF 8
