REMARK  Name = ZINC23464081
REMARK  7 active torsions:
REMARK  status: ('A' for Active; 'I' for Inactive)
REMARK    1  A    between atoms: C_7  and  C_24
REMARK    2  A    between atoms: C_12  and  C_13
REMARK    3  A    between atoms: C_24  and  O_26
REMARK    4  A    between atoms: O_26  and  C_27
REMARK    5  A    between atoms: C_27  and  C_28
REMARK    6  A    between atoms: N_30  and  C_31
REMARK    7  A    between atoms: C_31  and  C_36
REMARK                            x       y       z     vdW  Elec       q    Type
REMARK                         _______ _______ _______ _____ _____    ______ ____
ROOT
ATOM      1  C   UNL     1       0.007   1.391   0.188  0.00  0.00    +0.001 A 
ATOM      2  C   UNL     1       1.195   2.114   0.111  0.00  0.00    +0.002 A 
ATOM      3  C   UNL     1       2.400   1.484   0.059  0.00  0.00    +0.028 A 
ATOM      4  C   UNL     1       2.453   0.077   0.083  0.00  0.00    +0.072 A 
ATOM      5  C   UNL     1       1.240  -0.653   0.162  0.00  0.00    +0.015 A 
ATOM      6  C   UNL     1       0.020   0.027   0.213  0.00  0.00    +0.011 A 
ATOM      7  C   UNL     1       1.306  -2.114   0.186  0.00  0.00    +0.073 A 
ATOM      8  C   UNL     1       2.563  -2.700   0.131  0.00  0.00    -0.007 A 
ATOM      9  C   UNL     1       3.710  -1.893   0.055  0.00  0.00    +0.072 A 
ATOM     10  N   UNL     1       3.616  -0.567   0.034  0.00  0.00    -0.247 NA
ATOM     11  C   UNL     1       4.921  -2.735   0.007  0.00  0.00    -0.021 C 
ATOM     12  C   UNL     1       6.188  -2.289  -0.068  0.00  0.00    +0.013 C 
ATOM     13  C   UNL     1       4.495  -4.181   0.058  0.00  0.00    +0.042 C 
ATOM     14  C   UNL     1       2.963  -4.155   0.138  0.00  0.00    +0.043 C 
ENDROOT
BRANCH  12  15
ATOM     15  C   UNL     1       7.309  -3.238   0.029  0.00  0.00    -0.021 A 
ATOM     16  C   UNL     1       8.621  -2.765   0.131  0.00  0.00    +0.012 A 
ATOM     17  C   UNL     1       9.669  -3.656   0.221  0.00  0.00    +0.050 A 
ATOM     18  C   UNL     1       9.428  -5.023   0.210  0.00  0.00    +0.166 A 
ATOM     19  C   UNL     1       8.122  -5.502   0.108  0.00  0.00    +0.167 A 
ATOM     20  C   UNL     1       7.065  -4.615   0.024  0.00  0.00    +0.057 A 
ATOM     21  O   UNL     1       8.156  -6.866   0.120  0.00  0.00    -0.453 OA
ATOM     22  C   UNL     1       9.519  -7.219  -0.183  0.00  0.00    +0.466 C 
ATOM     23  O   UNL     1      10.277  -6.088   0.285  0.00  0.00    -0.453 OA
ENDBRANCH  12  15
BRANCH   7  24
ATOM     24  C   UNL     1       0.081  -2.936   0.267  0.00  0.00    +0.341 C 
ATOM     25  O   UNL     1      -0.479  -3.294  -0.749  0.00  0.00    -0.245 OA
BRANCH  24  26
ATOM     26  O   UNL     1      -0.416  -3.288   1.469  0.00  0.00    -0.452 OA
BRANCH  26  27
ATOM     27  C   UNL     1      -1.603  -4.083   1.473  0.00  0.00    +0.328 C 
BRANCH  27  28
ATOM     28  C   UNL     1      -2.007  -4.376   2.895  0.00  0.00    +0.252 C 
ATOM     29  O   UNL     1      -1.343  -3.947   3.815  0.00  0.00    -0.272 OA
ATOM     30  N   UNL     1      -3.106  -5.115   3.145  0.00  0.00    -0.295 N 
ATOM     31  H   UNL     1      -3.637  -5.459   2.409  0.00  0.00    +0.150 HD
BRANCH  30  32
ATOM     32  C   UNL     1      -3.498  -5.401   4.527  0.00  0.00    +0.121 C 
ATOM     33  C   UNL     1      -2.402  -6.230   5.227  0.00  0.00    +0.041 C 
ATOM     34  C   UNL     1      -3.188  -7.212   6.132  0.00  0.00    +0.003 C 
ATOM     35  C   UNL     1      -4.413  -7.577   5.257  0.00  0.00    +0.003 C 
ATOM     36  C   UNL     1      -4.777  -6.257   4.546  0.00  0.00    +0.041 C 
BRANCH  32  37
ATOM     37  C   UNL     1      -3.723  -4.142   5.257  0.00  0.00    +0.088 C 
ATOM     38  N   UNL     1      -3.896  -3.171   5.820  0.00  0.00    -0.194 NA
ENDBRANCH  32  37
ENDBRANCH  30  32
ENDBRANCH  27  28
ENDBRANCH  26  27
ENDBRANCH  24  26
ENDBRANCH   7  24
TORSDOF 7
