REMARK  Name = ZINC63831461
REMARK  7 active torsions:
REMARK  status: ('A' for Active; 'I' for Inactive)
REMARK    1  A    between atoms: C_7  and  C_10
REMARK    2  A    between atoms: C_10  and  C_12
REMARK    3  A    between atoms: C_10  and  C_29
REMARK    4  A    between atoms: C_12  and  N_13
REMARK    5  A    between atoms: N_13  and  S_14
REMARK    6  A    between atoms: S_14  and  C_17
REMARK    7  A    between atoms: C_20  and  N_23
REMARK                            x       y       z     vdW  Elec       q    Type
REMARK                         _______ _______ _______ _____ _____    ______ ____
ROOT
ATOM      1  C   UNL     1       0.915  -4.034   1.214  0.00  0.00    +0.119 C 
ENDROOT
BRANCH   1   2
ATOM      2  N   UNL     1      -0.064  -5.122   1.283  0.00  0.00    -0.189 NA
ATOM      3  H   UNL     1      -0.865  -5.088   0.738  0.00  0.00    +0.148 HD
BRANCH   2   4
ATOM      4  S   UNL     1       0.198  -6.409   2.291  0.00  0.00    +0.058 S 
ATOM      5  O   UNL     1      -0.925  -7.268   2.154  0.00  0.00    -0.153 OA
ATOM      6  O   UNL     1       1.528  -6.849   2.051  0.00  0.00    -0.153 OA
BRANCH   4   7
ATOM      7  C   UNL     1       0.162  -5.793   3.942  0.00  0.00    +0.105 A 
ATOM      8  C   UNL     1       1.328  -5.345   4.537  0.00  0.00    +0.030 A 
ATOM      9  C   UNL     1       1.303  -4.862   5.830  0.00  0.00    +0.025 A 
ATOM     10  C   UNL     1       0.106  -4.825   6.534  0.00  0.00    +0.036 A 
ATOM     11  C   UNL     1      -1.062  -5.275   5.933  0.00  0.00    +0.025 A 
ATOM     12  C   UNL     1      -1.032  -5.753   4.638  0.00  0.00    +0.030 A 
BRANCH  10  13
ATOM     13  N   UNL     1       0.078  -4.337   7.844  0.00  0.00    -0.271 N 
ATOM     14  C   UNL     1      -1.146  -4.150   8.632  0.00  0.00    +0.114 C 
ATOM     15  C   UNL     1      -0.677  -4.026  10.099  0.00  0.00    +0.029 C 
ATOM     16  C   UNL     1       0.769  -3.507   9.925  0.00  0.00    +0.098 C 
ATOM     17  C   UNL     1       1.169  -3.984   8.546  0.00  0.00    +0.220 C 
ATOM     18  O   UNL     1       2.308  -4.037   8.133  0.00  0.00    -0.275 OA
ENDBRANCH  10  13
ENDBRANCH   4   7
ENDBRANCH   2   4
ENDBRANCH   1   2
BRANCH   1  19
ATOM     19  C   UNL     1       0.643  -3.181  -0.027  0.00  0.00    +0.069 C 
BRANCH  19  26
ATOM     20  C   UNL     1      -0.116   1.345   0.009  0.00  0.00    +0.001 A 
ATOM     21  C   UNL     1       1.057   2.111  -0.004  0.00  0.00    +0.002 A 
ATOM     22  C   UNL     1       2.289   1.560  -0.024  0.00  0.00    +0.026 A 
ATOM     23  C   UNL     1       2.443   0.146  -0.033  0.00  0.00    +0.043 A 
ATOM     24  N   UNL     1       3.510  -0.616  -0.053  0.00  0.00    -0.380 N 
ATOM     25  C   UNL     1       3.082  -2.020  -0.054  0.00  0.00    +0.145 C 
ATOM     26  C   UNL     1       1.571  -1.993  -0.033  0.00  0.00    -0.032 C 
ATOM     27  C   UNL     1       1.219  -0.687  -0.020  0.00  0.00    -0.000 A 
ATOM     28  C   UNL     1      -0.082  -0.007   0.001  0.00  0.00    +0.010 A 
ATOM     29  H   UNL     1       4.428  -0.304  -0.065  0.00  0.00    +0.160 HD
ENDBRANCH  19  26
BRANCH  19  30
ATOM     30  C   UNL     1       0.877  -4.006  -1.266  0.00  0.00    -0.002 A 
ATOM     31  C   UNL     1       0.009  -4.319  -2.259  0.00  0.00    +0.012 A 
ATOM     32  C   UNL     1       0.449  -5.100  -3.312  0.00  0.00    +0.008 A 
ATOM     33  C   UNL     1       1.735  -5.530  -3.319  0.00  0.00    +0.045 A 
ATOM     34  S   UNL     1       2.370  -4.820  -1.809  0.00  0.00    -0.101 S 
ENDBRANCH  19  30
ENDBRANCH   1  19
TORSDOF 7
