REMARK  Name = ZINC50701133
REMARK  6 active torsions:
REMARK  status: ('A' for Active; 'I' for Inactive)
REMARK    1  A    between atoms: C_1  and  C_2
REMARK    2  A    between atoms: C_2  and  N_3
REMARK    3  A    between atoms: N_3  and  C_4
REMARK    4  A    between atoms: C_5  and  C_7
REMARK    5  A    between atoms: C_9  and  N_16
REMARK    6  A    between atoms: C_12  and  N_13
REMARK                            x       y       z     vdW  Elec       q    Type
REMARK                         _______ _______ _______ _____ _____    ______ ____
ROOT
ATOM      1  C   UNL     1      -3.353  -1.286   1.055  0.00  0.00    +0.069 A 
ATOM      2  C   UNL     1      -3.872  -1.647  -0.188  0.00  0.00    +0.038 A 
ATOM      3  C   UNL     1      -5.163  -2.143  -0.277  0.00  0.00    +0.025 A 
ATOM      4  C   UNL     1      -5.936  -2.280   0.870  0.00  0.00    +0.025 A 
ATOM      5  C   UNL     1      -5.421  -1.922   2.102  0.00  0.00    +0.035 A 
ATOM      6  C   UNL     1      -4.135  -1.433   2.202  0.00  0.00    +0.138 A 
ENDROOT
BRANCH   1   9
ATOM      7  N   UNL     1      -1.648   0.393   0.535  0.00  0.00    -0.301 N 
ATOM      8  C   UNL     1      -2.683   1.183  -0.137  0.00  0.00    +0.132 C 
ATOM      9  C   UNL     1      -1.976  -0.755   1.159  0.00  0.00    +0.249 C 
ATOM     10  O   UNL     1      -1.141  -1.355   1.807  0.00  0.00    -0.270 OA
BRANCH   7  12
ATOM     11  C   UNL     1      -0.008   1.742   1.749  0.00  0.00    +0.024 C 
ATOM     12  C   UNL     1      -0.257   0.852   0.529  0.00  0.00    +0.104 C 
ENDBRANCH   7  12
ENDBRANCH   1   9
BRANCH   6  13
ATOM     13  N   UNL     1      -3.587  -1.057   3.525  0.00  0.00    +0.057 N 
ATOM     14  O   UNL     1      -4.289  -1.111   4.507  0.00  0.00    -0.126 OA
ATOM     15  O   UNL     1      -2.437  -0.697   3.622  0.00  0.00    -0.126 OA
ENDBRANCH   6  13
BRANCH   3  16
ATOM     16  N   UNL     1      -5.688  -2.506  -1.520  0.00  0.00    -0.358 N 
ATOM     17  H   UNL     1      -5.149  -2.410  -2.321  0.00  0.00    +0.142 HD
ATOM     18  H   UNL     1      -6.591  -2.853  -1.583  0.00  0.00    +0.142 HD
ENDBRANCH   3  16
TORSDOF 4
