REMARK  Name = ZINC06149560
REMARK  13 active torsions:
REMARK  status: ('A' for Active; 'I' for Inactive)
REMARK    1  A    between atoms: C_1  and  C_2
REMARK    2  A    between atoms: C_2  and  C_3
REMARK    3  A    between atoms: C_3  and  C_4
REMARK    4  A    between atoms: C_3  and  C_5
REMARK    5  A    between atoms: C_3  and  N_6
REMARK    6  A    between atoms: C_7  and  C_11
REMARK    7  A    between atoms: C_11  and  C_13
REMARK    8  A    between atoms: C_11  and  N_72
REMARK    9  A    between atoms: C_18  and  C_25
REMARK   10  A    between atoms: C_26  and  C_27
REMARK   11  A    between atoms: C_26  and  N_72
REMARK   12  A    between atoms: C_33  and  C_34
REMARK   13  A    between atoms: C_33  and  N_72
REMARK                            x       y       z     vdW  Elec       q    Type
REMARK                         _______ _______ _______ _____ _____    ______ ____
ROOT
ATOM      1  C   UNL     1       2.315   0.543   0.831  0.00  0.00    +0.040 C 
ENDROOT
BRANCH   1   2
ATOM      2  C   UNL     1       0.833   0.765   0.666  0.00  0.00    +0.011 A 
ATOM      3  C   UNL     1       0.302   0.887  -0.576  0.00  0.00    +0.017 A 
ATOM      4  C   UNL     1      -1.140   1.108  -0.701  0.00  0.00    -0.001 A 
ATOM      5  C   UNL     1      -1.746   1.235  -1.955  0.00  0.00    +0.010 A 
ATOM      6  C   UNL     1      -3.095   1.434  -2.038  0.00  0.00    +0.004 A 
ATOM      7  C   UNL     1      -3.870   1.506  -0.889  0.00  0.00    -0.048 A 
ATOM      8  C   UNL     1      -3.295   1.378   0.357  0.00  0.00    +0.029 A 
ATOM      9  C   UNL     1      -1.923   1.175   0.466  0.00  0.00    +0.049 A 
ATOM     10  N   UNL     1      -1.322   1.043   1.700  0.00  0.00    -0.322 N 
ATOM     11  H   UNL     1      -1.880   1.095   2.528  0.00  0.00    +0.169 HD
ATOM     12  C   UNL     1       0.004   0.846   1.805  0.00  0.00    +0.251 A 
ATOM     13  O   UNL     1       0.502   0.735   2.912  0.00  0.00    -0.268 OA
ATOM     14  C   UNL     1      -5.356   1.727  -1.005  0.00  0.00    +0.044 C 
ENDBRANCH   1   2
BRANCH   1  16
ATOM     15  N   UNL     1       3.469  -0.668  -1.095  0.00  0.00    -0.225 N 
ATOM     16  C   UNL     1       2.961   0.442  -0.527  0.00  0.00    +0.143 A 
ATOM     17  N   UNL     1       3.144   1.419  -1.382  0.00  0.00    -0.115 NA
ATOM     18  N   UNL     1       3.728   0.933  -2.422  0.00  0.00    -0.023 NA
ATOM     19  N   UNL     1       3.923  -0.329  -2.254  0.00  0.00    -0.043 NA
BRANCH  15  20
ATOM     20  C   UNL     1       3.496  -2.011  -0.509  0.00  0.00    +0.061 C 
ATOM     21  C   UNL     1       4.359  -1.997   0.755  0.00  0.00    +0.036 C 
ATOM     22  C   UNL     1       2.072  -2.440  -0.150  0.00  0.00    +0.036 C 
BRANCH  20  24
ATOM     23  C   UNL     1       4.117  -4.398  -0.907  0.00  0.00    +0.006 C 
ATOM     24  C   UNL     1       4.087  -2.996  -1.519  0.00  0.00    +0.026 C 
ENDBRANCH  20  24
ENDBRANCH  15  20
ENDBRANCH   1  16
BRANCH   1  25
ATOM     25  N   UNL     1       2.888   1.671   1.595  0.00  0.00    +0.395 N 
ATOM     26  H   UNL     1       2.443   1.707   2.519  0.00  0.00    -0.079 HD
BRANCH  25  27
ATOM     27  C   UNL     1       2.631   2.943   0.887  0.00  0.00    -0.041 C 
BRANCH  27  28
ATOM     28  C   UNL     1       1.324   3.509   1.380  0.00  0.00    -0.064 A 
ATOM     29  C   UNL     1       0.212   3.497   0.559  0.00  0.00    +0.002 A 
ATOM     30  C   UNL     1      -0.988   4.012   1.013  0.00  0.00    +0.000 A 
ATOM     31  C   UNL     1      -1.073   4.549   2.284  0.00  0.00    +0.000 A 
ATOM     32  C   UNL     1       0.040   4.566   3.103  0.00  0.00    +0.000 A 
ATOM     33  C   UNL     1       1.238   4.046   2.651  0.00  0.00    +0.002 A 
ENDBRANCH  27  28
ENDBRANCH  25  27
BRANCH  25  34
ATOM     34  C   UNL     1       4.343   1.475   1.769  0.00  0.00    -0.041 C 
BRANCH  34  35
ATOM     35  C   UNL     1       4.830   2.407   2.849  0.00  0.00    -0.064 A 
ATOM     36  C   UNL     1       5.411   3.614   2.509  0.00  0.00    +0.004 A 
ATOM     37  C   UNL     1       5.854   4.472   3.498  0.00  0.00    +0.038 A 
ATOM     38  C   UNL     1       5.725   4.116   4.830  0.00  0.00    +0.123 A 
ATOM     39  C   UNL     1       5.147   2.905   5.170  0.00  0.00    +0.038 A 
ATOM     40  C   UNL     1       4.700   2.051   4.179  0.00  0.00    +0.004 A 
ATOM     41  F   UNL     1       6.161   4.952   5.798  0.00  0.00    -0.205 F 
ENDBRANCH  34  35
ENDBRANCH  25  34
ENDBRANCH   1  25
TORSDOF 9
