REMARK  Name = ZINC10660853
REMARK  12 active torsions:
REMARK  status: ('A' for Active; 'I' for Inactive)
REMARK    1  A    between atoms: C_1  and  C_2
REMARK    2  A    between atoms: C_2  and  C_4
REMARK    3  A    between atoms: C_2  and  O_14
REMARK    4  A    between atoms: N_6  and  C_7
REMARK    5  A    between atoms: C_7  and  C_8
REMARK    6  A    between atoms: C_7  and  C_9
REMARK    7  A    between atoms: C_7  and  C_11
REMARK    8  A    between atoms: C_11  and  C_12
REMARK    9  A    between atoms: C_11  and  C_13
REMARK   10  A    between atoms: O_14  and  C_15
REMARK   11  A    between atoms: C_15  and  C_17
REMARK   12  A    between atoms: C_26  and  O_27
REMARK                            x       y       z     vdW  Elec       q    Type
REMARK                         _______ _______ _______ _____ _____    ______ ____
ROOT
ATOM      1  O   UNL     1       0.671  -0.465  -1.174  0.00  0.00    -0.449 OA
ENDROOT
BRANCH   1   3
ATOM      2  C   UNL     1      -0.019   1.526   0.010  0.00  0.00    +0.062 C 
ATOM      3  C   UNL     1       0.002  -0.004   0.002  0.00  0.00    +0.259 C 
BRANCH   3   4
ATOM      4  C   UNL     1       0.731  -0.503   1.223  0.00  0.00    +0.255 C 
ATOM      5  O   UNL     1       1.774  -1.109   1.101  0.00  0.00    -0.272 OA
ATOM      6  N   UNL     1       0.223  -0.277   2.451  0.00  0.00    -0.294 N 
ATOM      7  H   UNL     1      -0.611   0.208   2.548  0.00  0.00    +0.150 HD
BRANCH   6   8
ATOM      8  C   UNL     1       0.932  -0.762   3.638  0.00  0.00    +0.121 C 
ATOM      9  C   UNL     1       2.325  -0.133   3.692  0.00  0.00    +0.048 C 
BRANCH   8  10
ATOM     10  C   UNL     1       0.148  -0.374   4.893  0.00  0.00    +0.020 C 
ATOM     11  C   UNL     1       0.821  -0.987   6.123  0.00  0.00    +0.010 C 
ATOM     12  C   UNL     1       0.125   1.149   5.030  0.00  0.00    +0.010 C 
ENDBRANCH   8  10
BRANCH   8  13
ATOM     13  C   UNL     1       1.057  -2.227   3.569  0.00  0.00    +0.088 C 
ATOM     14  N   UNL     1       1.153  -3.358   3.517  0.00  0.00    -0.194 NA
ENDBRANCH   8  13
ENDBRANCH   6   8
ENDBRANCH   3   4
ENDBRANCH   1   3
BRANCH   1  15
ATOM     15  C   UNL     1      -0.088  -0.673  -2.267  0.00  0.00    +0.343 C 
ATOM     16  O   UNL     1      -1.285  -0.469  -2.224  0.00  0.00    -0.245 OA
BRANCH  15  17
ATOM     17  C   UNL     1       0.534  -1.149  -3.517  0.00  0.00    +0.101 A 
ATOM     18  C   UNL     1       1.899  -1.386  -3.560  0.00  0.00    +0.027 A 
ATOM     19  C   UNL     1       2.485  -1.838  -4.751  0.00  0.00    -0.017 A 
ATOM     20  C   UNL     1       3.867  -2.089  -4.830  0.00  0.00    +0.008 A 
ATOM     21  C   UNL     1       4.406  -2.527  -6.000  0.00  0.00    +0.001 A 
ATOM     22  C   UNL     1       3.608  -2.733  -7.125  0.00  0.00    +0.001 A 
ATOM     23  C   UNL     1       2.268  -2.500  -7.086  0.00  0.00    +0.008 A 
ATOM     24  C   UNL     1       1.673  -2.047  -5.896  0.00  0.00    -0.014 A 
ATOM     25  C   UNL     1       0.292  -1.799  -5.827  0.00  0.00    +0.054 A 
ATOM     26  C   UNL     1      -0.265  -1.365  -4.660  0.00  0.00    +0.131 A 
BRANCH  26  27
ATOM     27  O   UNL     1      -1.601  -1.134  -4.599  0.00  0.00    -0.506 OA
ATOM     28  H   UNL     1      -1.855  -0.231  -4.833  0.00  0.00    +0.292 HD
ENDBRANCH  26  27
ENDBRANCH  15  17
ENDBRANCH   1  15
TORSDOF 8
