REMARK  Name = ZINC24821273
REMARK  10 active torsions:
REMARK  status: ('A' for Active; 'I' for Inactive)
REMARK    1  A    between atoms: C_1  and  C_2
REMARK    2  A    between atoms: C_2  and  N_3
REMARK    3  A    between atoms: N_3  and  C_4
REMARK    4  A    between atoms: N_3  and  C_18
REMARK    5  A    between atoms: C_4  and  C_5
REMARK    6  A    between atoms: N_7  and  C_8
REMARK    7  A    between atoms: C_18  and  C_19
REMARK    8  A    between atoms: N_21  and  C_22
REMARK    9  A    between atoms: C_22  and  C_24
REMARK   10  A    between atoms: C_22  and  C_25
REMARK                            x       y       z     vdW  Elec       q    Type
REMARK                         _______ _______ _______ _____ _____    ______ ____
ROOT
ATOM      1  N   UNL     1       4.504  -4.168  -0.108  0.00  0.00    +0.391 N 
ATOM      2  H   UNL     1       3.788  -4.392  -0.913  0.00  0.00    -0.080 HD
ENDROOT
BRANCH   1   4
ATOM      3  C   UNL     1       2.420  -4.174   1.178  0.00  0.00    -0.017 C 
ATOM      4  C   UNL     1       3.895  -4.579   1.164  0.00  0.00    -0.081 C 
ENDBRANCH   1   4
BRANCH   1   5
ATOM      5  C   UNL     1       4.764  -2.722  -0.124  0.00  0.00    +0.020 C 
BRANCH   5   6
ATOM      6  C   UNL     1       4.915  -2.255  -1.549  0.00  0.00    +0.201 C 
ATOM      7  O   UNL     1       4.721  -3.027  -2.464  0.00  0.00    -0.278 OA
ATOM      8  N   UNL     1       5.266  -0.979  -1.806  0.00  0.00    -0.287 N 
ATOM      9  H   UNL     1       5.526  -0.303  -0.979  0.00  0.00    +0.155 HD
BRANCH   8  10
ATOM     10  C   UNL     1       5.301  -0.515  -3.128  0.00  0.00    +0.037 A 
ATOM     11  C   UNL     1       4.932   0.792  -3.415  0.00  0.00    +0.027 A 
ATOM     12  C   UNL     1       4.964   1.250  -4.718  0.00  0.00    +0.051 A 
ATOM     13  C   UNL     1       5.365   0.406  -5.743  0.00  0.00    +0.162 A 
ATOM     14  C   UNL     1       5.738  -0.902  -5.458  0.00  0.00    +0.164 A 
ATOM     15  C   UNL     1       5.704  -1.362  -4.151  0.00  0.00    +0.072 A 
ATOM     16  O   UNL     1       6.143  -1.742  -6.450  0.00  0.00    -0.485 OA
ATOM     17  C   UNL     1       5.809  -1.365  -7.790  0.00  0.00    +0.270 C 
ATOM     18  C   UNL     1       6.149   0.120  -7.970  0.00  0.00    +0.270 C 
ATOM     19  O   UNL     1       5.383   0.873  -7.022  0.00  0.00    -0.485 OA
ENDBRANCH   8  10
ENDBRANCH   5   6
ENDBRANCH   1   5
BRANCH   1  20
ATOM     20  C   UNL     1       5.734  -4.927  -0.373  0.00  0.00    +0.019 C 
BRANCH  20  21
ATOM     21  C   UNL     1       5.391  -6.378  -0.592  0.00  0.00    +0.197 C 
ATOM     22  O   UNL     1       4.236  -6.744  -0.533  0.00  0.00    -0.278 OA
ATOM     23  N   UNL     1       6.367  -7.269  -0.853  0.00  0.00    -0.310 N 
ATOM     24  H   UNL     1       7.415  -6.937  -0.906  0.00  0.00    +0.149 HD
BRANCH  23  25
ATOM     25  C   UNL     1       6.034  -8.680  -1.066  0.00  0.00    +0.100 C 
ATOM     26  C   UNL     1       5.646  -8.897  -2.530  0.00  0.00    +0.033 C 
BRANCH  25  27
ATOM     27  C   UNL     1       7.229  -9.534  -0.731  0.00  0.00    -0.027 A 
ATOM     28  C   UNL     1       8.499  -9.126  -1.096  0.00  0.00    +0.006 A 
ATOM     29  C   UNL     1       9.588  -9.911  -0.783  0.00  0.00    +0.004 A 
ATOM     30  C   UNL     1       9.420 -11.117  -0.114  0.00  0.00    -0.044 A 
ATOM     31  C   UNL     1       8.156 -11.525   0.248  0.00  0.00    -0.044 A 
ATOM     32  C   UNL     1       7.061 -10.729  -0.063  0.00  0.00    +0.009 A 
ATOM     33  C   UNL     1       7.899 -12.815   0.983  0.00  0.00    +0.035 C 
ATOM     34  C   UNL     1       9.102 -13.748   0.865  0.00  0.00    +0.005 C 
ATOM     35  C   UNL     1      10.360 -12.969   1.266  0.00  0.00    +0.005 C 
ATOM     36  C   UNL     1      10.651 -11.933   0.183  0.00  0.00    +0.035 C 
ENDBRANCH  25  27
ENDBRANCH  23  25
ENDBRANCH  20  21
ENDBRANCH   1  20
TORSDOF 8
