REMARK  Name = ZINC10050127
REMARK  9 active torsions:
REMARK  status: ('A' for Active; 'I' for Inactive)
REMARK    1  A    between atoms: C_1  and  C_2
REMARK    2  A    between atoms: C_6  and  N_8
REMARK    3  A    between atoms: C_9  and  C_37
REMARK    4  A    between atoms: N_18  and  C_23
REMARK    5  A    between atoms: N_21  and  C_22
REMARK    6  A    between atoms: C_23  and  C_24
REMARK    7  A    between atoms: C_24  and  C_26
REMARK    8  A    between atoms: C_24  and  C_27
REMARK    9  A    between atoms: C_27  and  N_69
REMARK                            x       y       z     vdW  Elec       q    Type
REMARK                         _______ _______ _______ _____ _____    ______ ____
ROOT
ATOM      1  N   UNL     1       5.302   5.402   4.268  0.00  0.00    -0.283 N 
ATOM      2  C   UNL     1       4.617   5.177   5.448  0.00  0.00    +0.040 A 
ATOM      3  C   UNL     1       3.405   4.724   5.143  0.00  0.00    +0.116 A 
ATOM      4  N   UNL     1       3.298   4.654   3.765  0.00  0.00    -0.277 N 
ATOM      5  C   UNL     1       4.469   5.072   3.229  0.00  0.00    +0.223 A 
ATOM      6  N   UNL     1       4.390   5.014   1.908  0.00  0.00    -0.193 NA
ATOM      7  C   UNL     1       3.192   4.565   1.544  0.00  0.00    +0.170 A 
ATOM      8  C   UNL     1       2.464   4.324   2.708  0.00  0.00    +0.157 A 
ATOM      9  C   UNL     1       1.148   3.842   2.606  0.00  0.00    +0.283 A 
ATOM     10  O   UNL     1       0.491   3.628   3.610  0.00  0.00    -0.265 OA
ATOM     11  N   UNL     1       0.621   3.615   1.385  0.00  0.00    -0.259 N 
ATOM     12  C   UNL     1       1.330   3.852   0.268  0.00  0.00    +0.333 A 
ATOM     13  O   UNL     1       0.819   3.639  -0.815  0.00  0.00    -0.246 OA
ATOM     14  N   UNL     1       2.592   4.317   0.318  0.00  0.00    -0.279 N 
ATOM     15  C   UNL     1       3.333   4.562  -0.922  0.00  0.00    +0.155 C 
ATOM     16  C   UNL     1       5.151   5.405   6.838  0.00  0.00    +0.065 C 
ENDROOT
BRANCH   1  22
ATOM     17  C   UNL     1      10.120   4.774   5.027  0.00  0.00    +0.044 C 
ATOM     18  C   UNL     1       8.967   5.598   4.514  0.00  0.00    -0.048 A 
ATOM     19  C   UNL     1       9.203   6.828   3.929  0.00  0.00    +0.003 A 
ATOM     20  C   UNL     1       8.148   7.587   3.457  0.00  0.00    +0.002 A 
ATOM     21  C   UNL     1       6.854   7.117   3.568  0.00  0.00    +0.026 A 
ATOM     22  C   UNL     1       6.613   5.881   4.154  0.00  0.00    +0.050 A 
ATOM     23  C   UNL     1       7.675   5.124   4.632  0.00  0.00    +0.029 A 
ENDBRANCH   1  22
BRANCH  11  24
ATOM     24  C   UNL     1      -0.750   3.109   1.275  0.00  0.00    +0.131 C 
BRANCH  24  25
ATOM     25  C   UNL     1      -0.729   1.579   1.267  0.00  0.00    -0.011 C 
ATOM     26  C   UNL     1      -0.013   1.086   0.008  0.00  0.00    +0.007 C 
BRANCH  25  27
ATOM     27  C   UNL     1      -2.164   1.050   1.278  0.00  0.00    -0.073 C 
BRANCH  27  37
ATOM     28  C   UNL     1      -3.490  -0.977   1.189  0.00  0.00    -0.074 C 
ATOM     29  C   UNL     1      -3.356  -2.481   0.950  0.00  0.00    +0.017 C 
ATOM     30  C   UNL     1      -2.501  -3.099   2.027  0.00  0.00    -0.048 A 
ATOM     31  C   UNL     1      -2.545  -4.474   2.199  0.00  0.00    +0.004 A 
ATOM     32  C   UNL     1      -1.775  -5.081   3.170  0.00  0.00    +0.000 A 
ATOM     33  C   UNL     1      -0.955  -4.313   3.977  0.00  0.00    +0.000 A 
ATOM     34  C   UNL     1      -0.912  -2.944   3.807  0.00  0.00    +0.002 A 
ATOM     35  C   UNL     1      -1.687  -2.332   2.832  0.00  0.00    -0.061 A 
ATOM     36  C   UNL     1      -1.608  -0.835   2.689  0.00  0.00    -0.043 C 
ATOM     37  N   UNL     1      -2.132  -0.427   1.374  0.00  0.00    +0.383 N 
ATOM     38  H   UNL     1      -1.517  -0.796   0.639  0.00  0.00    -0.081 HD
ENDBRANCH  27  37
ENDBRANCH  25  27
ENDBRANCH  24  25
ENDBRANCH  11  24
TORSDOF 5
