REMARK  Name = ZINC16647346
REMARK  10 active torsions:
REMARK  status: ('A' for Active; 'I' for Inactive)
REMARK    1  A    between atoms: C_1  and  C_2
REMARK    2  A    between atoms: C_2  and  C_3
REMARK    3  A    between atoms: C_6  and  N_9
REMARK    4  A    between atoms: C_10  and  C_12
REMARK    5  A    between atoms: C_12  and  N_13
REMARK    6  A    between atoms: N_15  and  C_30
REMARK    7  A    between atoms: C_24  and  C_26
REMARK    8  A    between atoms: C_26  and  C_27
REMARK    9  A    between atoms: C_26  and  C_28
REMARK   10  A    between atoms: C_26  and  C_29
REMARK                            x       y       z     vdW  Elec       q    Type
REMARK                         _______ _______ _______ _____ _____    ______ ____
ROOT
ATOM      1  N   UNL     1       3.927   4.615   1.781  0.00  0.00    -0.275 N 
ATOM      2  C   UNL     1       3.296   3.321   1.496  0.00  0.00    +0.217 C 
ATOM      3  N   UNL     1       2.660   3.456   0.164  0.00  0.00    -0.300 N 
ATOM      4  C   UNL     1       2.388   4.906   0.069  0.00  0.00    +0.115 C 
ATOM      5  C   UNL     1       3.409   5.560   0.968  0.00  0.00    +0.241 C 
ATOM      6  O   UNL     1       3.712   6.734   0.961  0.00  0.00    -0.273 OA
ATOM      7  C   UNL     1       0.976   5.206   0.562  0.00  0.00    +0.054 C 
ATOM      8  C   UNL     1       0.726   6.717   0.502  0.00  0.00    +0.110 C 
ATOM      9  N   UNL     1       1.017   7.191  -0.858  0.00  0.00    -0.301 N 
ATOM     10  C   UNL     1       2.330   6.890  -1.445  0.00  0.00    +0.110 C 
ATOM     11  C   UNL     1       2.568   5.378  -1.371  0.00  0.00    +0.054 C 
ATOM     12  C   UNL     1       0.097   7.888  -1.553  0.00  0.00    +0.221 C 
ATOM     13  O   UNL     1       0.380   8.349  -2.639  0.00  0.00    -0.275 OA
ENDROOT
BRANCH   3  14
ATOM     14  C   UNL     1       1.475   2.720   0.098  0.00  0.00    +0.032 A 
ATOM     15  C   UNL     1       0.638   2.844  -1.004  0.00  0.00    +0.023 A 
ATOM     16  C   UNL     1      -0.532   2.114  -1.066  0.00  0.00    +0.002 A 
ATOM     17  C   UNL     1      -0.875   1.264  -0.031  0.00  0.00    +0.000 A 
ATOM     18  C   UNL     1      -0.042   1.134   1.065  0.00  0.00    +0.002 A 
ATOM     19  C   UNL     1       1.130   1.861   1.134  0.00  0.00    +0.023 A 
ENDBRANCH   3  14
BRANCH  12  20
ATOM     20  C   UNL     1      -1.282   8.094  -0.983  0.00  0.00    +0.039 C 
ATOM     21  C   UNL     1      -2.134   8.883  -1.979  0.00  0.00    +0.020 C 
ATOM     22  C   UNL     1      -1.934   6.735  -0.720  0.00  0.00    +0.020 C 
ATOM     23  C   UNL     1      -1.180   8.873   0.330  0.00  0.00    +0.020 C 
ENDBRANCH  12  20
BRANCH   1  24
ATOM     24  C   UNL     1       4.962   4.846   2.792  0.00  0.00    +0.205 C 
BRANCH  24  26
ATOM     25  N   UNL     1       5.074   5.461   5.185  0.00  0.00    -0.284 N 
ATOM     26  C   UNL     1       4.312   5.204   4.103  0.00  0.00    +0.235 C 
ATOM     27  O   UNL     1       3.103   5.261   4.185  0.00  0.00    -0.274 OA
ATOM     28  H   UNL     1       6.040   5.479   5.104  0.00  0.00    +0.155 HD
BRANCH  25  32
ATOM     29  C   UNL     1       3.277   6.179   8.875  0.00  0.00    -0.048 A 
ATOM     30  C   UNL     1       2.700   5.288   7.988  0.00  0.00    +0.005 A 
ATOM     31  C   UNL     1       3.293   5.048   6.764  0.00  0.00    +0.023 A 
ATOM     32  C   UNL     1       4.470   5.702   6.424  0.00  0.00    +0.033 A 
ATOM     33  C   UNL     1       5.050   6.591   7.319  0.00  0.00    +0.023 A 
ATOM     34  C   UNL     1       4.449   6.832   8.539  0.00  0.00    +0.005 A 
BRANCH  29  36
ATOM     35  C   UNL     1       3.173   5.451  11.243  0.00  0.00    +0.009 C 
ATOM     36  C   UNL     1       2.627   6.439  10.209  0.00  0.00    +0.032 C 
ENDBRANCH  29  36
ENDBRANCH  25  32
ENDBRANCH  24  26
ENDBRANCH   1  24
TORSDOF 6
