REMARK  Name = ZINC21861209
REMARK  9 active torsions:
REMARK  status: ('A' for Active; 'I' for Inactive)
REMARK    1  A    between atoms: C_1  and  C_2
REMARK    2  A    between atoms: C_2  and  O_3
REMARK    3  A    between atoms: O_3  and  C_4
REMARK    4  A    between atoms: C_9  and  C_10
REMARK    5  A    between atoms: C_10  and  N_11
REMARK    6  A    between atoms: C_24  and  C_25
REMARK    7  A    between atoms: C_24  and  C_26
REMARK    8  A    between atoms: N_28  and  C_29
REMARK    9  A    between atoms: C_35  and  C_37
REMARK                            x       y       z     vdW  Elec       q    Type
REMARK                         _______ _______ _______ _____ _____    ______ ____
ROOT
ATOM      1  N   UNL     1      -1.015   3.106  -1.113  0.00  0.00    -0.275 N 
ATOM      2  C   UNL     1      -1.177   3.610   0.133  0.00  0.00    +0.283 C 
ATOM      3  O   UNL     1      -1.438   4.782   0.320  0.00  0.00    -0.267 OA
ATOM      4  C   UNL     1      -1.020   2.656   1.259  0.00  0.00    +0.198 A 
ATOM      5  N   UNL     1      -1.287   2.810   2.523  0.00  0.00    -0.223 NA
ATOM      6  C   UNL     1      -1.009   1.679   3.177  0.00  0.00    +0.090 A 
ATOM      7  C   UNL     1      -1.124   1.330   4.532  0.00  0.00    +0.030 A 
ATOM      8  C   UNL     1      -0.754   0.057   4.882  0.00  0.00    +0.002 A 
ATOM      9  C   UNL     1      -0.283  -0.858   3.954  0.00  0.00    +0.002 A 
ATOM     10  C   UNL     1      -0.153  -0.545   2.613  0.00  0.00    +0.028 A 
ATOM     11  C   UNL     1      -0.520   0.741   2.224  0.00  0.00    +0.069 A 
ATOM     12  N   UNL     1      -0.525   1.382   1.033  0.00  0.00    -0.317 N 
ATOM     13  C   UNL     1      -0.110   0.941  -0.300  0.00  0.00    +0.159 C 
ATOM     14  C   UNL     1      -0.938   1.671  -1.357  0.00  0.00    +0.129 C 
ATOM     15  C   UNL     1      -0.304   1.438  -2.730  0.00  0.00    +0.043 C 
ENDROOT
BRANCH  14  16
ATOM     16  C   UNL     1      -2.333   1.101  -1.362  0.00  0.00    +0.238 C 
ATOM     17  O   UNL     1      -2.635   0.243  -2.165  0.00  0.00    -0.273 OA
ATOM     18  N   UNL     1      -3.245   1.545  -0.475  0.00  0.00    -0.310 N 
ATOM     19  H   UNL     1      -3.000   2.383   0.193  0.00  0.00    +0.149 HD
BRANCH  18  20
ATOM     20  C   UNL     1      -4.564   0.910  -0.401  0.00  0.00    +0.076 C 
ATOM     21  C   UNL     1      -4.504  -0.279   0.560  0.00  0.00    +0.022 C 
ATOM     22  C   UNL     1      -5.880  -0.942   0.638  0.00  0.00    +0.002 C 
ATOM     23  C   UNL     1      -6.907   0.072   1.146  0.00  0.00    +0.000 C 
ATOM     24  C   UNL     1      -6.967   1.261   0.185  0.00  0.00    +0.005 C 
ATOM     25  C   UNL     1      -5.590   1.924   0.107  0.00  0.00    +0.006 C 
ATOM     26  C   UNL     1      -5.651   3.114  -0.854  0.00  0.00    +0.009 C 
ENDBRANCH  18  20
ENDBRANCH  14  16
BRANCH   1  27
ATOM     27  C   UNL     1      -0.915   4.029  -2.246  0.00  0.00    +0.148 C 
BRANCH  27  33
ATOM     28  C   UNL     1      -3.158   5.146  -2.337  0.00  0.00    +0.125 A 
ATOM     29  C   UNL     1      -4.409   5.318  -2.913  0.00  0.00    +0.046 A 
ATOM     30  C   UNL     1      -4.777   4.553  -4.003  0.00  0.00    +0.004 A 
ATOM     31  C   UNL     1      -3.898   3.622  -4.524  0.00  0.00    +0.001 A 
ATOM     32  C   UNL     1      -2.649   3.453  -3.956  0.00  0.00    +0.009 A 
ATOM     33  C   UNL     1      -2.276   4.214  -2.865  0.00  0.00    +0.012 A 
BRANCH  28  34
ATOM     34  O   UNL     1      -2.795   5.892  -1.261  0.00  0.00    -0.492 OA
BRANCH  34  36
ATOM     35  C   UNL     1      -3.171   7.572   0.435  0.00  0.00    +0.048 C 
ATOM     36  C   UNL     1      -3.754   6.831  -0.770  0.00  0.00    +0.225 C 
ENDBRANCH  34  36
ENDBRANCH  28  34
ENDBRANCH  27  33
ENDBRANCH   1  27
TORSDOF 6
