REMARK  Name = ZINC15685073
REMARK  9 active torsions:
REMARK  status: ('A' for Active; 'I' for Inactive)
REMARK    1  A    between atoms: C_1  and  C_2
REMARK    2  A    between atoms: C_2  and  O_3
REMARK    3  A    between atoms: O_3  and  C_4
REMARK    4  A    between atoms: C_7  and  N_10
REMARK    5  A    between atoms: N_12  and  C_30
REMARK    6  A    between atoms: C_13  and  C_24
REMARK    7  A    between atoms: C_14  and  N_16
REMARK    8  A    between atoms: C_17  and  C_19
REMARK    9  A    between atoms: C_30  and  C_31
REMARK                            x       y       z     vdW  Elec       q    Type
REMARK                         _______ _______ _______ _____ _____    ______ ____
ROOT
ATOM      1  N   UNL     1      -4.730  -1.970   0.327  0.00  0.00    -0.336 N 
ATOM      2  C   UNL     1      -3.464  -1.614   0.229  0.00  0.00    +0.154 A 
ATOM      3  N   UNL     1      -2.345  -2.408   0.137  0.00  0.00    -0.315 N 
ATOM      4  C   UNL     1      -1.115  -1.804   0.044  0.00  0.00    +0.080 A 
ATOM      5  C   UNL     1      -1.039  -0.449   0.046  0.00  0.00    +0.100 A 
ATOM      6  S   UNL     1      -2.754   0.024   0.191  0.00  0.00    -0.036 S 
ATOM      7  H   UNL     1      -5.501  -1.211   0.526  0.00  0.00    +0.168 HD
ENDROOT
BRANCH   1  11
ATOM      8  C   UNL     1      -5.805  -5.944  -0.119  0.00  0.00    +0.121 A 
ATOM      9  C   UNL     1      -5.575  -5.428   1.148  0.00  0.00    +0.047 A 
ATOM     10  C   UNL     1      -5.216  -4.105   1.302  0.00  0.00    +0.029 A 
ATOM     11  C   UNL     1      -5.085  -3.284   0.179  0.00  0.00    +0.041 A 
ATOM     12  C   UNL     1      -5.323  -3.807  -1.094  0.00  0.00    +0.029 A 
ATOM     13  C   UNL     1      -5.676  -5.133  -1.238  0.00  0.00    +0.047 A 
BRANCH   8  14
ATOM     14  O   UNL     1      -6.158  -7.249  -0.266  0.00  0.00    -0.492 OA
BRANCH  14  16
ATOM     15  C   UNL     1      -6.766  -9.196  -1.563  0.00  0.00    +0.048 C 
ATOM     16  C   UNL     1      -6.380  -7.716  -1.598  0.00  0.00    +0.225 C 
ENDBRANCH  14  16
ENDBRANCH   8  14
ENDBRANCH   1  11
BRANCH   4  17
ATOM     17  C   UNL     1       0.110  -2.620  -0.058  0.00  0.00    +0.001 A 
ATOM     18  C   UNL     1       0.363  -3.627   0.877  0.00  0.00    +0.010 A 
ATOM     19  C   UNL     1       1.507  -4.390   0.772  0.00  0.00    +0.001 A 
ATOM     20  C   UNL     1       2.410  -4.152  -0.249  0.00  0.00    +0.000 A 
ATOM     21  C   UNL     1       2.170  -3.152  -1.176  0.00  0.00    +0.001 A 
ATOM     22  C   UNL     1       1.026  -2.385  -1.087  0.00  0.00    +0.010 A 
ENDBRANCH   4  17
BRANCH   5  23
ATOM     23  N   UNL     1       0.089   0.364  -0.037  0.00  0.00    -0.272 N 
ATOM     24  C   UNL     1      -0.050   1.701  -0.138  0.00  0.00    +0.284 C 
ATOM     25  O   UNL     1      -1.162   2.197  -0.162  0.00  0.00    -0.266 OA
ATOM     26  H   UNL     1       1.093  -0.084  -0.019  0.00  0.00    +0.156 HD
BRANCH  24  27
ATOM     27  C   UNL     1       1.137   2.557  -0.225  0.00  0.00    +0.189 A 
ATOM     28  C   UNL     1       1.138   3.919  -0.331  0.00  0.00    +0.054 A 
ATOM     29  C   UNL     1       2.483   4.318  -0.385  0.00  0.00    +0.042 A 
ATOM     30  C   UNL     1       3.234   3.197  -0.312  0.00  0.00    +0.196 A 
ATOM     31  O   UNL     1       2.419   2.138  -0.209  0.00  0.00    -0.458 OA
ENDBRANCH  24  27
ENDBRANCH   5  23
BRANCH   3  32
ATOM     32  C   UNL     1      -2.463  -3.868   0.136  0.00  0.00    +0.151 C 
BRANCH  32  33
ATOM     33  C   UNL     1      -1.588  -4.442  -0.948  0.00  0.00    -0.013 C 
ATOM     34  C   UNL     1      -0.717  -5.378  -0.660  0.00  0.00    +0.005 C 
ENDBRANCH  32  33
ENDBRANCH   3  32
TORSDOF 8
