REMARK  Name = ZINC35037391
REMARK  10 active torsions:
REMARK  status: ('A' for Active; 'I' for Inactive)
REMARK    1  A    between atoms: C_1  and  C_2
REMARK    2  A    between atoms: C_2  and  C_4
REMARK    3  A    between atoms: C_2  and  N_22
REMARK    4  A    between atoms: N_14  and  C_15
REMARK    5  A    between atoms: N_22  and  C_23
REMARK    6  A    between atoms: C_23  and  C_24
REMARK    7  A    between atoms: C_24  and  N_25
REMARK    8  A    between atoms: N_25  and  C_26
REMARK    9  A    between atoms: N_25  and  C_27
REMARK   10  A    between atoms: N_30  and  C_31
REMARK                            x       y       z     vdW  Elec       q    Type
REMARK                         _______ _______ _______ _____ _____    ______ ____
ROOT
ATOM      1  C   UNL     1      -0.889   0.686   0.119  0.00  0.00    +0.036 C 
ATOM      2  C   UNL     1      -0.300  -0.725   0.096  0.00  0.00    +0.141 C 
ENDROOT
BRANCH   2   3
ATOM      3  C   UNL     1       0.730  -0.858   1.188  0.00  0.00    +0.138 A 
ATOM      4  N   UNL     1       0.379  -0.567   2.405  0.00  0.00    -0.231 NA
ATOM      5  C   UNL     1       1.252  -0.663   3.438  0.00  0.00    +0.078 A 
ATOM      6  C   UNL     1       0.875  -0.351   4.746  0.00  0.00    +0.028 A 
ATOM      7  C   UNL     1       1.794  -0.463   5.766  0.00  0.00    +0.002 A 
ATOM      8  C   UNL     1       3.093  -0.884   5.510  0.00  0.00    +0.001 A 
ATOM      9  C   UNL     1       3.488  -1.197   4.228  0.00  0.00    +0.015 A 
ATOM     10  C   UNL     1       2.574  -1.091   3.182  0.00  0.00    +0.065 A 
ATOM     11  C   UNL     1       2.939  -1.412   1.795  0.00  0.00    +0.266 A 
ATOM     12  O   UNL     1       4.061  -1.786   1.507  0.00  0.00    -0.267 OA
ATOM     13  N   UNL     1       1.978  -1.282   0.851  0.00  0.00    -0.263 N 
BRANCH  13  14
ATOM     14  C   UNL     1       2.272  -1.580  -0.485  0.00  0.00    +0.051 A 
ATOM     15  C   UNL     1       2.631  -0.565  -1.362  0.00  0.00    +0.028 A 
ATOM     16  C   UNL     1       2.921  -0.862  -2.679  0.00  0.00    +0.022 A 
ATOM     17  C   UNL     1       2.853  -2.170  -3.126  0.00  0.00    +0.041 A 
ATOM     18  C   UNL     1       2.494  -3.184  -2.255  0.00  0.00    +0.022 A 
ATOM     19  C   UNL     1       2.210  -2.893  -0.935  0.00  0.00    +0.028 A 
ATOM     20 CL   UNL     1       3.217  -2.540  -4.783  0.00  0.00    -0.084 Cl
ENDBRANCH  13  14
ENDBRANCH   2   3
BRANCH   2  21
ATOM     21  N   UNL     1      -1.369  -1.704   0.311  0.00  0.00    -0.277 N 
ATOM     22  C   UNL     1      -1.628  -2.636  -0.627  0.00  0.00    +0.307 C 
ATOM     23  O   UNL     1      -0.975  -2.665  -1.651  0.00  0.00    -0.252 OA
ATOM     24  N   UNL     1      -2.611  -3.536  -0.429  0.00  0.00    -0.269 N 
ATOM     25  H   UNL     1      -3.095  -3.549   0.412  0.00  0.00    +0.156 HD
BRANCH  24  26
ATOM     26  C   UNL     1      -2.934  -4.453  -1.435  0.00  0.00    +0.035 A 
ATOM     27  C   UNL     1      -4.252  -4.849  -1.620  0.00  0.00    +0.023 A 
ATOM     28  C   UNL     1      -4.567  -5.753  -2.615  0.00  0.00    +0.002 A 
ATOM     29  C   UNL     1      -3.572  -6.265  -3.427  0.00  0.00    +0.000 A 
ATOM     30  C   UNL     1      -2.258  -5.874  -3.245  0.00  0.00    +0.002 A 
ATOM     31  C   UNL     1      -1.937  -4.965  -2.256  0.00  0.00    +0.023 A 
ENDBRANCH  24  26
BRANCH  21  32
ATOM     32  C   UNL     1      -2.156  -1.669   1.546  0.00  0.00    +0.091 C 
BRANCH  32  33
ATOM     33  C   UNL     1      -3.374  -0.764   1.349  0.00  0.00    -0.060 C 
BRANCH  33  34
ATOM     34  N   UNL     1      -4.163  -0.729   2.588  0.00  0.00    +0.377 N 
ATOM     35  C   UNL     1      -5.265   0.232   2.439  0.00  0.00    -0.097 C 
ATOM     36  C   UNL     1      -4.712  -2.065   2.857  0.00  0.00    -0.097 C 
ATOM     37  H   UNL     1      -3.573  -0.447   3.356  0.00  0.00    -0.083 HD
ENDBRANCH  33  34
ENDBRANCH  32  33
ENDBRANCH  21  32
ENDBRANCH   2  21
TORSDOF 7
