REMARK  Name = ZINC14746317
REMARK  8 active torsions:
REMARK  status: ('A' for Active; 'I' for Inactive)
REMARK    1  A    between atoms: C_1  and  N_2
REMARK    2  A    between atoms: C_5  and  C_7
REMARK    3  A    between atoms: N_9  and  C_10
REMARK    4  A    between atoms: C_10  and  C_11
REMARK    5  A    between atoms: C_18  and  N_66
REMARK    6  A    between atoms: C_22  and  C_23
REMARK    7  A    between atoms: C_22  and  N_66
REMARK    8  A    between atoms: C_23  and  C_29
REMARK                            x       y       z     vdW  Elec       q    Type
REMARK                         _______ _______ _______ _____ _____    ______ ____
ROOT
ATOM      1  C   UNL     1       4.799   2.343  -0.032  0.00  0.00    +0.172 C 
ATOM      2  N   UNL     1       3.348   2.540  -0.016  0.00  0.00    -0.270 N 
ATOM      3  C   UNL     1       2.732   3.733  -0.002  0.00  0.00    +0.043 A 
ATOM      4  C   UNL     1       1.397   3.497   0.002  0.00  0.00    +0.004 A 
ATOM      5  C   UNL     1       1.253   2.099   0.001  0.00  0.00    +0.150 A 
ATOM      6  N   UNL     1       2.474   1.593  -0.013  0.00  0.00    -0.166 NA
ATOM      7  C   UNL     1       0.340   4.566   0.006  0.00  0.00    +0.023 C 
ATOM      8  C   UNL     1       0.995   5.892  -0.405  0.00  0.00    -0.067 C 
ATOM      9  C   UNL     1       2.262   6.116   0.424  0.00  0.00    -0.009 C 
ATOM     10  C   UNL     1       3.341   5.112   0.005  0.00  0.00    +0.054 C 
ENDROOT
BRANCH   5  11
ATOM     11  C   UNL     1      -0.016   1.344   0.009  0.00  0.00    +0.265 C 
ATOM     12  O   UNL     1      -1.077   1.937   0.018  0.00  0.00    -0.268 OA
ATOM     13  N   UNL     1       0.002  -0.004   0.002  0.00  0.00    -0.306 N 
ATOM     14  H   UNL     1       0.849  -0.478  -0.009  0.00  0.00    +0.149 HD
BRANCH  13  15
ATOM     15  C   UNL     1      -1.256  -0.754   0.010  0.00  0.00    +0.140 C 
BRANCH  15  16
ATOM     16  C   UNL     1      -0.961  -2.232  -0.001  0.00  0.00    -0.027 A 
ATOM     17  C   UNL     1      -0.839  -2.922  -1.197  0.00  0.00    +0.025 A 
ATOM     18  C   UNL     1      -0.563  -4.276  -1.167  0.00  0.00    +0.111 A 
ATOM     19  N   UNL     1      -0.426  -4.912  -0.020  0.00  0.00    -0.263 NA
ATOM     20  C   UNL     1      -0.541  -4.288   1.136  0.00  0.00    +0.111 A 
ATOM     21  C   UNL     1      -0.811  -2.934   1.185  0.00  0.00    +0.025 A 
ENDBRANCH  15  16
ENDBRANCH  13  15
ENDBRANCH   5  11
BRANCH   8  22
ATOM     22  N   UNL     1       0.047   6.996  -0.163  0.00  0.00    +0.382 N 
ATOM     23  H   UNL     1       0.120   7.296   0.817  0.00  0.00    -0.085 HD
ATOM     24  H   UNL     1      -0.909   6.669  -0.349  0.00  0.00    -0.085 HD
BRANCH  22  25
ATOM     25  C   UNL     1       0.352   8.137  -1.046  0.00  0.00    -0.071 C 
BRANCH  25  26
ATOM     26  C   UNL     1      -0.646   9.264  -0.772  0.00  0.00    -0.015 C 
ATOM     27  C   UNL     1      -2.067   8.771  -1.058  0.00  0.00    +0.038 C 
ATOM     28  C   UNL     1      -2.186   8.411  -2.541  0.00  0.00    +0.160 C 
ATOM     29  O   UNL     1      -1.856   9.553  -3.335  0.00  0.00    -0.380 OA
ATOM     30  C   UNL     1      -0.523  10.030  -3.144  0.00  0.00    +0.160 C 
ATOM     31  C   UNL     1      -0.337  10.455  -1.685  0.00  0.00    +0.038 C 
BRANCH  26  32
ATOM     32  C   UNL     1      -0.539   9.693   0.668  0.00  0.00    -0.043 A 
ATOM     33  C   UNL     1       0.365   9.071   1.510  0.00  0.00    +0.004 A 
ATOM     34  C   UNL     1       0.466   9.467   2.830  0.00  0.00    +0.000 A 
ATOM     35  C   UNL     1      -0.343  10.479   3.312  0.00  0.00    +0.000 A 
ATOM     36  C   UNL     1      -1.250  11.098   2.472  0.00  0.00    +0.000 A 
ATOM     37  C   UNL     1      -1.348  10.704   1.151  0.00  0.00    +0.004 A 
ENDBRANCH  26  32
ENDBRANCH  25  26
ENDBRANCH  22  25
ENDBRANCH   8  22
TORSDOF 7
