REMARK  Name = ZINC08876188
REMARK  12 active torsions:
REMARK  status: ('A' for Active; 'I' for Inactive)
REMARK    1  A    between atoms: C_1  and  C_2
REMARK    2  A    between atoms: C_9  and  C_33
REMARK    3  A    between atoms: C_10  and  C_17
REMARK    4  A    between atoms: C_15  and  C_16
REMARK    5  A    between atoms: C_17  and  C_18
REMARK    6  A    between atoms: C_18  and  C_19
REMARK    7  A    between atoms: N_21  and  CA_22
REMARK    8  A    between atoms: CA_22  and  C_24
REMARK    9  A    between atoms: CA_22  and  C_31
REMARK   10  A    between atoms: C_24  and  C_25
REMARK   11  A    between atoms: C_25  and  C_26
REMARK   12  A    between atoms: C_26  and  N_27
REMARK                            x       y       z     vdW  Elec       q    Type
REMARK                         _______ _______ _______ _____ _____    ______ ____
ROOT
ATOM      1  C   UNL     1      -4.007  -0.537  -1.145  0.00  0.00    +0.100 C 
ENDROOT
BRANCH   1   2
ATOM      2  C   UNL     1      -2.875   0.458  -1.145  0.00  0.00    +0.214 C 
ATOM      3  O   UNL     1      -2.364   0.795  -2.192  0.00  0.00    -0.276 OA
ATOM      4  N   UNL     1      -2.430   0.973   0.019  0.00  0.00    -0.302 N 
ATOM      5  H   UNL     1      -2.839   0.703   0.856  0.00  0.00    +0.150 HD
BRANCH   4   6
ATOM      6  CA  UNL     1      -1.329   1.940   0.019  0.00  0.00    +0.186 C 
BRANCH   6   7
ATOM      7  C   UNL     1      -0.014   1.204   0.009  0.00  0.00    +0.376 C 
ATOM      8  O   UNL     1       0.002  -0.004   0.002  0.00  0.00    -0.244 OA
ATOM      9  OXT UNL     1       1.139   1.891   0.001  0.00  0.00    -0.244 OA
ENDBRANCH   6   7
BRANCH   6  10
ATOM     10  C   UNL     1      -1.417   2.811   1.273  0.00  0.00    +0.035 C 
BRANCH  10  11
ATOM     11  C   UNL     1      -2.694   3.652   1.223  0.00  0.00    +0.021 C 
BRANCH  11  12
ATOM     12  C   UNL     1      -2.781   4.524   2.477  0.00  0.00    +0.106 C 
BRANCH  12  13
ATOM     13  N   UNL     1      -4.004   5.328   2.429  0.00  0.00    -0.300 N 
ATOM     14  C   UNL     1      -4.293   6.177   3.435  0.00  0.00    +0.297 C 
ATOM     15  O   UNL     1      -3.538   6.275   4.383  0.00  0.00    -0.253 OA
ATOM     16  N   UNL     1      -5.418   6.918   3.390  0.00  0.00    -0.313 N 
ATOM     17  H   UNL     1      -4.606   5.250   1.672  0.00  0.00    +0.150 HD
ATOM     18  H   UNL     1      -6.020   6.840   2.634  0.00  0.00    +0.146 HD
ATOM     19  H   UNL     1      -5.626   7.529   4.115  0.00  0.00    +0.146 HD
ENDBRANCH  12  13
ENDBRANCH  11  12
ENDBRANCH  10  11
ENDBRANCH   6  10
ENDBRANCH   4   6
ENDBRANCH   1   2
BRANCH   1  20
ATOM     20  C   UNL     1      -4.314  -0.960  -2.583  0.00  0.00    +0.052 C 
BRANCH  20  30
ATOM     21  C   UNL     1      -6.262  -8.929  -2.213  0.00  0.00    +0.047 C 
ATOM     22  C   UNL     1      -7.361  -7.904  -2.332  0.00  0.00    -0.005 A 
ATOM     23  C   UNL     1      -8.677  -8.140  -2.389  0.00  0.00    +0.199 A 
ATOM     24  O   UNL     1      -9.354  -6.983  -2.494  0.00  0.00    -0.462 OA
ATOM     25  C   UNL     1      -8.511  -5.930  -2.510  0.00  0.00    +0.141 A 
ATOM     26  C   UNL     1      -7.202  -6.445  -2.410  0.00  0.00    +0.024 A 
ATOM     27  C   UNL     1      -6.109  -5.591  -2.402  0.00  0.00    +0.023 A 
ATOM     28  C   UNL     1      -6.316  -4.215  -2.494  0.00  0.00    +0.022 A 
ATOM     29  C   UNL     1      -5.184  -3.284  -2.494  0.00  0.00    -0.030 A 
ATOM     30  C   UNL     1      -5.446  -1.955  -2.583  0.00  0.00    +0.041 A 
ATOM     31  C   UNL     1      -6.780  -1.508  -2.680  0.00  0.00    +0.341 A 
ATOM     32  O   UNL     1      -7.000  -0.313  -2.763  0.00  0.00    -0.245 OA
ATOM     33  O   UNL     1      -7.814  -2.364  -2.684  0.00  0.00    -0.422 OA
ATOM     34  C   UNL     1      -7.625  -3.700  -2.594  0.00  0.00    +0.146 A 
ATOM     35  C   UNL     1      -8.709  -4.561  -2.602  0.00  0.00    +0.035 A 
ATOM     36  C   UNL     1     -10.107  -4.008  -2.709  0.00  0.00    +0.051 C 
ATOM     37  C   UNL     1      -3.767  -3.788  -2.395  0.00  0.00    +0.045 C 
ENDBRANCH  20  30
ENDBRANCH   1  20
TORSDOF 9
