REMARK  Name = ZINC09817668
REMARK  7 active torsions:
REMARK  status: ('A' for Active; 'I' for Inactive)
REMARK    1  A    between atoms: N_9  and  S_11
REMARK    2  A    between atoms: S_11  and  C_14
REMARK    3  A    between atoms: C_18  and  C_20
REMARK    4  A    between atoms: N_22  and  C_23
REMARK    5  A    between atoms: C_23  and  C_24
REMARK    6  A    between atoms: C_24  and  C_26
REMARK    7  A    between atoms: C_24  and  N_63
REMARK                            x       y       z     vdW  Elec       q    Type
REMARK                         _______ _______ _______ _____ _____    ______ ____
ROOT
ATOM      1  C   UNL     1      -0.167   1.232   0.015  0.00  0.00    +0.106 A 
ATOM      2  C   UNL     1       1.054   0.785   0.491  0.00  0.00    +0.028 A 
ATOM      3  C   UNL     1       2.069   1.685   0.761  0.00  0.00    +0.003 A 
ATOM      4  C   UNL     1       1.869   3.036   0.562  0.00  0.00    +0.013 A 
ATOM      5  C   UNL     1       0.639   3.494   0.088  0.00  0.00    +0.039 A 
ATOM      6  C   UNL     1      -0.382   2.581  -0.182  0.00  0.00    +0.041 A 
ENDROOT
BRANCH   5   7
ATOM      7  C   UNL     1       0.418   4.940  -0.127  0.00  0.00    +0.244 C 
ATOM      8  O   UNL     1      -0.654   5.336  -0.540  0.00  0.00    -0.270 OA
ATOM      9  N   UNL     1       1.406   5.819   0.134  0.00  0.00    -0.313 N 
ATOM     10  H   UNL     1       2.262   5.503   0.464  0.00  0.00    +0.149 HD
BRANCH   9  11
ATOM     11  C   UNL     1       1.187   7.251  -0.080  0.00  0.00    +0.094 C 
BRANCH  11  12
ATOM     12  C   UNL     1       2.499   8.007   0.143  0.00  0.00    -0.013 C 
BRANCH  12  17
ATOM     13  C   UNL     1       4.670   8.476  -0.855  0.00  0.00    -0.078 C 
ATOM     14  C   UNL     1       5.767   7.616  -1.531  0.00  0.00    -0.020 C 
ATOM     15  C   UNL     1       5.478   6.197  -0.989  0.00  0.00    -0.020 C 
ATOM     16  C   UNL     1       4.002   6.228  -0.550  0.00  0.00    -0.078 C 
ATOM     17  N   UNL     1       3.510   7.570  -0.866  0.00  0.00    +0.386 N 
ATOM     18  H   UNL     1       3.079   7.570  -1.798  0.00  0.00    -0.081 HD
ENDBRANCH  12  17
BRANCH  12  19
ATOM     19  C   UNL     1       2.255   9.488   0.007  0.00  0.00    -0.022 A 
ATOM     20  C   UNL     1       2.186  10.433   0.976  0.00  0.00    +0.009 A 
ATOM     21  C   UNL     1       1.951  11.747   0.615  0.00  0.00    +0.008 A 
ATOM     22  C   UNL     1       1.796  12.050  -0.697  0.00  0.00    +0.045 A 
ATOM     23  S   UNL     1       1.990  10.453  -1.471  0.00  0.00    -0.103 S 
ENDBRANCH  12  19
ENDBRANCH  11  12
ENDBRANCH   9  11
ENDBRANCH   5   7
BRANCH   1  24
ATOM     24  S   UNL     1      -1.451   0.077  -0.333  0.00  0.00    +0.061 S 
ATOM     25  O   UNL     1      -2.308   0.697  -1.282  0.00  0.00    -0.153 OA
ATOM     26  O   UNL     1      -0.819  -1.171  -0.578  0.00  0.00    -0.153 OA
BRANCH  24  35
ATOM     27  C   UNL     1      -3.472   2.098   5.400  0.00  0.00    +0.000 A 
ATOM     28  C   UNL     1      -4.341   2.650   4.477  0.00  0.00    +0.000 A 
ATOM     29  C   UNL     1      -4.328   2.202   3.172  0.00  0.00    +0.005 A 
ATOM     30  C   UNL     1      -3.448   1.202   2.780  0.00  0.00    -0.028 A 
ATOM     31  C   UNL     1      -2.578   0.656   3.696  0.00  0.00    -0.042 A 
ATOM     32  C   UNL     1      -2.596   1.107   5.011  0.00  0.00    +0.004 A 
ATOM     33  C   UNL     1      -1.584  -0.418   3.340  0.00  0.00    +0.052 C 
ATOM     34  C   UNL     1      -1.996  -1.136   2.050  0.00  0.00    +0.114 C 
ATOM     35  N   UNL     1      -2.336  -0.104   1.056  0.00  0.00    -0.172 NA
ATOM     36  C   UNL     1      -3.492   0.752   1.341  0.00  0.00    +0.144 C 
ENDBRANCH  24  35
ENDBRANCH   1  24
TORSDOF 7
