REMARK  Name = ZINC20705880
REMARK  4 active torsions:
REMARK  status: ('A' for Active; 'I' for Inactive)
REMARK    1  A    between atoms: N_9  and  S_10
REMARK    2  A    between atoms: S_10  and  C_13
REMARK    3  A    between atoms: C_26  and  C_29
REMARK    4  A    between atoms: C_31  and  N_36
REMARK                            x       y       z     vdW  Elec       q    Type
REMARK                         _______ _______ _______ _____ _____    ______ ____
ROOT
ATOM      1  C   UNL     1      -0.221   4.976  -1.652  0.00  0.00    +0.109 A 
ATOM      2  C   UNL     1       0.440   5.996  -2.312  0.00  0.00    +0.030 A 
ATOM      3  C   UNL     1       0.141   6.277  -3.629  0.00  0.00    +0.025 A 
ATOM      4  C   UNL     1      -0.832   5.545  -4.300  0.00  0.00    +0.031 A 
ATOM      5  C   UNL     1      -1.507   4.525  -3.621  0.00  0.00    -0.018 A 
ATOM      6  C   UNL     1      -1.196   4.247  -2.308  0.00  0.00    +0.034 A 
ATOM      7  C   UNL     1      -2.553   3.788  -4.363  0.00  0.00    +0.049 C 
ATOM      8  C   UNL     1      -2.926   2.393  -4.015  0.00  0.00    -0.023 C 
ATOM      9  C   UNL     1      -3.310   1.768  -5.122  0.00  0.00    -0.030 C 
ATOM     10  C   UNL     1      -3.188   2.709  -6.322  0.00  0.00    +0.033 C 
ATOM     11  C   UNL     1      -2.095   3.675  -5.848  0.00  0.00    +0.029 C 
ATOM     12  C   UNL     1      -2.137   5.091  -6.394  0.00  0.00    +0.106 C 
ATOM     13  N   UNL     1      -1.104   5.838  -5.642  0.00  0.00    -0.336 N 
ATOM     14  H   UNL     1      -0.535   6.639  -6.136  0.00  0.00    +0.147 HD
ENDROOT
BRANCH  12  15
ATOM     15  C   UNL     1      -3.495   5.700  -6.158  0.00  0.00    -0.007 A 
ATOM     16  C   UNL     1      -3.691   6.563  -5.096  0.00  0.00    +0.039 A 
ATOM     17  C   UNL     1      -4.935   7.125  -4.883  0.00  0.00    +0.127 A 
ATOM     18  C   UNL     1      -5.987   6.817  -5.725  0.00  0.00    +0.034 A 
ATOM     19  C   UNL     1      -5.794   5.950  -6.784  0.00  0.00    +0.022 A 
ATOM     20  C   UNL     1      -4.547   5.391  -7.001  0.00  0.00    +0.046 A 
ATOM     21 CL   UNL     1      -4.304   4.302  -8.331  0.00  0.00    -0.083 Cl
BRANCH  17  22
ATOM     22  N   UNL     1      -5.143   8.053  -3.749  0.00  0.00    +0.056 N 
ATOM     23  O   UNL     1      -6.241   8.546  -3.558  0.00  0.00    -0.126 OA
ATOM     24  O   UNL     1      -4.216   8.325  -3.006  0.00  0.00    -0.126 OA
ENDBRANCH  17  22
ENDBRANCH  12  15
BRANCH   1  25
ATOM     25  S   UNL     1       0.174   4.610   0.026  0.00  0.00    +0.075 S 
ATOM     26  O   UNL     1      -0.970   3.977   0.584  0.00  0.00    -0.150 OA
ATOM     27  O   UNL     1       0.736   5.793   0.578  0.00  0.00    -0.150 OA
BRANCH  25  36
ATOM     28  C   UNL     1       1.206  -0.684  -0.013  0.00  0.00    +0.000 A 
ATOM     29  C   UNL     1       0.002  -0.004   0.002  0.00  0.00    +0.002 A 
ATOM     30  C   UNL     1      -0.017   1.374   0.010  0.00  0.00    +0.025 A 
ATOM     31  C   UNL     1       1.180   2.095   0.002  0.00  0.00    +0.054 A 
ATOM     32  C   UNL     1       2.381   1.404  -0.013  0.00  0.00    -0.023 A 
ATOM     33  C   UNL     1       2.395   0.022  -0.021  0.00  0.00    +0.005 A 
ATOM     34  C   UNL     1       3.513   2.407  -0.018  0.00  0.00    +0.058 C 
ATOM     35  C   UNL     1       2.815   3.776  -0.003  0.00  0.00    +0.136 C 
ATOM     36  N   UNL     1       1.381   3.476   0.008  0.00  0.00    -0.202 N 
ENDBRANCH  25  36
ENDBRANCH   1  25
TORSDOF 4
