REMARK  Name = ZINC12658607
REMARK  12 active torsions:
REMARK  status: ('A' for Active; 'I' for Inactive)
REMARK    1  A    between atoms: C_1  and  C_2
REMARK    2  A    between atoms: C_13  and  O_15
REMARK    3  A    between atoms: N_21  and  O_22
REMARK    4  A    between atoms: O_22  and  C_23
REMARK    5  A    between atoms: C_23  and  C_24
REMARK    6  A    between atoms: N_26  and  C_27
REMARK    7  A    between atoms: C_27  and  C_29
REMARK    8  A    between atoms: C_27  and  C_36
REMARK    9  A    between atoms: C_29  and  C_30
REMARK   10  A    between atoms: C_36  and  O_38
REMARK   11  A    between atoms: O_38  and  C_39
REMARK   12  A    between atoms: C_42  and  C_43
REMARK                            x       y       z     vdW  Elec       q    Type
REMARK                         _______ _______ _______ _____ _____    ______ ____
ROOT
ATOM      1  C   UNL     1      -2.873   0.333  -0.773  0.00  0.00    +0.014 C 
ATOM      2  C   UNL     1      -2.240   1.734  -0.703  0.00  0.00    -0.003 C 
ATOM      3  C   UNL     1      -3.119   2.670  -1.494  0.00  0.00    +0.010 C 
ATOM      4  C   UNL     1      -2.445   4.012  -1.775  0.00  0.00    +0.005 C 
ATOM      5  C   UNL     1      -1.139   3.747  -2.530  0.00  0.00    +0.002 C 
ATOM      6  C   UNL     1      -0.199   2.981  -1.602  0.00  0.00    -0.003 C 
ATOM      7  C   UNL     1      -0.799   1.629  -1.216  0.00  0.00    +0.001 C 
ATOM      8  C   UNL     1      -0.013   1.091   0.008  0.00  0.00    +0.007 C 
ATOM      9  C   UNL     1      -0.764   1.604   1.252  0.00  0.00    +0.032 C 
ATOM     10  C   UNL     1      -2.132   2.124   0.776  0.00  0.00    +0.121 C 
ATOM     11  C   UNL     1       0.106   3.815  -0.359  0.00  0.00    +0.008 C 
ATOM     12  C   UNL     1       0.845   5.090  -0.774  0.00  0.00    +0.031 C 
ATOM     13  C   UNL     1       0.035   5.822  -1.827  0.00  0.00    -0.062 C 
ATOM     14  C   UNL     1      -0.172   7.121  -1.643  0.00  0.00    +0.026 C 
ATOM     15  C   UNL     1      -0.899   7.919  -2.641  0.00  0.00    +0.080 C 
ATOM     16  N   UNL     1      -1.354   9.102  -2.360  0.00  0.00    -0.089 NA
ATOM     17  C   UNL     1      -1.099   7.301  -4.010  0.00  0.00    +0.059 C 
ATOM     18  C   UNL     1      -1.516   5.846  -3.821  0.00  0.00    +0.017 C 
ATOM     19  C   UNL     1      -0.510   5.061  -2.994  0.00  0.00    -0.007 C 
ATOM     20  C   UNL     1       0.663   4.718  -3.922  0.00  0.00    +0.016 C 
ENDROOT
BRANCH  10  21
ATOM     21  O   UNL     1      -3.180   1.495   1.522  0.00  0.00    -0.391 OA
ATOM     22  H   UNL     1      -3.169   1.701   2.466  0.00  0.00    +0.210 HD
ENDBRANCH  10  21
BRANCH  16  23
ATOM     23  O   UNL     1      -1.151   9.651  -1.071  0.00  0.00    -0.384 OA
BRANCH  23  24
ATOM     24  C   UNL     1      -1.704  10.958  -0.901  0.00  0.00    +0.358 C 
BRANCH  24  25
ATOM     25  C   UNL     1      -1.430  11.442   0.499  0.00  0.00    +0.254 C 
ATOM     26  O   UNL     1      -0.821  10.737   1.276  0.00  0.00    -0.272 OA
ATOM     27  N   UNL     1      -1.862  12.657   0.889  0.00  0.00    -0.299 N 
ATOM     28  H   UNL     1      -2.350  13.221   0.268  0.00  0.00    +0.150 HD
BRANCH  27  29
ATOM     29  C   UNL     1      -1.596  13.128   2.250  0.00  0.00    +0.186 C 
BRANCH  29  30
ATOM     30  C   UNL     1      -2.664  12.610   3.179  0.00  0.00    +0.328 C 
ATOM     31  O   UNL     1      -3.557  11.919   2.747  0.00  0.00    -0.249 OA
BRANCH  30  32
ATOM     32  O   UNL     1      -2.624  12.917   4.485  0.00  0.00    -0.467 OA
ATOM     33  C   UNL     1      -3.686  12.384   5.320  0.00  0.00    +0.280 C 
ENDBRANCH  30  32
ENDBRANCH  29  30
BRANCH  29  34
ATOM     34  C   UNL     1      -1.600  14.658   2.271  0.00  0.00    +0.069 C 
BRANCH  34  35
ATOM     35  C   UNL     1      -0.454  15.174   1.439  0.00  0.00    -0.045 A 
ATOM     36  C   UNL     1       0.777  15.405   2.026  0.00  0.00    +0.004 A 
ATOM     37  C   UNL     1       1.829  15.874   1.262  0.00  0.00    +0.000 A 
ATOM     38  C   UNL     1       1.648  16.122  -0.086  0.00  0.00    +0.000 A 
ATOM     39  C   UNL     1       0.416  15.896  -0.671  0.00  0.00    +0.000 A 
ATOM     40  C   UNL     1      -0.635  15.422   0.092  0.00  0.00    +0.004 A 
ENDBRANCH  34  35
ENDBRANCH  29  34
ENDBRANCH  27  29
ENDBRANCH  24  25
ENDBRANCH  23  24
ENDBRANCH  16  23
TORSDOF 9
