REMARK  Name = ZINC18415735
REMARK  10 active torsions:
REMARK  status: ('A' for Active; 'I' for Inactive)
REMARK    1  A    between atoms: C_1  and  C_2
REMARK    2  A    between atoms: C_2  and  C_3
REMARK    3  A    between atoms: C_3  and  C_30
REMARK    4  A    between atoms: N_6  and  C_10
REMARK    5  A    between atoms: C_10  and  C_11
REMARK    6  A    between atoms: N_13  and  C_14
REMARK    7  A    between atoms: C_14  and  C_16
REMARK    8  A    between atoms: C_14  and  C_27
REMARK    9  A    between atoms: C_27  and  C_28
REMARK   10  A    between atoms: C_27  and  C_29
REMARK                            x       y       z     vdW  Elec       q    Type
REMARK                         _______ _______ _______ _____ _____    ______ ____
ROOT
ATOM      1  C   UNL     1       2.908   1.264  -1.439  0.00  0.00    +0.231 C 
ATOM      2  O   UNL     1       2.165   1.554  -2.353  0.00  0.00    -0.274 OA
ATOM      3  N   UNL     1       4.140   0.784  -1.699  0.00  0.00    -0.307 N 
ATOM      4  H   UNL     1       4.734   0.552  -0.968  0.00  0.00    +0.149 HD
ENDROOT
BRANCH   1   5
ATOM      5  C   UNL     1       2.453   1.438  -0.013  0.00  0.00    +0.213 C 
BRANCH   5   9
ATOM      6  C   UNL     1      -0.727   3.357   0.027  0.00  0.00    +0.138 C 
ATOM      7  C   UNL     1       0.787   3.284   0.012  0.00  0.00    +0.251 C 
ATOM      8  O   UNL     1       1.565   4.213   0.009  0.00  0.00    -0.272 OA
ATOM      9  N   UNL     1       1.087   1.970   0.002  0.00  0.00    -0.215 N 
ATOM     10  C   UNL     1      -0.014   1.211   0.009  0.00  0.00    +0.310 C 
ATOM     11  O   UNL     1       0.002  -0.004   0.002  0.00  0.00    -0.252 OA
ATOM     12  N   UNL     1      -1.143   1.944   0.018  0.00  0.00    -0.281 N 
ATOM     13  H   UNL     1      -2.052   1.607   0.019  0.00  0.00    +0.152 HD
BRANCH   6  14
ATOM     14  C   UNL     1      -1.212   4.049   1.275  0.00  0.00    -0.015 A 
ATOM     15  C   UNL     1      -1.398   5.419   1.278  0.00  0.00    +0.006 A 
ATOM     16  C   UNL     1      -1.847   6.053   2.421  0.00  0.00    +0.000 A 
ATOM     17  C   UNL     1      -2.101   5.318   3.564  0.00  0.00    +0.000 A 
ATOM     18  C   UNL     1      -1.911   3.949   3.563  0.00  0.00    +0.000 A 
ATOM     19  C   UNL     1      -1.467   3.314   2.418  0.00  0.00    +0.006 A 
ENDBRANCH   6  14
BRANCH   6  21
ATOM     20  C   UNL     1      -0.889   3.259  -2.464  0.00  0.00    +0.007 C 
ATOM     21  C   UNL     1      -1.244   4.076  -1.221  0.00  0.00    +0.037 C 
ENDBRANCH   6  21
ENDBRANCH   5   9
ENDBRANCH   1   5
BRANCH   3  22
ATOM     22  C   UNL     1       4.583   0.614  -3.085  0.00  0.00    +0.106 C 
BRANCH  22  23
ATOM     23  C   UNL     1       6.088   0.673  -3.143  0.00  0.00    -0.023 A 
ATOM     24  C   UNL     1       6.839   0.068  -2.153  0.00  0.00    +0.009 A 
ATOM     25  C   UNL     1       8.221   0.113  -2.202  0.00  0.00    +0.050 A 
ATOM     26  C   UNL     1       8.849   0.777  -3.242  0.00  0.00    +0.162 A 
ATOM     27  C   UNL     1       8.095   1.389  -4.232  0.00  0.00    +0.162 A 
ATOM     28  C   UNL     1       6.712   1.337  -4.183  0.00  0.00    +0.055 A 
ATOM     29  O   UNL     1       8.724   2.040  -5.254  0.00  0.00    -0.488 OA
ATOM     30  C   UNL     1       9.420   3.236  -4.897  0.00  0.00    +0.232 C 
ATOM     31  C   UNL     1      10.817   2.917  -4.389  0.00  0.00    +0.082 C 
ATOM     32  C   UNL     1      10.793   2.122  -3.093  0.00  0.00    +0.232 C 
ATOM     33  O   UNL     1      10.212   0.833  -3.300  0.00  0.00    -0.488 OA
ENDBRANCH  22  23
BRANCH  22  34
ATOM     34  C   UNL     1       4.105  -0.741  -3.611  0.00  0.00    +0.008 C 
ATOM     35  C   UNL     1       2.577  -0.800  -3.552  0.00  0.00    +0.009 C 
ATOM     36  C   UNL     1       4.567  -0.918  -5.058  0.00  0.00    +0.009 C 
ENDBRANCH  22  34
ENDBRANCH   3  22
TORSDOF 7
