REMARK  Name = ZINC09234048
REMARK  4 active torsions:
REMARK  status: ('A' for Active; 'I' for Inactive)
REMARK    1  A    between atoms: C_3  and  C_10
REMARK    2  A    between atoms: C_5  and  N_7
REMARK    3  A    between atoms: C_18  and  C_20
REMARK    4  A    between atoms: C_20  and  C_22
REMARK                            x       y       z     vdW  Elec       q    Type
REMARK                         _______ _______ _______ _____ _____    ______ ____
ROOT
ATOM      1  C   UNL     1      -3.288   1.052  -0.460  0.00  0.00    +0.016 C 
ATOM      2  C   UNL     1      -2.962   0.644   0.988  0.00  0.00    -0.047 C 
ATOM      3  C   UNL     1      -4.273   0.641   1.801  0.00  0.00    +0.052 C 
ATOM      4  S   UNL     1      -3.999   2.042   2.968  0.00  0.00    -0.181 S 
ATOM      5  C   UNL     1      -2.593   2.817   2.084  0.00  0.00    -0.005 C 
ATOM      6  C   UNL     1      -1.173   2.011   0.301  0.00  0.00    +0.052 C 
ATOM      7  C   UNL     1      -2.108   1.938  -0.910  0.00  0.00    +0.069 C 
ATOM      8  C   UNL     1      -0.605   3.393   0.472  0.00  0.00    -0.024 A 
ATOM      9  C   UNL     1      -1.173   4.630   0.678  0.00  0.00    +0.043 A 
ATOM     10  C   UNL     1      -0.368   5.752   0.794  0.00  0.00    +0.124 A 
ATOM     11  C   UNL     1       1.008   5.623   0.702  0.00  0.00    +0.040 A 
ATOM     12  C   UNL     1       1.579   4.385   0.495  0.00  0.00    +0.026 A 
ATOM     13  C   UNL     1       0.776   3.253   0.378  0.00  0.00    +0.036 A 
ATOM     14  N   UNL     1       1.113   1.913   0.170  0.00  0.00    -0.286 N 
ATOM     15  C   UNL     1       0.026   1.119   0.117  0.00  0.00    +0.212 C 
ATOM     16  O   UNL     1       0.016  -0.082  -0.053  0.00  0.00    -0.277 OA
ATOM     17  F   UNL     1      -0.923   6.966   0.997  0.00  0.00    -0.205 F 
ATOM     18  H   UNL     1       2.023   1.591   0.076  0.00  0.00    +0.155 HD
ATOM     19  N   UNL     1      -1.951   1.604   1.458  0.00  0.00    +0.401 N 
ATOM     20  H   UNL     1      -1.341   1.151   2.149  0.00  0.00    -0.078 HD
ENDROOT
BRANCH   1  23
ATOM     21  C   UNL     1      -6.054   3.449   0.465  0.00  0.00    +0.002 A 
ATOM     22  C   UNL     1      -4.876   2.727   0.508  0.00  0.00    +0.004 A 
ATOM     23  C   UNL     1      -4.575   1.835  -0.504  0.00  0.00    -0.043 A 
ATOM     24  C   UNL     1      -5.456   1.658  -1.554  0.00  0.00    +0.036 A 
ATOM     25  C   UNL     1      -6.637   2.376  -1.595  0.00  0.00    +0.126 A 
ATOM     26  C   UNL     1      -6.936   3.272  -0.585  0.00  0.00    +0.033 A 
BRANCH  25  27
ATOM     27  N   UNL     1      -7.581   2.186  -2.719  0.00  0.00    +0.056 N 
ATOM     28  O   UNL     1      -7.317   1.396  -3.608  0.00  0.00    -0.126 OA
ATOM     29  O   UNL     1      -8.621   2.818  -2.754  0.00  0.00    -0.126 OA
ENDBRANCH  25  27
ENDBRANCH   1  23
BRANCH   7  30
ATOM     30  C   UNL     1      -2.598   3.315  -1.276  0.00  0.00    +0.168 C 
ATOM     31  O   UNL     1      -3.303   3.932  -0.507  0.00  0.00    -0.292 OA
BRANCH  30  32
ATOM     32  C   UNL     1      -2.220   3.911  -2.568  0.00  0.00    +0.036 A 
ATOM     33  C   UNL     1      -2.674   5.190  -2.924  0.00  0.00    +0.014 A 
ATOM     34  C   UNL     1      -2.287   5.706  -4.147  0.00  0.00    +0.020 A 
ATOM     35  C   UNL     1      -1.480   4.948  -4.977  0.00  0.00    +0.111 A 
ATOM     36  N   UNL     1      -1.071   3.745  -4.620  0.00  0.00    -0.263 NA
ATOM     37  C   UNL     1      -1.408   3.211  -3.464  0.00  0.00    +0.122 A 
ENDBRANCH  30  32
ENDBRANCH   7  30
TORSDOF 4
