REMARK  Name = ZINC37376657
REMARK  8 active torsions:
REMARK  status: ('A' for Active; 'I' for Inactive)
REMARK    1  A    between atoms: C_1  and  C_2
REMARK    2  A    between atoms: C_2  and  C_3
REMARK    3  A    between atoms: C_2  and  C_4
REMARK    4  A    between atoms: C_7  and  C_10
REMARK    5  A    between atoms: C_12  and  N_34
REMARK    6  A    between atoms: N_13  and  C_27
REMARK    7  A    between atoms: N_19  and  C_20
REMARK    8  A    between atoms: C_20  and  C_21
REMARK                            x       y       z     vdW  Elec       q    Type
REMARK                         _______ _______ _______ _____ _____    ______ ____
ROOT
ATOM      1  C   UNL     1      -5.492  -1.758   0.075  0.00  0.00    +0.089 A 
ATOM      2  C   UNL     1      -6.200  -1.948  -1.132  0.00  0.00    +0.086 A 
ATOM      3  C   UNL     1      -5.947  -1.726  -2.481  0.00  0.00    +0.131 A 
ATOM      4  N   UNL     1      -7.037  -2.118  -3.168  0.00  0.00    -0.216 N 
ATOM      5  N   UNL     1      -8.011  -2.597  -2.284  0.00  0.00    -0.144 NA
ATOM      6  C   UNL     1      -7.558  -2.517  -1.052  0.00  0.00    +0.189 A 
ATOM      7  N   UNL     1      -8.041  -2.821   0.168  0.00  0.00    -0.193 NA
ATOM      8  C   UNL     1      -7.311  -2.611   1.244  0.00  0.00    +0.218 A 
ATOM      9  N   UNL     1      -6.081  -2.107   1.211  0.00  0.00    -0.214 NA
ATOM     10  N   UNL     1      -7.851  -2.940   2.475  0.00  0.00    -0.311 N 
ATOM     11  H   UNL     1      -7.335  -2.796   3.284  0.00  0.00    +0.149 HD
ENDROOT
BRANCH   4  12
ATOM     12  C   UNL     1      -7.177  -2.055  -4.560  0.00  0.00    +0.068 A 
ATOM     13  C   UNL     1      -6.599  -1.010  -5.270  0.00  0.00    +0.030 A 
ATOM     14  C   UNL     1      -6.738  -0.950  -6.643  0.00  0.00    +0.040 A 
ATOM     15  C   UNL     1      -7.452  -1.930  -7.311  0.00  0.00    +0.124 A 
ATOM     16  C   UNL     1      -8.029  -2.972  -6.605  0.00  0.00    +0.040 A 
ATOM     17  C   UNL     1      -7.888  -3.040  -5.233  0.00  0.00    +0.030 A 
ATOM     18  F   UNL     1      -7.586  -1.869  -8.654  0.00  0.00    -0.205 F 
ENDBRANCH   4  12
BRANCH   1  22
ATOM     19  C   UNL     1      -1.565  -0.133   0.065  0.00  0.00    -0.045 A 
ATOM     20  C   UNL     1      -1.845  -1.254   0.825  0.00  0.00    +0.004 A 
ATOM     21  C   UNL     1      -3.117  -1.787   0.833  0.00  0.00    +0.010 A 
ATOM     22  C   UNL     1      -4.124  -1.192   0.072  0.00  0.00    +0.001 A 
ATOM     23  C   UNL     1      -3.836  -0.061  -0.693  0.00  0.00    +0.010 A 
ATOM     24  C   UNL     1      -2.560   0.465  -0.688  0.00  0.00    +0.004 A 
BRANCH  19  26
ATOM     25  C   UNL     1       0.215   0.848   1.486  0.00  0.00    +0.012 C 
ATOM     26  C   UNL     1      -0.173   0.444   0.062  0.00  0.00    +0.013 C 
ATOM     27  C   UNL     1       0.812  -0.605  -0.457  0.00  0.00    +0.012 C 
ENDBRANCH  19  26
ENDBRANCH   1  22
BRANCH   3  28
ATOM     28  N   UNL     1      -4.788  -1.199  -3.019  0.00  0.00    -0.342 N 
ATOM     29  H   UNL     1      -4.000  -1.093  -2.463  0.00  0.00    +0.144 HD
ATOM     30  H   UNL     1      -4.762  -0.936  -3.952  0.00  0.00    +0.144 HD
ENDBRANCH   3  28
BRANCH  10  31
ATOM     31  C   UNL     1      -9.200  -3.505   2.556  0.00  0.00    +0.136 C 
BRANCH  31  32
ATOM     32  C   UNL     1      -9.552  -3.776   4.020  0.00  0.00    +0.135 C 
ATOM     33  C   UNL     1     -10.963  -4.407   4.126  0.00  0.00    +0.035 C 
ATOM     34  C   UNL     1     -10.848  -5.160   5.479  0.00  0.00    +0.031 C 
ATOM     35  C   UNL     1      -9.371  -5.606   5.482  0.00  0.00    +0.160 C 
ATOM     36  O   UNL     1      -8.659  -4.754   4.575  0.00  0.00    -0.375 OA
ENDBRANCH  31  32
ENDBRANCH  10  31
TORSDOF 6
