REMARK  Name = ZINC38701172
REMARK  9 active torsions:
REMARK  status: ('A' for Active; 'I' for Inactive)
REMARK    1  A    between atoms: C_1  and  C_2
REMARK    2  A    between atoms: C_2  and  O_3
REMARK    3  A    between atoms: O_3  and  C_4
REMARK    4  A    between atoms: C_8  and  C_10
REMARK    5  A    between atoms: C_15  and  O_24
REMARK    6  A    between atoms: C_19  and  N_23
REMARK    7  A    between atoms: C_20  and  C_21
REMARK    8  A    between atoms: O_24  and  C_25
REMARK    9  A    between atoms: C_25  and  C_27
REMARK                            x       y       z     vdW  Elec       q    Type
REMARK                         _______ _______ _______ _____ _____    ______ ____
ROOT
ATOM      1  C   UNL     1       2.178  -4.208  -3.825  0.00  0.00    +0.098 C 
ATOM      2  C   UNL     1       1.224  -5.070  -4.609  0.00  0.00    +0.008 A 
ATOM      3  C   UNL     1       0.202  -4.474  -5.326  0.00  0.00    +0.012 A 
ATOM      4  C   UNL     1      -0.682  -5.249  -6.051  0.00  0.00    +0.047 A 
ATOM      5  C   UNL     1      -0.547  -6.630  -6.062  0.00  0.00    +0.135 A 
ATOM      6  C   UNL     1       0.476  -7.229  -5.345  0.00  0.00    +0.093 A 
ATOM      7  C   UNL     1       1.364  -6.449  -4.616  0.00  0.00    +0.138 A 
ATOM      8  O   UNL     1       2.360  -7.051  -3.920  0.00  0.00    -0.441 OA
ATOM      9  C   UNL     1       3.435  -6.340  -3.538  0.00  0.00    +0.199 C 
ATOM     10  C   UNL     1       3.412  -4.991  -3.473  0.00  0.00    +0.098 C 
ENDROOT
BRANCH   1  15
ATOM     11  C   UNL     1       0.716  -1.961  -1.162  0.00  0.00    +0.121 A 
ATOM     12  C   UNL     1       0.268  -2.890  -0.235  0.00  0.00    +0.045 A 
ATOM     13  C   UNL     1       0.439  -4.240  -0.473  0.00  0.00    +0.004 A 
ATOM     14  C   UNL     1       1.057  -4.665  -1.635  0.00  0.00    +0.005 A 
ATOM     15  C   UNL     1       1.505  -3.741  -2.560  0.00  0.00    -0.031 A 
ATOM     16  C   UNL     1       1.331  -2.390  -2.329  0.00  0.00    +0.050 A 
BRANCH  11  17
ATOM     17  O   UNL     1       0.548  -0.632  -0.930  0.00  0.00    -0.492 OA
BRANCH  17  19
ATOM     18  C   UNL     1      -0.192   1.261   0.377  0.00  0.00    +0.048 C 
ATOM     19  C   UNL     1      -0.093  -0.263   0.293  0.00  0.00    +0.225 C 
ENDBRANCH  17  19
ENDBRANCH  11  17
ENDBRANCH   1  15
BRANCH   9  20
ATOM     20  N   UNL     1       4.588  -7.006  -3.204  0.00  0.00    -0.328 N 
ATOM     21  H   UNL     1       4.619  -7.974  -3.246  0.00  0.00    +0.145 HD
ATOM     22  H   UNL     1       5.372  -6.507  -2.927  0.00  0.00    +0.145 HD
ENDBRANCH   9  20
BRANCH  10  23
ATOM     23  C   UNL     1       4.591  -4.293  -3.057  0.00  0.00    +0.101 C 
ATOM     24  N   UNL     1       5.527  -3.740  -2.727  0.00  0.00    -0.191 NA
ENDBRANCH  10  23
BRANCH   5  25
ATOM     25  O   UNL     1      -1.416  -7.394  -6.775  0.00  0.00    -0.422 OA
BRANCH  25  26
ATOM     26  C   UNL     1      -1.358  -7.330  -8.121  0.00  0.00    +0.353 C 
ATOM     27  O   UNL     1      -0.479  -6.686  -8.662  0.00  0.00    -0.244 OA
BRANCH  26  28
ATOM     28  C   UNL     1      -2.355  -8.036  -8.932  0.00  0.00    +0.116 A 
ATOM     29  C   UNL     1      -2.458  -8.094 -10.289  0.00  0.00    +0.070 A 
ATOM     30  C   UNL     1      -3.499  -8.834 -10.881  0.00  0.00    +0.008 A 
ATOM     31  C   UNL     1      -3.773  -9.014 -12.261  0.00  0.00    +0.010 A 
ATOM     32  C   UNL     1      -4.828  -9.765 -12.668  0.00  0.00    +0.001 A 
ATOM     33  C   UNL     1      -5.676 -10.383 -11.757  0.00  0.00    +0.001 A 
ATOM     34  C   UNL     1      -5.446 -10.235 -10.405  0.00  0.00    +0.016 A 
ATOM     35  C   UNL     1      -4.379  -9.475  -9.977  0.00  0.00    +0.022 A 
ATOM     36  S   UNL     1      -3.728  -9.036  -8.384  0.00  0.00    -0.080 S 
ATOM     37 CL   UNL     1      -1.309  -7.258 -11.286  0.00  0.00    -0.082 Cl
ENDBRANCH  26  28
ENDBRANCH  25  26
ENDBRANCH   5  25
TORSDOF 8
