REMARK  Name = ZINC07516380
REMARK  8 active torsions:
REMARK  status: ('A' for Active; 'I' for Inactive)
REMARK    1  A    between atoms: C_1  and  O_2
REMARK    2  A    between atoms: O_2  and  C_3
REMARK    3  A    between atoms: C_3  and  C_5
REMARK    4  A    between atoms: C_5  and  N_6
REMARK    5  A    between atoms: C_10  and  S_24
REMARK    6  A    between atoms: N_15  and  C_16
REMARK    7  A    between atoms: C_16  and  C_18
REMARK    8  A    between atoms: S_24  and  C_25
REMARK                            x       y       z     vdW  Elec       q    Type
REMARK                         _______ _______ _______ _____ _____    ______ ____
ROOT
ATOM      1  N   UNL     1      -1.285   2.491  -0.135  0.00  0.00    -0.310 N 
ATOM      2  C   UNL     1      -0.111   1.945  -0.626  0.00  0.00    +0.058 A 
ATOM      3  C   UNL     1       0.116   0.615  -1.019  0.00  0.00    +0.028 A 
ATOM      4  C   UNL     1       1.340   0.216  -1.496  0.00  0.00    +0.017 A 
ATOM      5  C   UNL     1       2.397   1.114  -1.607  0.00  0.00    +0.009 A 
ATOM      6  C   UNL     1       2.200   2.437  -1.226  0.00  0.00    +0.032 A 
ATOM      7  C   UNL     1       0.972   2.829  -0.749  0.00  0.00    +0.040 A 
ATOM      8  S   UNL     1       0.311   4.373  -0.170  0.00  0.00    -0.052 S 
ATOM      9  C   UNL     1      -1.341   3.809   0.207  0.00  0.00    +0.167 A 
ATOM     10  N   UNL     1      -2.365   4.500   0.692  0.00  0.00    -0.152 NA
ENDROOT
BRANCH  10  11
ATOM     11  C   UNL     1      -2.224   5.804   0.965  0.00  0.00    +0.276 C 
ATOM     12  O   UNL     1      -1.154   6.357   0.767  0.00  0.00    -0.267 OA
BRANCH  11  13
ATOM     13  C   UNL     1      -3.358   6.569   1.502  0.00  0.00    +0.077 A 
ATOM     14  C   UNL     1      -3.420   7.907   1.852  0.00  0.00    +0.022 A 
ATOM     15  C   UNL     1      -4.619   8.375   2.331  0.00  0.00    +0.028 A 
ATOM     16  C   UNL     1      -5.666   7.515   2.448  0.00  0.00    +0.079 A 
ATOM     17  S   UNL     1      -5.010   6.014   1.881  0.00  0.00    -0.072 S 
ATOM     18 CL   UNL     1      -7.271   7.841   3.026  0.00  0.00    -0.076 Cl
ENDBRANCH  11  13
ENDBRANCH  10  11
BRANCH   5  19
ATOM     19  S   UNL     1       3.961   0.585  -2.223  0.00  0.00    -0.129 S 
ATOM     20  C   UNL     1       3.719  -1.178  -2.575  0.00  0.00    +0.090 C 
ENDBRANCH   5  19
BRANCH   1  21
ATOM     21  C   UNL     1      -2.472   1.646   0.022  0.00  0.00    +0.244 C 
BRANCH  21  22
ATOM     22  C   UNL     1      -3.166   1.990   1.315  0.00  0.00    +0.327 C 
ATOM     23  O   UNL     1      -2.633   2.728   2.109  0.00  0.00    -0.249 OA
BRANCH  22  25
ATOM     24  C   UNL     1      -4.986   1.851   2.848  0.00  0.00    +0.280 C 
ATOM     25  O   UNL     1      -4.377   1.476   1.584  0.00  0.00    -0.467 OA
ENDBRANCH  22  25
ENDBRANCH  21  22
ENDBRANCH   1  21
TORSDOF 6
