REMARK  Name = ZINC35840341
REMARK  13 active torsions:
REMARK  status: ('A' for Active; 'I' for Inactive)
REMARK    1  A    between atoms: C_1  and  C_2
REMARK    2  A    between atoms: C_2  and  C_3
REMARK    3  A    between atoms: C_8  and  N_9
REMARK    4  A    between atoms: C_15  and  C_17
REMARK    5  A    between atoms: C_20  and  C_22
REMARK    6  A    between atoms: C_22  and  N_23
REMARK    7  A    between atoms: N_26  and  C_29
REMARK    8  A    between atoms: C_29  and  C_30
REMARK    9  A    between atoms: C_30  and  C_32
REMARK   10  A    between atoms: C_30  and  O_40
REMARK   11  A    between atoms: C_32  and  O_33
REMARK   12  A    between atoms: O_33  and  C_34
REMARK   13  A    between atoms: C_34  and  C_35
REMARK                            x       y       z     vdW  Elec       q    Type
REMARK                         _______ _______ _______ _____ _____    ______ ____
ROOT
ATOM      1  C   UNL     1      -0.976   1.583  -6.486  0.00  0.00    +0.164 A 
ATOM      2  C   UNL     1      -0.474   1.951  -7.696  0.00  0.00    +0.230 A 
ATOM      3  O   UNL     1      -0.871   3.214  -7.916  0.00  0.00    -0.449 OA
ATOM      4  C   UNL     1      -1.600   3.614  -6.865  0.00  0.00    +0.179 A 
ATOM      5  N   UNL     1      -1.676   2.645  -6.003  0.00  0.00    -0.210 NA
ENDROOT
BRANCH   1  12
ATOM      6  N   UNL     1      -0.931  -0.022  -1.849  0.00  0.00    -0.327 N 
ATOM      7  C   UNL     1      -0.420  -1.155  -2.633  0.00  0.00    +0.124 C 
ATOM      8  C   UNL     1      -1.209  -1.238  -3.946  0.00  0.00    +0.127 C 
ATOM      9  N   UNL     1      -1.236   0.096  -4.562  0.00  0.00    -0.293 N 
ATOM     10  C   UNL     1      -1.747   1.229  -3.778  0.00  0.00    +0.127 C 
ATOM     11  C   UNL     1      -0.963   1.311  -2.467  0.00  0.00    +0.124 C 
ATOM     12  C   UNL     1      -0.799   0.277  -5.825  0.00  0.00    +0.268 C 
ATOM     13  O   UNL     1      -0.260  -0.637  -6.418  0.00  0.00    -0.268 OA
BRANCH   6  19
ATOM     14  C   UNL     1      -0.502  -0.084   0.525  0.00  0.00    -0.027 A 
ATOM     15  C   UNL     1      -0.954  -0.265   1.818  0.00  0.00    +0.005 A 
ATOM     16  C   UNL     1      -2.281  -0.576   2.051  0.00  0.00    +0.000 A 
ATOM     17  C   UNL     1      -3.160  -0.707   0.991  0.00  0.00    +0.002 A 
ATOM     18  C   UNL     1      -2.715  -0.527  -0.303  0.00  0.00    +0.023 A 
ATOM     19  C   UNL     1      -1.383  -0.209  -0.541  0.00  0.00    +0.033 A 
BRANCH  14  21
ATOM     20  C   UNL     1       1.100   1.772   0.156  0.00  0.00    +0.009 C 
ATOM     21  C   UNL     1       0.945   0.254   0.272  0.00  0.00    +0.033 C 
ENDBRANCH  14  21
ENDBRANCH   6  19
ENDBRANCH   1  12
BRANCH   4  22
ATOM     22  C   UNL     1      -2.237   4.971  -6.711  0.00  0.00    +0.019 C 
BRANCH  22  23
ATOM     23  N   UNL     1      -1.296   5.880  -6.042  0.00  0.00    +0.387 N 
ATOM     24  C   UNL     1      -0.126   6.094  -6.904  0.00  0.00    -0.063 C 
ATOM     25  C   UNL     1       0.863   7.026  -6.200  0.00  0.00    +0.066 C 
ATOM     26  N   UNL     1       0.204   8.307  -5.913  0.00  0.00    -0.303 NA
ATOM     27  C   UNL     1      -0.984   8.107  -5.071  0.00  0.00    +0.066 C 
ATOM     28  C   UNL     1      -1.957   7.166  -5.784  0.00  0.00    -0.063 C 
ATOM     29  H   UNL     1      -0.999   5.473  -5.168  0.00  0.00    -0.081 HD
BRANCH  26  30
ATOM     30  C   UNL     1       1.140   9.251  -5.287  0.00  0.00    +0.117 C 
BRANCH  30  31
ATOM     31  C   UNL     1       2.047   9.857  -6.359  0.00  0.00    +0.154 C 
BRANCH  31  32
ATOM     32  O   UNL     1       1.254  10.590  -7.295  0.00  0.00    -0.388 OA
ATOM     33  H   UNL     1       0.753  11.317  -6.902  0.00  0.00    +0.210 HD
ENDBRANCH  31  32
BRANCH  31  34
ATOM     34  C   UNL     1       3.058  10.798  -5.700  0.00  0.00    +0.193 C 
BRANCH  34  35
ATOM     35  O   UNL     1       3.978  11.274  -6.685  0.00  0.00    -0.370 OA
BRANCH  35  36
ATOM     36  C   UNL     1       4.970  12.165  -6.171  0.00  0.00    +0.234 C 
BRANCH  36  37
ATOM     37  C   UNL     1       5.881  12.601  -7.289  0.00  0.00    +0.130 A 
ATOM     38  C   UNL     1       5.703  13.680  -8.073  0.00  0.00    +0.047 A 
ATOM     39  C   UNL     1       6.787  13.709  -8.981  0.00  0.00    +0.041 A 
ATOM     40  C   UNL     1       7.561  12.647  -8.698  0.00  0.00    +0.195 A 
ATOM     41  O   UNL     1       7.011  11.983  -7.668  0.00  0.00    -0.465 OA
ENDBRANCH  36  37
ENDBRANCH  35  36
ENDBRANCH  34  35
ENDBRANCH  31  34
ENDBRANCH  30  31
ENDBRANCH  26  30
ENDBRANCH  22  23
ENDBRANCH   4  22
TORSDOF 12
