REMARK  Name = ZINC35042703
REMARK  12 active torsions:
REMARK  status: ('A' for Active; 'I' for Inactive)
REMARK    1  A    between atoms: C_1  and  C_2
REMARK    2  A    between atoms: C_2  and  C_3
REMARK    3  A    between atoms: C_3  and  C_4
REMARK    4  A    between atoms: C_4  and  C_5
REMARK    5  A    between atoms: N_7  and  C_8
REMARK    6  A    between atoms: N_7  and  C_13
REMARK    7  A    between atoms: C_8  and  C_9
REMARK    8  A    between atoms: C_9  and  C_10
REMARK    9  A    between atoms: C_10  and  C_11
REMARK   10  A    between atoms: C_10  and  C_12
REMARK   11  A    between atoms: C_13  and  C_15
REMARK   12  A    between atoms: C_13  and  C_16
REMARK                            x       y       z     vdW  Elec       q    Type
REMARK                         _______ _______ _______ _____ _____    ______ ____
ROOT
ATOM      1  C   UNL     1       2.269  -4.308  -3.932  0.00  0.00    +0.139 C 
ATOM      2  C   UNL     1       1.311  -5.166  -4.761  0.00  0.00    +0.036 C 
ENDROOT
BRANCH   1   3
ATOM      3  C   UNL     1       3.468  -5.131  -3.538  0.00  0.00    +0.131 A 
ATOM      4  N   UNL     1       4.182  -5.742  -4.519  0.00  0.00    -0.309 N 
ATOM      5  H   UNL     1       3.911  -5.639  -5.445  0.00  0.00    +0.170 HD
ATOM      6  C   UNL     1       5.267  -6.493  -4.218  0.00  0.00    +0.259 A 
ATOM      7  O   UNL     1       5.915  -7.045  -5.088  0.00  0.00    -0.267 OA
ATOM      8  C   UNL     1       5.633  -6.614  -2.799  0.00  0.00    +0.065 A 
ATOM      9  C   UNL     1       6.732  -7.363  -2.383  0.00  0.00    +0.017 A 
ATOM     10  C   UNL     1       7.029  -7.443  -1.051  0.00  0.00    +0.021 A 
ATOM     11  C   UNL     1       6.247  -6.787  -0.107  0.00  0.00    +0.043 A 
ATOM     12  C   UNL     1       5.154  -6.041  -0.494  0.00  0.00    +0.048 A 
ATOM     13  C   UNL     1       4.831  -5.943  -1.849  0.00  0.00    +0.080 A 
ATOM     14  N   UNL     1       3.770  -5.216  -2.278  0.00  0.00    -0.232 NA
ATOM     15 CL   UNL     1       6.650  -6.909   1.577  0.00  0.00    -0.083 Cl
ENDBRANCH   1   3
BRANCH   1  18
ATOM     16  C   UNL     1       1.444  -2.513  -2.505  0.00  0.00    +0.216 C 
ATOM     17  O   UNL     1       1.887  -1.715  -3.303  0.00  0.00    -0.276 OA
ATOM     18  N   UNL     1       1.583  -3.835  -2.727  0.00  0.00    -0.292 N 
BRANCH  16  19
ATOM     19  C   UNL     1       0.739  -2.027  -1.265  0.00  0.00    +0.096 C 
BRANCH  19  20
ATOM     20  C   UNL     1       0.718  -0.497  -1.257  0.00  0.00    +0.009 C 
BRANCH  20  22
ATOM     21  C   UNL     1      -0.019   1.526   0.010  0.00  0.00    +0.004 C 
ATOM     22  C   UNL     1       0.002  -0.004   0.002  0.00  0.00    -0.003 C 
ENDBRANCH  20  22
ENDBRANCH  19  20
ENDBRANCH  16  19
BRANCH  18  23
ATOM     23  C   UNL     1       1.049  -4.800  -1.762  0.00  0.00    +0.109 C 
BRANCH  23  24
ATOM     24  C   UNL     1      -0.393  -5.149  -2.136  0.00  0.00    +0.022 C 
BRANCH  24  25
ATOM     25  C   UNL     1      -0.952  -6.157  -1.129  0.00  0.00    -0.016 C 
ATOM     26  C   UNL     1      -2.430  -6.411  -1.428  0.00  0.00    +0.007 C 
ATOM     27  C   UNL     1      -0.176  -7.471  -1.239  0.00  0.00    +0.007 C 
ENDBRANCH  24  25
ENDBRANCH  23  24
ENDBRANCH  18  23
ENDBRANCH   1  18
TORSDOF 8
