REMARK  Name = ZINC39469771
REMARK  8 active torsions:
REMARK  status: ('A' for Active; 'I' for Inactive)
REMARK    1  A    between atoms: C_1  and  C_2
REMARK    2  A    between atoms: C_2  and  O_3
REMARK    3  A    between atoms: O_3  and  C_4
REMARK    4  A    between atoms: P_13  and  S_29
REMARK    5  A    between atoms: C_21  and  C_22
REMARK    6  A    between atoms: C_22  and  C_23
REMARK    7  A    between atoms: S_29  and  O_32
REMARK    8  A    between atoms: O_32  and  C_33
REMARK                            x       y       z     vdW  Elec       q    Type
REMARK                         _______ _______ _______ _____ _____    ______ ____
ROOT
ATOM      1  C   UNL     1       0.777  -1.810  -1.336  0.00  0.00    +0.120 C 
ATOM      2  C   UNL     1       0.262  -2.641  -0.421  0.00  0.00    +0.023 C 
ATOM      3  C   UNL     1       0.387  -4.124  -0.641  0.00  0.00    +0.019 C 
ATOM      4  C   UNL     1      -0.679  -4.897   0.128  0.00  0.00    -0.002 C 
ATOM      5  C   UNL     1      -0.532  -6.397  -0.162  0.00  0.00    -0.020 C 
ATOM      6  C   UNL     1      -1.638  -7.123   0.615  0.00  0.00    +0.158 C 
ATOM      7  O   UNL     1      -1.486  -8.544   0.445  0.00  0.00    -0.301 OA
ATOM      8  P   UNL     1      -1.321  -9.111  -1.071  0.00  0.00    +0.431 P 
ATOM      9  O   UNL     1      -2.643  -9.213  -1.728  0.00  0.00    -0.246 OA
ATOM     10  N   UNL     1      -0.378  -8.002  -1.849  0.00  0.00    -0.271 NA
ATOM     11  N   UNL     1      -0.640  -6.671  -1.594  0.00  0.00    +0.398 N 
ATOM     12  C   UNL     1       0.363  -5.915  -2.365  0.00  0.00    -0.046 C 
ATOM     13  C   UNL     1       0.199  -4.419  -2.135  0.00  0.00    +0.005 C 
ATOM     14  C   UNL     1       1.190  -3.606  -2.921  0.00  0.00    -0.017 C 
ATOM     15  C   UNL     1       1.454  -2.363  -2.526  0.00  0.00    -0.005 C 
ATOM     16  H   UNL     1       0.321  -8.279  -2.463  0.00  0.00    +0.113 HD
ATOM     17  H   UNL     1      -1.566  -6.429  -1.914  0.00  0.00    -0.055 HD
ENDROOT
BRANCH   8  18
ATOM     18  S   UNL     1      -0.367 -11.005  -1.047  0.00  0.00    +0.209 S 
ATOM     19  O   UNL     1      -0.392 -11.489  -2.382  0.00  0.00    -0.126 OA
ATOM     20  O   UNL     1       0.842 -10.841  -0.318  0.00  0.00    -0.126 OA
BRANCH  18  21
ATOM     21  O   UNL     1      -1.245 -11.940  -0.228  0.00  0.00    -0.339 OA
BRANCH  21  22
ATOM     22  C   UNL     1      -2.366 -12.353  -0.875  0.00  0.00    +0.157 A 
ATOM     23  C   UNL     1      -3.538 -11.616  -0.773  0.00  0.00    +0.048 A 
ATOM     24  C   UNL     1      -4.676 -12.037  -1.432  0.00  0.00    +0.004 A 
ATOM     25  C   UNL     1      -4.650 -13.193  -2.192  0.00  0.00    +0.000 A 
ATOM     26  C   UNL     1      -3.484 -13.929  -2.294  0.00  0.00    +0.004 A 
ATOM     27  C   UNL     1      -2.341 -13.508  -1.642  0.00  0.00    +0.048 A 
ENDBRANCH  21  22
ENDBRANCH  18  21
ENDBRANCH   8  18
BRANCH   1  28
ATOM     28  O   UNL     1       0.671  -0.465  -1.174  0.00  0.00    -0.492 OA
BRANCH  28  30
ATOM     29  C   UNL     1      -0.019   1.526   0.010  0.00  0.00    +0.048 C 
ATOM     30  C   UNL     1       0.002  -0.004   0.002  0.00  0.00    +0.225 C 
ENDBRANCH  28  30
ENDBRANCH   1  28
BRANCH  15  31
ATOM     31  C   UNL     1       2.447  -1.525  -3.289  0.00  0.00    +0.073 C 
BRANCH  31  32
ATOM     32  C   UNL     1       1.716  -0.663  -4.286  0.00  0.00    -0.043 A 
ATOM     33  C   UNL     1       1.476  -1.136  -5.562  0.00  0.00    +0.004 A 
ATOM     34  C   UNL     1       0.805  -0.345  -6.477  0.00  0.00    +0.000 A 
ATOM     35  C   UNL     1       0.375   0.917  -6.115  0.00  0.00    +0.000 A 
ATOM     36  C   UNL     1       0.615   1.390  -4.838  0.00  0.00    +0.000 A 
ATOM     37  C   UNL     1       1.282   0.598  -3.922  0.00  0.00    +0.004 A 
ENDBRANCH  31  32
ENDBRANCH  15  31
TORSDOF 7
