REMARK  Name = ZINC07011034
REMARK  5 active torsions:
REMARK  status: ('A' for Active; 'I' for Inactive)
REMARK    1  A    between atoms: C_1  and  C_2
REMARK    2  A    between atoms: C_5  and  C_12
REMARK    3  A    between atoms: C_6  and  C_7
REMARK    4  A    between atoms: C_6  and  C_8
REMARK    5  A    between atoms: N_14  and  C_15
REMARK                            x       y       z     vdW  Elec       q    Type
REMARK                         _______ _______ _______ _____ _____    ______ ____
ROOT
ATOM      1  C   UNL     1       1.116  -3.297   1.382  0.00  0.00    +0.262 C 
ATOM      2  O   UNL     1       1.315  -3.179   2.573  0.00  0.00    -0.271 OA
ATOM      3  N   UNL     1       1.437  -4.447   0.757  0.00  0.00    -0.281 N 
ATOM      4  H   UNL     1       1.218  -4.567  -0.181  0.00  0.00    +0.155 HD
ENDROOT
BRANCH   1   9
ATOM      5  C   UNL     1      -0.063   1.516   0.018  0.00  0.00    +0.023 C 
ATOM      6  C   UNL     1      -0.032  -0.014   0.009  0.00  0.00    +0.074 C 
ATOM      7  C   UNL     1      -1.412  -0.744   0.050  0.00  0.00    +0.023 C 
ATOM      8  C   UNL     1      -1.041  -2.198   0.431  0.00  0.00    +0.059 C 
ATOM      9  C   UNL     1       0.509  -2.159   0.602  0.00  0.00    +0.195 C 
ATOM     10  C   UNL     1       0.699  -0.723   1.208  0.00  0.00    +0.029 C 
ATOM     11  C   UNL     1      -0.055  -0.563   2.530  0.00  0.00    +0.016 C 
ATOM     12  C   UNL     1       2.167  -0.306   1.328  0.00  0.00    +0.016 C 
ATOM     13  O   UNL     1       1.017  -1.950  -0.744  0.00  0.00    -0.448 OA
ATOM     14  C   UNL     1       0.720  -0.685  -1.152  0.00  0.00    +0.315 C 
ATOM     15  O   UNL     1       0.973  -0.188  -2.224  0.00  0.00    -0.250 OA
ENDBRANCH   1   9
BRANCH   3  16
ATOM     16  C   UNL     1       2.085  -5.470   1.460  0.00  0.00    +0.053 A 
ATOM     17  C   UNL     1       1.794  -5.684   2.801  0.00  0.00    +0.046 A 
ATOM     18  C   UNL     1       2.436  -6.694   3.493  0.00  0.00    +0.061 A 
ATOM     19  C   UNL     1       3.369  -7.491   2.850  0.00  0.00    +0.061 A 
ATOM     20  C   UNL     1       3.660  -7.279   1.515  0.00  0.00    +0.043 A 
ATOM     21  C   UNL     1       3.017  -6.274   0.817  0.00  0.00    +0.064 A 
ATOM     22 CL   UNL     1       3.379  -6.014  -0.861  0.00  0.00    -0.082 Cl
ATOM     23 CL   UNL     1       4.173  -8.758   3.723  0.00  0.00    -0.082 Cl
ATOM     24 CL   UNL     1       2.072  -6.963   5.169  0.00  0.00    -0.082 Cl
ENDBRANCH   3  16
TORSDOF 2
