REMARK  Name = ZINC03151406
REMARK  5 active torsions:
REMARK  status: ('A' for Active; 'I' for Inactive)
REMARK    1  A    between atoms: C_1  and  C_2
REMARK    2  A    between atoms: C_5  and  N_19
REMARK    3  A    between atoms: C_6  and  N_8
REMARK    4  A    between atoms: C_9  and  C_10
REMARK    5  A    between atoms: C_13  and  N_16
REMARK                            x       y       z     vdW  Elec       q    Type
REMARK                         _______ _______ _______ _____ _____    ______ ____
ROOT
ATOM      1  C   UNL     1      -0.052   1.356  -0.186  0.00  0.00    +0.044 C 
ATOM      2  C   UNL     1      -0.018  -0.150  -0.142  0.00  0.00    -0.048 A 
ATOM      3  C   UNL     1      -0.002  -0.873  -1.323  0.00  0.00    +0.005 A 
ATOM      4  C   UNL     1       0.029  -2.254  -1.296  0.00  0.00    +0.026 A 
ATOM      5  C   UNL     1       0.043  -2.926  -0.083  0.00  0.00    +0.060 A 
ATOM      6  C   UNL     1       0.028  -2.196   1.115  0.00  0.00    +0.085 A 
ATOM      7  C   UNL     1       0.002  -0.801   1.073  0.00  0.00    +0.033 A 
ENDROOT
BRANCH   5   8
ATOM      8  N   UNL     1       0.074  -4.322  -0.054  0.00  0.00    -0.268 N 
ATOM      9  C   UNL     1       0.592  -5.007  -1.093  0.00  0.00    +0.301 C 
ATOM     10  O   UNL     1       0.969  -4.413  -2.085  0.00  0.00    -0.253 OA
ATOM     11  N   UNL     1       0.693  -6.349  -1.033  0.00  0.00    -0.313 N 
ATOM     12  H   UNL     1      -0.278  -4.800   0.713  0.00  0.00    +0.156 HD
ATOM     13  H   UNL     1       0.393  -6.823  -0.241  0.00  0.00    +0.146 HD
ATOM     14  H   UNL     1       1.066  -6.842  -1.780  0.00  0.00    +0.146 HD
ENDBRANCH   5   8
BRANCH   6  15
ATOM     15  N   UNL     1       0.042  -2.848   2.317  0.00  0.00    -0.253 NA
ATOM     16  C   UNL     1       0.689  -2.339   3.326  0.00  0.00    +0.119 C 
BRANCH  16  17
ATOM     17  C   UNL     1       0.797  -3.092   4.587  0.00  0.00    -0.007 A 
ATOM     18  C   UNL     1       0.211  -4.356   4.703  0.00  0.00    +0.011 A 
ATOM     19  C   UNL     1       0.316  -5.054   5.888  0.00  0.00    +0.033 A 
ATOM     20  C   UNL     1       0.999  -4.508   6.960  0.00  0.00    +0.126 A 
ATOM     21  C   UNL     1       1.581  -3.257   6.853  0.00  0.00    +0.033 A 
ATOM     22  C   UNL     1       1.491  -2.549   5.673  0.00  0.00    +0.011 A 
BRANCH  20  23
ATOM     23  N   UNL     1       1.107  -5.264   8.227  0.00  0.00    +0.056 N 
ATOM     24  O   UNL     1       0.599  -6.357   8.324  0.00  0.00    -0.126 OA
ATOM     25  O   UNL     1       1.703  -4.789   9.166  0.00  0.00    -0.126 OA
ENDBRANCH  20  23
ENDBRANCH  16  17
ENDBRANCH   6  15
TORSDOF 4
