REMARK  Name = ZINC09060456
REMARK  2 active torsions:
REMARK  status: ('A' for Active; 'I' for Inactive)
REMARK    1  A    between atoms: C_3  and  N_9
REMARK    2  A    between atoms: C_10  and  C_12
REMARK                            x       y       z     vdW  Elec       q    Type
REMARK                         _______ _______ _______ _____ _____    ______ ____
ROOT
ATOM      1  C   UNL     1       4.821   4.011   0.194  0.00  0.00    +0.093 C 
ATOM      2  C   UNL     1       4.984   4.901  -1.041  0.00  0.00    +0.016 C 
ATOM      3  C   UNL     1       6.322   5.641  -0.954  0.00  0.00    +0.020 C 
ATOM      4  C   UNL     1       7.457   4.620  -0.840  0.00  0.00    +0.106 C 
ATOM      5  N   UNL     1       7.255   3.794   0.357  0.00  0.00    -0.313 N 
ATOM      6  C   UNL     1       5.999   3.038   0.275  0.00  0.00    +0.119 C 
ATOM      7  C   UNL     1       8.331   2.947   0.562  0.00  0.00    +0.152 A 
ATOM      8  C   UNL     1       9.636   3.457   0.671  0.00  0.00    +0.147 A 
ATOM      9  C   UNL     1      10.687   2.549   0.884  0.00  0.00    +0.163 A 
ATOM     10  N   UNL     1      11.830   3.304   0.958  0.00  0.00    -0.329 N 
ATOM     11  H   UNL     1      12.758   2.961   1.101  0.00  0.00    +0.168 HD
ATOM     12  C   UNL     1      11.469   4.609   0.801  0.00  0.00    +0.198 A 
ATOM     13  N   UNL     1      10.181   4.697   0.636  0.00  0.00    -0.231 NA
ATOM     14  N   UNL     1      10.413   1.251   0.963  0.00  0.00    -0.216 NA
ATOM     15  C   UNL     1       9.175   0.819   0.850  0.00  0.00    +0.225 A 
ATOM     16  N   UNL     1       8.155   1.634   0.654  0.00  0.00    -0.218 NA
ENDROOT
BRANCH   1  18
ATOM     17  N   UNL     1       2.358   3.888   0.001  0.00  0.00    -0.284 N 
ATOM     18  C   UNL     1       3.534   3.235   0.088  0.00  0.00    +0.222 C 
ATOM     19  O   UNL     1       3.555   2.022   0.082  0.00  0.00    -0.275 OA
ATOM     20  H   UNL     1       2.345   4.855  -0.075  0.00  0.00    +0.155 HD
BRANCH  17  23
ATOM     21  C   UNL     1      -0.087   1.216   0.638  0.00  0.00    +0.022 A 
ATOM     22  C   UNL     1       1.100   1.921   0.621  0.00  0.00    +0.026 A 
ATOM     23  C   UNL     1       1.155   3.171   0.019  0.00  0.00    +0.052 A 
ATOM     24  C   UNL     1       0.015   3.709  -0.565  0.00  0.00    +0.064 A 
ATOM     25  C   UNL     1      -1.170   2.999  -0.545  0.00  0.00    +0.041 A 
ATOM     26  C   UNL     1      -1.220   1.751   0.051  0.00  0.00    +0.042 A 
ATOM     27 CL   UNL     1      -2.709   0.858   0.068  0.00  0.00    -0.083 Cl
ATOM     28 CL   UNL     1       0.079   5.271  -1.319  0.00  0.00    -0.082 Cl
ENDBRANCH  17  23
ENDBRANCH   1  18
TORSDOF 2
