REMARK  Name = ZINC04663885
REMARK  8 active torsions:
REMARK  status: ('A' for Active; 'I' for Inactive)
REMARK    1  A    between atoms: C_1  and  C_2
REMARK    2  A    between atoms: C_3  and  C_30
REMARK    3  A    between atoms: C_4  and  C_23
REMARK    4  A    between atoms: C_10  and  C_15
REMARK    5  A    between atoms: C_18  and  O_21
REMARK    6  A    between atoms: O_21  and  C_22
REMARK    7  A    between atoms: C_30  and  O_32
REMARK    8  A    between atoms: O_32  and  C_33
REMARK                            x       y       z     vdW  Elec       q    Type
REMARK                         _______ _______ _______ _____ _____    ______ ____
ROOT
ATOM      1  C   UNL     1       8.200  -3.172  -6.713  0.00  0.00    +0.061 C 
ATOM      2  C   UNL     1       6.694  -3.235  -6.742  0.00  0.00    +0.031 C 
ATOM      3  C   UNL     1       6.050  -3.259  -7.921  0.00  0.00    +0.154 C 
ATOM      4  C   UNL     1       4.554  -3.326  -7.990  0.00  0.00    +0.076 C 
ATOM      5  C   UNL     1       3.932  -2.939  -6.672  0.00  0.00    +0.025 C 
ATOM      6  C   UNL     1       4.667  -2.928  -5.540  0.00  0.00    +0.049 C 
ATOM      7  N   UNL     1       5.993  -3.268  -5.569  0.00  0.00    -0.260 NA
ATOM      8  C   UNL     1       4.052  -2.542  -4.218  0.00  0.00    +0.064 C 
ATOM      9  C   UNL     1       2.572  -2.923  -4.206  0.00  0.00    +0.032 C 
ATOM     10  C   UNL     1       1.876  -2.217  -5.375  0.00  0.00    +0.088 C 
ATOM     11  C   UNL     1       2.569  -2.593  -6.656  0.00  0.00    +0.162 C 
ATOM     12  O   UNL     1       1.940  -2.597  -7.695  0.00  0.00    -0.292 OA
ENDROOT
BRANCH   4  13
ATOM     13  C   UNL     1       4.143  -4.734  -8.337  0.00  0.00    -0.003 A 
ATOM     14  C   UNL     1       4.469  -5.777  -7.491  0.00  0.00    +0.007 A 
ATOM     15  C   UNL     1       4.092  -7.069  -7.808  0.00  0.00    +0.000 A 
ATOM     16  C   UNL     1       3.389  -7.318  -8.972  0.00  0.00    +0.003 A 
ATOM     17  C   UNL     1       3.063  -6.277  -9.820  0.00  0.00    +0.038 A 
ATOM     18  C   UNL     1       3.435  -4.982  -9.500  0.00  0.00    +0.127 A 
ATOM     19  F   UNL     1       3.112  -3.963 -10.326  0.00  0.00    -0.205 F 
ENDBRANCH   4  13
BRANCH   9  20
ATOM     20  C   UNL     1       1.946  -2.488  -2.906  0.00  0.00    -0.043 A 
ATOM     21  C   UNL     1       1.375  -3.426  -2.067  0.00  0.00    +0.007 A 
ATOM     22  C   UNL     1       0.801  -3.030  -0.874  0.00  0.00    +0.046 A 
ATOM     23  C   UNL     1       0.797  -1.688  -0.520  0.00  0.00    +0.120 A 
ATOM     24  C   UNL     1       1.366  -0.748  -1.367  0.00  0.00    +0.046 A 
ATOM     25  C   UNL     1       1.944  -1.150  -2.555  0.00  0.00    +0.007 A 
BRANCH  23  26
ATOM     26  O   UNL     1       0.233  -1.296   0.652  0.00  0.00    -0.495 OA
ATOM     27  C   UNL     1       0.265   0.101   0.952  0.00  0.00    +0.277 C 
ENDBRANCH  23  26
ENDBRANCH   9  20
BRANCH   3  28
ATOM     28  C   UNL     1       6.798  -3.217  -9.121  0.00  0.00    +0.316 C 
ATOM     29  O   UNL     1       8.001  -3.037  -9.083  0.00  0.00    -0.250 OA
BRANCH  28  30
ATOM     30  O   UNL     1       6.178  -3.377 -10.309  0.00  0.00    -0.467 OA
ATOM     31  C   UNL     1       6.995  -3.323 -11.480  0.00  0.00    +0.280 C 
ENDBRANCH  28  30
ENDBRANCH   3  28
TORSDOF 5
