REMARK  Name = ZINC12412763
REMARK  6 active torsions:
REMARK  status: ('A' for Active; 'I' for Inactive)
REMARK    1  A    between atoms: C_1  and  C_2
REMARK    2  A    between atoms: C_2  and  O_3
REMARK    3  A    between atoms: O_3  and  C_4
REMARK    4  A    between atoms: C_4  and  C_6
REMARK    5  A    between atoms: C_7  and  N_34
REMARK    6  A    between atoms: C_24  and  C_27
REMARK                            x       y       z     vdW  Elec       q    Type
REMARK                         _______ _______ _______ _____ _____    ______ ____
ROOT
ATOM      1  C   UNL     1      -1.239   1.901  -0.004  0.00  0.00    +0.117 C 
ATOM      2  C   UNL     1      -2.405   1.207  -0.083  0.00  0.00    +0.195 C 
ATOM      3  O   UNL     1      -3.591   1.832  -0.048  0.00  0.00    -0.446 OA
ATOM      4  C   UNL     1      -3.676   3.138  -0.363  0.00  0.00    +0.116 C 
ATOM      5  C   UNL     1      -2.601   3.946  -0.297  0.00  0.00    +0.057 C 
ATOM      6  C   UNL     1      -1.260   3.396   0.123  0.00  0.00    +0.141 C 
ATOM      7  C   UNL     1      -0.920   3.822   1.517  0.00  0.00    -0.002 A 
ATOM      8  C   UNL     1      -1.543   3.581   2.723  0.00  0.00    +0.007 A 
ATOM      9  C   UNL     1      -0.957   4.133   3.857  0.00  0.00    +0.000 A 
ATOM     10  C   UNL     1       0.196   4.887   3.775  0.00  0.00    +0.002 A 
ATOM     11  C   UNL     1       0.828   5.134   2.566  0.00  0.00    +0.023 A 
ATOM     12  C   UNL     1       0.249   4.587   1.420  0.00  0.00    +0.038 A 
ATOM     13  N   UNL     1       0.659   4.673   0.102  0.00  0.00    -0.284 N 
ATOM     14  C   UNL     1      -0.168   4.006  -0.731  0.00  0.00    +0.237 C 
ATOM     15  O   UNL     1      -0.057   3.913  -1.935  0.00  0.00    -0.274 OA
ATOM     16  C   UNL     1      -2.694   5.315  -0.611  0.00  0.00    +0.165 C 
ATOM     17  O   UNL     1      -1.698   6.008  -0.556  0.00  0.00    -0.292 OA
ATOM     18  C   UNL     1      -4.003   5.936  -1.015  0.00  0.00    +0.088 C 
ATOM     19  C   UNL     1      -5.147   5.141  -0.376  0.00  0.00    +0.034 C 
ATOM     20  C   UNL     1      -5.017   3.677  -0.801  0.00  0.00    +0.083 C 
ATOM     21  H   UNL     1       1.448   5.157  -0.190  0.00  0.00    +0.155 HD
ENDROOT
BRANCH  19  22
ATOM     22  C   UNL     1      -6.470   5.690  -0.845  0.00  0.00    -0.042 A 
ATOM     23  C   UNL     1      -7.374   6.193   0.072  0.00  0.00    +0.004 A 
ATOM     24  C   UNL     1      -8.587   6.697  -0.358  0.00  0.00    +0.002 A 
ATOM     25  C   UNL     1      -8.897   6.697  -1.705  0.00  0.00    +0.020 A 
ATOM     26  C   UNL     1      -7.993   6.193  -2.623  0.00  0.00    +0.041 A 
ATOM     27  C   UNL     1      -6.776   5.694  -2.192  0.00  0.00    +0.024 A 
ATOM     28 CL   UNL     1      -8.382   6.193  -4.315  0.00  0.00    -0.084 Cl
ENDBRANCH  19  22
BRANCH   2  29
ATOM     29  N   UNL     1      -2.369  -0.157  -0.200  0.00  0.00    -0.329 N 
ATOM     30  H   UNL     1      -1.522  -0.626  -0.137  0.00  0.00    +0.145 HD
ATOM     31  H   UNL     1      -3.189  -0.653  -0.345  0.00  0.00    +0.145 HD
ENDBRANCH   2  29
BRANCH   1  32
ATOM     32  C   UNL     1      -0.013   1.218  -0.037  0.00  0.00    +0.342 C 
ATOM     33  O   UNL     1       0.600   1.018   0.996  0.00  0.00    -0.245 OA
BRANCH  32  34
ATOM     34  O   UNL     1       0.483   0.777  -1.214  0.00  0.00    -0.462 OA
BRANCH  34  36
ATOM     35  C   UNL     1       2.131  -0.335  -2.588  0.00  0.00    +0.048 C 
ATOM     36  C   UNL     1       1.732   0.084  -1.172  0.00  0.00    +0.229 C 
ENDBRANCH  34  36
ENDBRANCH  32  34
ENDBRANCH   1  32
TORSDOF 5
