REMARK  Name = ZINC59894347
REMARK  9 active torsions:
REMARK  status: ('A' for Active; 'I' for Inactive)
REMARK    1  A    between atoms: C_4  and  O_7
REMARK    2  A    between atoms: O_7  and  C_8
REMARK    3  A    between atoms: C_8  and  C_9
REMARK    4  A    between atoms: C_9  and  C_10
REMARK    5  A    between atoms: C_16  and  C_19
REMARK    6  A    between atoms: N_21  and  C_22
REMARK    7  A    between atoms: C_22  and  C_23
REMARK    8  A    between atoms: C_23  and  C_25
REMARK    9  A    between atoms: C_23  and  N_32
REMARK                            x       y       z     vdW  Elec       q    Type
REMARK                         _______ _______ _______ _____ _____    ______ ____
ROOT
ATOM      1  C   UNL     1       6.951  -8.353   1.196  0.00  0.00    +0.218 C 
ATOM      2  O   UNL     1       8.029  -8.897   1.314  0.00  0.00    -0.275 OA
ATOM      3  N   UNL     1       5.828  -9.093   1.118  0.00  0.00    -0.316 N 
ATOM      4  H   UNL     1       4.966  -8.658   1.024  0.00  0.00    +0.149 HD
ENDROOT
BRANCH   1  11
ATOM      5  C   UNL     1       5.167  -4.251  -0.541  0.00  0.00    +0.219 C 
ATOM      6  O   UNL     1       4.107  -4.824  -0.683  0.00  0.00    -0.275 OA
ATOM      7  N   UNL     1       6.287  -4.958  -0.292  0.00  0.00    -0.301 N 
ATOM      8  C   UNL     1       7.577  -4.278  -0.111  0.00  0.00    +0.108 C 
ATOM      9  C   UNL     1       8.190  -4.728   1.218  0.00  0.00    +0.020 C 
ATOM     10  C   UNL     1       8.275  -6.256   1.245  0.00  0.00    +0.016 C 
ATOM     11  C   UNL     1       6.869  -6.849   1.136  0.00  0.00    +0.092 C 
ATOM     12  C   UNL     1       6.240  -6.423  -0.189  0.00  0.00    +0.120 C 
BRANCH   5  13
ATOM     13  C   UNL     1       5.231  -2.749  -0.644  0.00  0.00    +0.137 C 
BRANCH  13  14
ATOM     14  C   UNL     1       3.834  -2.197  -0.931  0.00  0.00    +0.238 C 
BRANCH  14  15
ATOM     15  O   UNL     1       3.895  -0.772  -1.028  0.00  0.00    -0.491 OA
BRANCH  15  19
ATOM     16  C   UNL     1       0.357   1.206  -1.799  0.00  0.00    +0.000 A 
ATOM     17  C   UNL     1       1.530   1.922  -1.647  0.00  0.00    +0.004 A 
ATOM     18  C   UNL     1       2.716   1.262  -1.389  0.00  0.00    +0.045 A 
ATOM     19  C   UNL     1       2.729  -0.121  -1.282  0.00  0.00    +0.121 A 
ATOM     20  C   UNL     1       1.551  -0.838  -1.434  0.00  0.00    +0.045 A 
ATOM     21  C   UNL     1       0.368  -0.173  -1.692  0.00  0.00    +0.004 A 
ENDBRANCH  15  19
ENDBRANCH  14  15
ENDBRANCH  13  14
ENDBRANCH   5  13
ENDBRANCH   1  11
BRANCH   3  22
ATOM     22  C   UNL     1       5.908 -10.555   1.176  0.00  0.00    +0.093 C 
BRANCH  22  23
ATOM     23  C   UNL     1       4.495 -11.142   1.202  0.00  0.00    -0.020 C 
BRANCH  23  24
ATOM     24  C   UNL     1       3.808 -10.740   2.482  0.00  0.00    -0.058 A 
ATOM     25  C   UNL     1       4.080 -11.418   3.655  0.00  0.00    +0.002 A 
ATOM     26  C   UNL     1       3.450 -11.050   4.829  0.00  0.00    +0.002 A 
ATOM     27  C   UNL     1       2.547 -10.004   4.830  0.00  0.00    +0.020 A 
ATOM     28  C   UNL     1       2.274  -9.325   3.656  0.00  0.00    +0.041 A 
ATOM     29  C   UNL     1       2.909  -9.690   2.483  0.00  0.00    +0.022 A 
ATOM     30 CL   UNL     1       1.139  -8.011   3.657  0.00  0.00    -0.084 Cl
ENDBRANCH  23  24
BRANCH  23  31
ATOM     31  N   UNL     1       4.573 -12.607   1.128  0.00  0.00    +0.385 N 
ATOM     32  C   UNL     1       3.208 -13.194   1.137  0.00  0.00    -0.078 C 
ATOM     33  C   UNL     1       3.418 -14.592   0.503  0.00  0.00    -0.020 C 
ATOM     34  C   UNL     1       4.476 -14.319  -0.592  0.00  0.00    -0.020 C 
ATOM     35  C   UNL     1       5.181 -13.021  -0.156  0.00  0.00    -0.078 C 
ATOM     36  H   UNL     1       5.113 -12.967   1.900  0.00  0.00    -0.081 HD
ENDBRANCH  23  31
ENDBRANCH  22  23
ENDBRANCH   3  22
TORSDOF 9
