REMARK  Name = ZINC38611483
REMARK  9 active torsions:
REMARK  status: ('A' for Active; 'I' for Inactive)
REMARK    1  A    between atoms: C_1  and  O_2
REMARK    2  A    between atoms: O_2  and  C_3
REMARK    3  A    between atoms: C_6  and  C_9
REMARK    4  A    between atoms: C_10  and  C_30
REMARK    5  A    between atoms: N_14  and  N_15
REMARK    6  A    between atoms: C_30  and  C_31
REMARK    7  A    between atoms: C_31  and  C_32
REMARK    8  A    between atoms: C_32  and  O_34
REMARK    9  A    between atoms: O_34  and  C_35
REMARK                            x       y       z     vdW  Elec       q    Type
REMARK                         _______ _______ _______ _____ _____    ______ ____
ROOT
ATOM      1  C   UNL     1      -4.959  -2.622   0.079  0.00  0.00    +0.058 A 
ATOM      2  C   UNL     1      -5.020  -3.963  -0.062  0.00  0.00    +0.018 A 
ATOM      3  S   UNL     1      -6.780  -4.260  -0.060  0.00  0.00    -0.052 S 
ATOM      4  C   UNL     1      -7.316  -2.567   0.130  0.00  0.00    +0.193 A 
ATOM      5  N   UNL     1      -6.115  -1.900   0.183  0.00  0.00    -0.332 N 
ATOM      6  N   UNL     1      -8.545  -2.082   0.204  0.00  0.00    -0.124 NA
ATOM      7  H   UNL     1      -6.089  -0.936   0.289  0.00  0.00    +0.168 HD
ENDROOT
BRANCH   6   8
ATOM      8  N   UNL     1      -8.747  -0.704   0.353  0.00  0.00    -0.154 NA
ATOM      9  C   UNL     1      -9.950  -0.230   0.426  0.00  0.00    +0.068 C 
ATOM     10  C   UNL     1     -10.213   1.256   0.582  0.00  0.00    +0.055 C 
ATOM     11  C   UNL     1     -11.107   1.767  -0.546  0.00  0.00    +0.010 C 
ATOM     12  C   UNL     1     -12.435   0.994  -0.583  0.00  0.00    +0.034 C 
ATOM     13  C   UNL     1     -12.089  -0.471  -0.661  0.00  0.00    -0.033 C 
ATOM     14  C   UNL     1     -12.423  -1.423  -1.521  0.00  0.00    -0.000 A 
ATOM     15  C   UNL     1     -13.383  -1.446  -2.636  0.00  0.00    +0.010 A 
ATOM     16  C   UNL     1     -13.452  -2.605  -3.344  0.00  0.00    +0.001 A 
ATOM     17  C   UNL     1     -12.672  -3.729  -3.058  0.00  0.00    +0.002 A 
ATOM     18  C   UNL     1     -11.773  -3.801  -2.043  0.00  0.00    +0.026 A 
ATOM     19  C   UNL     1     -11.620  -2.648  -1.220  0.00  0.00    +0.043 A 
ATOM     20  N   UNL     1     -10.869  -2.454  -0.175  0.00  0.00    -0.372 N 
ATOM     21  C   UNL     1     -11.164  -1.128   0.354  0.00  0.00    +0.153 C 
ATOM     22  H   UNL     1     -10.224  -3.083   0.186  0.00  0.00    +0.161 HD
ENDBRANCH   6   8
BRANCH   1  26
ATOM     23  C   UNL     1      -1.193  -0.657   0.216  0.00  0.00    +0.120 A 
ATOM     24  C   UNL     1      -2.153  -0.382   1.181  0.00  0.00    +0.046 A 
ATOM     25  C   UNL     1      -3.377  -1.017   1.139  0.00  0.00    +0.013 A 
ATOM     26  C   UNL     1      -3.648  -1.938   0.127  0.00  0.00    -0.001 A 
ATOM     27  C   UNL     1      -2.681  -2.212  -0.841  0.00  0.00    +0.013 A 
ATOM     28  C   UNL     1      -1.462  -1.568  -0.796  0.00  0.00    +0.046 A 
BRANCH  23  30
ATOM     29  C   UNL     1       0.221   0.897   1.329  0.00  0.00    +0.277 C 
ATOM     30  O   UNL     1       0.011  -0.029   0.261  0.00  0.00    -0.495 OA
ENDBRANCH  23  30
ENDBRANCH   1  26
BRANCH   2  31
ATOM     31  C   UNL     1      -3.892  -4.954  -0.189  0.00  0.00    +0.056 C 
BRANCH  31  32
ATOM     32  C   UNL     1      -3.609  -5.583   1.177  0.00  0.00    +0.126 C 
BRANCH  32  33
ATOM     33  C   UNL     1      -2.481  -6.574   1.050  0.00  0.00    +0.307 C 
ATOM     34  O   UNL     1      -1.957  -6.759  -0.023  0.00  0.00    -0.251 OA
BRANCH  33  35
ATOM     35  O   UNL     1      -2.059  -7.252   2.128  0.00  0.00    -0.468 OA
ATOM     36  C   UNL     1      -0.986  -8.176   1.935  0.00  0.00    +0.280 C 
ENDBRANCH  33  35
ENDBRANCH  32  33
ENDBRANCH  31  32
ENDBRANCH   2  31
TORSDOF 7
