REMARK  Name = ZINC59446408
REMARK  5 active torsions:
REMARK  status: ('A' for Active; 'I' for Inactive)
REMARK    1  A    between atoms: C_1  and  N_2
REMARK    2  A    between atoms: C_3  and  S_12
REMARK    3  A    between atoms: N_4  and  C_5
REMARK    4  A    between atoms: S_12  and  C_13
REMARK    5  A    between atoms: N_18  and  C_21
REMARK                            x       y       z     vdW  Elec       q    Type
REMARK                         _______ _______ _______ _____ _____    ______ ____
ROOT
ATOM      1  C   UNL     1       2.166  -0.850   3.493  0.00  0.00    +0.149 C 
ATOM      2  C   UNL     1       3.129  -0.624   4.676  0.00  0.00    +0.120 C 
ATOM      3  C   UNL     1       2.289  -0.965   5.888  0.00  0.00    +0.228 C 
ATOM      4  O   UNL     1       2.666  -0.920   7.039  0.00  0.00    -0.275 OA
ATOM      5  N   UNL     1       1.063  -1.323   5.487  0.00  0.00    -0.209 N 
ATOM      6  C   UNL     1       0.881  -1.297   4.157  0.00  0.00    +0.240 C 
ATOM      7  O   UNL     1      -0.145  -1.583   3.579  0.00  0.00    -0.274 OA
ENDROOT
BRANCH   5   8
ATOM      8  C   UNL     1       0.051  -1.697   6.382  0.00  0.00    +0.047 A 
ATOM      9  C   UNL     1      -0.394  -3.012   6.418  0.00  0.00    +0.044 A 
ATOM     10  C   UNL     1      -1.391  -3.379   7.302  0.00  0.00    +0.044 A 
ATOM     11  C   UNL     1      -1.947  -2.437   8.150  0.00  0.00    +0.040 A 
ATOM     12  C   UNL     1      -1.505  -1.126   8.116  0.00  0.00    +0.044 A 
ATOM     13  C   UNL     1      -0.504  -0.755   7.238  0.00  0.00    +0.044 A 
ATOM     14 CL   UNL     1      -2.204   0.053   9.181  0.00  0.00    -0.083 Cl
ATOM     15 CL   UNL     1      -1.949  -5.022   7.348  0.00  0.00    -0.083 Cl
ENDBRANCH   5   8
BRANCH   1  16
ATOM     16  S   UNL     1       1.907   0.694   2.577  0.00  0.00    -0.077 S 
BRANCH  16  19
ATOM     17  C   UNL     1       0.871   2.561   0.471  0.00  0.00    +0.127 C 
ATOM     18  N   UNL     1       0.458   1.164   0.320  0.00  0.00    -0.327 N 
ATOM     19  C   UNL     1       0.864   0.224   1.236  0.00  0.00    +0.155 C 
ATOM     20  N   UNL     1       0.475  -1.024   1.113  0.00  0.00    -0.226 NA
ATOM     21  H   UNL     1      -0.102   0.902  -0.428  0.00  0.00    +0.148 HD
BRANCH  20  22
ATOM     22  C   UNL     1      -0.248  -1.411   0.016  0.00  0.00    +0.067 A 
ATOM     23  C   UNL     1       0.257  -1.197  -1.268  0.00  0.00    +0.029 A 
ATOM     24  C   UNL     1      -0.477  -1.589  -2.369  0.00  0.00    +0.017 A 
ATOM     25  C   UNL     1      -1.711  -2.193  -2.202  0.00  0.00    +0.018 A 
ATOM     26  C   UNL     1      -2.217  -2.409  -0.932  0.00  0.00    +0.017 A 
ATOM     27  C   UNL     1      -1.491  -2.027   0.177  0.00  0.00    +0.029 A 
ATOM     28 BR   UNL     1      -2.710  -2.727  -3.716  0.00  0.00    -0.050 Br
ENDBRANCH  20  22
ENDBRANCH  16  19
ENDBRANCH   1  16
TORSDOF 4
