REMARK  Name = ZINC36674208
REMARK  6 active torsions:
REMARK  status: ('A' for Active; 'I' for Inactive)
REMARK    1  A    between atoms: C_5  and  C_7
REMARK    2  A    between atoms: C_7  and  C_9
REMARK    3  A    between atoms: C_7  and  N_30
REMARK    4  A    between atoms: C_9  and  N_10
REMARK    5  A    between atoms: C_11  and  C_13
REMARK    6  A    between atoms: N_18  and  C_20
REMARK                            x       y       z     vdW  Elec       q    Type
REMARK                         _______ _______ _______ _____ _____    ______ ____
ROOT
ATOM      1  N   UNL     1       0.955  -4.190   1.389  0.00  0.00    -0.316 N 
ATOM      2  C   UNL     1       0.844  -4.887   2.537  0.00  0.00    +0.218 C 
ATOM      3  O   UNL     1       0.977  -4.325   3.603  0.00  0.00    -0.275 OA
ATOM      4  H   UNL     1       0.849  -4.640   0.536  0.00  0.00    +0.149 HD
ENDROOT
BRANCH   2   5
ATOM      5  C   UNL     1       0.555  -6.366   2.496  0.00  0.00    +0.101 C 
ATOM      6  C   UNL     1       1.719  -7.138   1.832  0.00  0.00    +0.110 C 
ATOM      7  C   UNL     1       2.595  -7.558   2.991  0.00  0.00    +0.221 C 
ATOM      8  O   UNL     1       3.743  -7.938   2.892  0.00  0.00    -0.275 OA
ATOM      9  N   UNL     1       1.918  -7.447   4.147  0.00  0.00    -0.271 N 
ATOM     10  C   UNL     1       0.549  -6.967   3.919  0.00  0.00    +0.127 C 
BRANCH   9  11
ATOM     11  C   UNL     1       2.450  -7.751   5.407  0.00  0.00    +0.040 A 
ATOM     12  C   UNL     1       1.708  -7.498   6.553  0.00  0.00    +0.027 A 
ATOM     13  C   UNL     1       2.232  -7.796   7.795  0.00  0.00    +0.051 A 
ATOM     14  C   UNL     1       3.500  -8.349   7.903  0.00  0.00    +0.162 A 
ATOM     15  C   UNL     1       4.244  -8.605   6.757  0.00  0.00    +0.164 A 
ATOM     16  C   UNL     1       3.716  -8.309   5.510  0.00  0.00    +0.073 A 
ATOM     17  O   UNL     1       5.487  -9.154   6.842  0.00  0.00    -0.485 OA
ATOM     18  C   UNL     1       6.130  -9.098   8.120  0.00  0.00    +0.270 C 
ATOM     19  C   UNL     1       5.116  -9.530   9.188  0.00  0.00    +0.270 C 
ATOM     20  O   UNL     1       4.001  -8.633   9.137  0.00  0.00    -0.485 OA
ENDBRANCH   9  11
ENDBRANCH   2   5
BRANCH   1  21
ATOM     21  C   UNL     1       1.235  -2.753   1.428  0.00  0.00    +0.093 C 
BRANCH  21  22
ATOM     22  C   UNL     1       1.190  -2.185   0.008  0.00  0.00    -0.019 C 
BRANCH  22  27
ATOM     23  C   UNL     1      -1.849  -3.492  -1.811  0.00  0.00    +0.000 A 
ATOM     24  C   UNL     1      -2.782  -2.511  -1.532  0.00  0.00    +0.001 A 
ATOM     25  C   UNL     1      -2.430  -1.424  -0.754  0.00  0.00    +0.020 A 
ATOM     26  C   UNL     1      -1.144  -1.318  -0.255  0.00  0.00    +0.043 A 
ATOM     27  C   UNL     1      -0.211  -2.300  -0.534  0.00  0.00    -0.041 A 
ATOM     28  C   UNL     1      -0.564  -3.386  -1.313  0.00  0.00    +0.003 A 
ATOM     29 CL   UNL     1      -0.701   0.047   0.722  0.00  0.00    -0.083 Cl
ENDBRANCH  22  27
BRANCH  22  30
ATOM     30  N   UNL     1       2.112  -2.941  -0.851  0.00  0.00    +0.385 N 
ATOM     31  C   UNL     1       2.163  -2.334  -2.205  0.00  0.00    -0.078 C 
ATOM     32  C   UNL     1       3.515  -2.839  -2.769  0.00  0.00    -0.020 C 
ATOM     33  C   UNL     1       4.439  -2.809  -1.530  0.00  0.00    -0.020 C 
ATOM     34  C   UNL     1       3.489  -2.857  -0.319  0.00  0.00    -0.078 C 
ATOM     35  H   UNL     1       1.820  -3.905  -0.911  0.00  0.00    -0.081 HD
ENDBRANCH  22  30
ENDBRANCH  21  22
ENDBRANCH   1  21
TORSDOF 6
