REMARK  Name = ZINC22851944
REMARK  8 active torsions:
REMARK  status: ('A' for Active; 'I' for Inactive)
REMARK    1  A    between atoms: C_1  and  C_2
REMARK    2  A    between atoms: C_2  and  O_3
REMARK    3  A    between atoms: O_3  and  C_4
REMARK    4  A    between atoms: C_4  and  C_6
REMARK    5  A    between atoms: N_9  and  C_12
REMARK    6  A    between atoms: C_12  and  C_14
REMARK    7  A    between atoms: C_12  and  C_21
REMARK    8  A    between atoms: C_27  and  C_29
REMARK                            x       y       z     vdW  Elec       q    Type
REMARK                         _______ _______ _______ _____ _____    ______ ____
ROOT
ATOM      1  C   UNL     1      -8.386   0.319   0.039  0.00  0.00    +0.006 C 
ENDROOT
BRANCH   1   2
ATOM      2  C   UNL     1      -6.881   0.400   0.033  0.00  0.00    +0.050 A 
ATOM      3  C   UNL     1      -6.094   1.482   0.035  0.00  0.00    +0.282 A 
ATOM      4  N   UNL     1      -4.726   1.354   0.029  0.00  0.00    -0.169 N 
ATOM      5  C   UNL     1      -4.219   0.084   0.020  0.00  0.00    +0.200 A 
ATOM      6  S   UNL     1      -5.682  -0.924   0.021  0.00  0.00    -0.050 S 
ATOM      7  N   UNL     1      -2.916   0.130   0.009  0.00  0.00    -0.197 NA
ATOM      8  C   UNL     1      -2.518   1.410   0.020  0.00  0.00    +0.218 A 
ATOM      9  N   UNL     1      -3.579   2.189   0.029  0.00  0.00    -0.138 NA
ATOM     10  O   UNL     1      -6.654   2.721   0.044  0.00  0.00    -0.265 OA
BRANCH   8  11
ATOM     11  C   UNL     1      -1.115   1.872   0.017  0.00  0.00    +0.173 A 
ATOM     12  C   UNL     1      -0.013   1.076   0.008  0.00  0.00    +0.053 A 
ATOM     13  C   UNL     1       1.107   1.932   0.002  0.00  0.00    +0.042 A 
ATOM     14  C   UNL     1       0.638   3.195   0.013  0.00  0.00    +0.196 A 
ATOM     15  O   UNL     1      -0.705   3.155   0.026  0.00  0.00    -0.460 OA
ENDBRANCH   8  11
ENDBRANCH   1   2
BRANCH   1  19
ATOM     16  C   UNL     1     -10.214  -1.714   3.326  0.00  0.00    +0.094 C 
ATOM     17  C   UNL     1      -8.700  -1.486   3.329  0.00  0.00    -0.004 C 
ATOM     18  C   UNL     1      -8.359  -0.346   2.367  0.00  0.00    -0.077 C 
ATOM     19  N   UNL     1      -8.818  -0.690   1.015  0.00  0.00    +0.387 N 
ATOM     20  C   UNL     1     -10.275  -0.868   0.978  0.00  0.00    -0.077 C 
ATOM     21  C   UNL     1     -10.673  -2.024   1.899  0.00  0.00    -0.004 C 
ATOM     22  H   UNL     1      -8.356  -1.650   0.739  0.00  0.00    -0.080 HD
BRANCH  16  23
ATOM     23  C   UNL     1     -10.550  -2.875   4.228  0.00  0.00    +0.310 C 
ATOM     24  O   UNL     1      -9.669  -3.460   4.812  0.00  0.00    -0.251 OA
BRANCH  23  25
ATOM     25  O   UNL     1     -11.827  -3.258   4.380  0.00  0.00    -0.465 OA
BRANCH  25  27
ATOM     26  C   UNL     1     -13.578  -4.671   5.311  0.00  0.00    +0.048 C 
ATOM     27  C   UNL     1     -12.076  -4.383   5.264  0.00  0.00    +0.229 C 
ENDBRANCH  25  27
ENDBRANCH  23  25
ENDBRANCH  16  23
ENDBRANCH   1  19
BRANCH   1  28
ATOM     28  C   UNL     1      -8.874  -0.068  -1.333  0.00  0.00    -0.056 A 
ATOM     29  C   UNL     1      -8.833  -1.391  -1.733  0.00  0.00    +0.004 A 
ATOM     30  C   UNL     1      -9.286  -1.747  -2.990  0.00  0.00    +0.020 A 
ATOM     31  C   UNL     1      -9.769  -0.778  -3.851  0.00  0.00    +0.041 A 
ATOM     32  C   UNL     1      -9.804   0.547  -3.452  0.00  0.00    +0.020 A 
ATOM     33  C   UNL     1      -9.356   0.901  -2.193  0.00  0.00    +0.004 A 
ATOM     34 CL   UNL     1     -10.331  -1.223  -5.432  0.00  0.00    -0.084 Cl
ENDBRANCH   1  28
TORSDOF 7
