REMARK  Name = ZINC40317431
REMARK  11 active torsions:
REMARK  status: ('A' for Active; 'I' for Inactive)
REMARK    1  A    between atoms: C_1  and  C_2
REMARK    2  A    between atoms: C_4  and  O_9
REMARK    3  A    between atoms: O_9  and  C_10
REMARK    4  A    between atoms: C_10  and  C_11
REMARK    5  A    between atoms: C_11  and  C_13
REMARK    6  A    between atoms: C_11  and  O_36
REMARK    7  A    between atoms: C_13  and  N_14
REMARK    8  A    between atoms: N_14  and  C_15
REMARK    9  A    between atoms: N_14  and  C_28
REMARK   10  A    between atoms: C_15  and  C_16
REMARK   11  A    between atoms: C_19  and  C_21
REMARK                            x       y       z     vdW  Elec       q    Type
REMARK                         _______ _______ _______ _____ _____    ______ ____
ROOT
ATOM      1  N   UNL     1       0.536  -6.922  -4.796  0.00  0.00    +0.389 N 
ATOM      2  H   UNL     1       1.460  -7.038  -5.182  0.00  0.00    -0.081 HD
ENDROOT
BRANCH   1   3
ATOM      3  C   UNL     1      -0.178  -5.877  -5.542  0.00  0.00    -0.045 C 
ATOM      4  C   UNL     1      -0.114  -6.177  -7.048  0.00  0.00    +0.009 C 
ATOM      5  C   UNL     1      -0.574  -4.939  -7.854  0.00  0.00    +0.164 C 
ATOM      6  S   UNL     1      -0.139  -3.545  -6.735  0.00  0.00    -0.033 S 
ATOM      7  O   UNL     1      -1.330  -2.870  -6.353  0.00  0.00    -0.174 OA
ATOM      8  O   UNL     1       0.929  -2.806  -7.311  0.00  0.00    -0.174 OA
ATOM      9  C   UNL     1       0.499  -4.498  -5.294  0.00  0.00    +0.151 C 
ENDBRANCH   1   3
BRANCH   1  10
ATOM     10  C   UNL     1       0.641  -6.530  -3.384  0.00  0.00    -0.043 C 
BRANCH  10  11
ATOM     11  C   UNL     1       2.111  -6.304  -3.025  0.00  0.00    +0.135 C 
BRANCH  11  12
ATOM     12  O   UNL     1       2.819  -7.543  -3.115  0.00  0.00    -0.390 OA
ATOM     13  H   UNL     1       2.484  -8.231  -2.525  0.00  0.00    +0.210 HD
ENDBRANCH  11  12
BRANCH  11  14
ATOM     14  C   UNL     1       2.211  -5.763  -1.598  0.00  0.00    +0.258 C 
BRANCH  14  15
ATOM     15  O   UNL     1       3.572  -5.442  -1.304  0.00  0.00    -0.489 OA
BRANCH  15  19
ATOM     16  C   UNL     1       6.813  -3.745   1.927  0.00  0.00    +0.045 C 
ATOM     17  C   UNL     1       5.401  -4.106   1.543  0.00  0.00    -0.029 A 
ATOM     18  C   UNL     1       5.135  -4.612   0.285  0.00  0.00    +0.050 A 
ATOM     19  C   UNL     1       3.836  -4.945  -0.067  0.00  0.00    +0.121 A 
ATOM     20  C   UNL     1       2.805  -4.768   0.845  0.00  0.00    +0.047 A 
ATOM     21  C   UNL     1       3.075  -4.262   2.101  0.00  0.00    +0.024 A 
ATOM     22  C   UNL     1       4.373  -3.937   2.453  0.00  0.00    +0.044 A 
ATOM     23 CL   UNL     1       4.710  -3.307   4.035  0.00  0.00    -0.083 Cl
ENDBRANCH  15  19
ENDBRANCH  14  15
ENDBRANCH  11  14
ENDBRANCH  10  11
ENDBRANCH   1  10
BRANCH   1  24
ATOM     24  C   UNL     1      -0.202  -8.188  -4.899  0.00  0.00    -0.003 C 
BRANCH  24  25
ATOM     25  C   UNL     1      -0.182  -8.665  -6.329  0.00  0.00    +0.089 A 
ATOM     26  C   UNL     1       0.914  -9.045  -7.015  0.00  0.00    +0.043 A 
ATOM     27  C   UNL     1       0.485  -9.415  -8.305  0.00  0.00    +0.050 A 
ATOM     28  C   UNL     1      -0.863  -9.239  -8.336  0.00  0.00    +0.135 A 
ATOM     29  O   UNL     1      -1.254  -8.789  -7.128  0.00  0.00    -0.462 OA
BRANCH  28  30
ATOM     30  C   UNL     1      -1.746  -9.500  -9.492  0.00  0.00    +0.019 A 
ATOM     31  C   UNL     1      -1.210  -9.978 -10.689  0.00  0.00    +0.011 A 
ATOM     32  C   UNL     1      -2.039 -10.221 -11.764  0.00  0.00    +0.002 A 
ATOM     33  C   UNL     1      -3.399  -9.991 -11.659  0.00  0.00    +0.020 A 
ATOM     34  C   UNL     1      -3.938  -9.517 -10.475  0.00  0.00    +0.042 A 
ATOM     35  C   UNL     1      -3.119  -9.276  -9.389  0.00  0.00    +0.031 A 
ATOM     36 CL   UNL     1      -5.646  -9.231 -10.353  0.00  0.00    -0.084 Cl
ENDBRANCH  28  30
ENDBRANCH  24  25
ENDBRANCH   1  24
TORSDOF 10
