REMARK  Name = ZINC09173628
REMARK  9 active torsions:
REMARK  status: ('A' for Active; 'I' for Inactive)
REMARK    1  A    between atoms: C_1  and  C_2
REMARK    2  A    between atoms: C_4  and  S_11
REMARK    3  A    between atoms: C_6  and  C_10
REMARK    4  A    between atoms: C_7  and  O_8
REMARK    5  A    between atoms: O_8  and  C_9
REMARK    6  A    between atoms: S_11  and  N_14
REMARK    7  A    between atoms: N_14  and  C_15
REMARK    8  A    between atoms: C_24  and  C_27
REMARK    9  A    between atoms: C_24  and  C_28
REMARK                            x       y       z     vdW  Elec       q    Type
REMARK                         _______ _______ _______ _____ _____    ______ ____
ROOT
ATOM      1  N   UNL     1      -0.151  -4.143   1.547  0.00  0.00    -0.216 N 
ATOM      2  H   UNL     1      -0.682  -4.812   1.089  0.00  0.00    +0.174 HD
ENDROOT
BRANCH   1   3
ATOM      3  C   UNL     1      -0.217  -2.803   1.147  0.00  0.00    +0.050 A 
ATOM      4  C   UNL     1      -0.923  -1.884   1.913  0.00  0.00    +0.028 A 
ATOM      5  C   UNL     1      -0.988  -0.559   1.523  0.00  0.00    +0.049 A 
ATOM      6  C   UNL     1      -0.350  -0.145   0.366  0.00  0.00    +0.142 A 
ATOM      7  C   UNL     1       0.355  -1.067  -0.406  0.00  0.00    +0.077 A 
ATOM      8  C   UNL     1       0.423  -2.393  -0.015  0.00  0.00    +0.051 A 
ATOM      9  N   UNL     1       0.990  -0.636  -1.579  0.00  0.00    -0.282 N 
ATOM     10  C   UNL     1       1.771   0.467  -1.544  0.00  0.00    +0.226 C 
ATOM     11  O   UNL     1       2.275   0.889  -2.563  0.00  0.00    -0.275 OA
ATOM     12  C   UNL     1       2.013   1.169  -0.233  0.00  0.00    +0.076 C 
ATOM     13  C   UNL     1       0.765   1.946   0.183  0.00  0.00    +0.244 C 
ATOM     14  O   UNL     1      -0.404   1.158  -0.021  0.00  0.00    -0.489 OA
ATOM     15  C   UNL     1       2.347   0.133   0.843  0.00  0.00    +0.024 C 
ATOM     16  C   UNL     1       3.185   2.139  -0.385  0.00  0.00    +0.024 C 
ATOM     17  H   UNL     1       0.869  -1.125  -2.409  0.00  0.00    +0.155 HD
ENDBRANCH   1   3
BRANCH   1  18
ATOM     18  S   UNL     1       0.834  -4.584   2.804  0.00  0.00    +0.072 S 
ATOM     19  O   UNL     1       0.533  -3.708   3.882  0.00  0.00    -0.150 OA
ATOM     20  O   UNL     1       0.736  -5.997   2.920  0.00  0.00    -0.150 OA
BRANCH  18  24
ATOM     21  C   UNL     1       5.020  -1.457   2.708  0.00  0.00    +0.047 C 
ATOM     22  C   UNL     1       4.378  -2.759   2.304  0.00  0.00    -0.007 A 
ATOM     23  C   UNL     1       3.079  -3.037   2.685  0.00  0.00    +0.035 A 
ATOM     24  C   UNL     1       2.490  -4.232   2.316  0.00  0.00    +0.109 A 
ATOM     25  C   UNL     1       3.200  -5.154   1.569  0.00  0.00    +0.035 A 
ATOM     26  C   UNL     1       4.497  -4.879   1.181  0.00  0.00    -0.007 A 
ATOM     27  C   UNL     1       5.090  -3.680   1.550  0.00  0.00    +0.126 A 
ATOM     28  C   UNL     1       5.268  -5.881   0.362  0.00  0.00    +0.047 C 
BRANCH  27  29
ATOM     29  O   UNL     1       6.368  -3.409   1.174  0.00  0.00    -0.495 OA
ATOM     30  C   UNL     1       7.407  -3.822   2.063  0.00  0.00    +0.277 C 
ENDBRANCH  27  29
ENDBRANCH  18  24
ENDBRANCH   1  18
TORSDOF 4
