REMARK  Name = ZINC15023855
REMARK  8 active torsions:
REMARK  status: ('A' for Active; 'I' for Inactive)
REMARK    1  A    between atoms: C_1  and  C_2
REMARK    2  A    between atoms: C_2  and  C_3
REMARK    3  A    between atoms: C_2  and  C_4
REMARK    4  A    between atoms: C_2  and  C_5
REMARK    5  A    between atoms: C_5  and  C_7
REMARK    6  A    between atoms: C_9  and  C_29
REMARK    7  A    between atoms: C_11  and  C_24
REMARK    8  A    between atoms: C_11  and  C_26
REMARK                            x       y       z     vdW  Elec       q    Type
REMARK                         _______ _______ _______ _____ _____    ______ ____
ROOT
ATOM      1  C   UNL     1       0.684   2.309   2.214  0.00  0.00    +0.150 C 
ATOM      2  C   UNL     1      -0.571   2.008   1.358  0.00  0.00    +0.078 C 
ATOM      3  C   UNL     1      -0.018   1.468   0.010  0.00  0.00    +0.163 C 
ATOM      4  C   UNL     1       1.411   2.036  -0.001  0.00  0.00    +0.127 C 
ATOM      5  N   UNL     1       1.824   1.868   1.417  0.00  0.00    -0.310 N 
ATOM      6  C   UNL     1       3.058   2.436   1.619  0.00  0.00    +0.038 A 
ATOM      7  C   UNL     1       3.375   3.210   2.718  0.00  0.00    +0.025 A 
ATOM      8  C   UNL     1       4.643   3.749   2.840  0.00  0.00    +0.017 A 
ATOM      9  C   UNL     1       5.601   3.519   1.866  0.00  0.00    +0.019 A 
ATOM     10  C   UNL     1       5.303   2.744   0.760  0.00  0.00    +0.025 A 
ATOM     11  C   UNL     1       4.034   2.196   0.627  0.00  0.00    -0.003 A 
ATOM     12  C   UNL     1       3.670   1.353  -0.535  0.00  0.00    +0.007 C 
ATOM     13  C   UNL     1       2.368   1.264  -0.860  0.00  0.00    -0.002 C 
ATOM     14 BR   UNL     1       7.328   4.267   2.051  0.00  0.00    -0.050 Br
ENDROOT
BRANCH   2  15
ATOM     15  C   UNL     1      -1.425   0.964   2.030  0.00  0.00    -0.037 A 
ATOM     16  C   UNL     1      -0.904  -0.281   2.350  0.00  0.00    +0.024 A 
ATOM     17  C   UNL     1      -1.716  -1.212   2.970  0.00  0.00    +0.111 A 
ATOM     18  N   UNL     1      -2.974  -0.931   3.248  0.00  0.00    -0.263 NA
ATOM     19  C   UNL     1      -3.505   0.240   2.954  0.00  0.00    +0.111 A 
ATOM     20  C   UNL     1      -2.752   1.222   2.338  0.00  0.00    +0.024 A 
ENDBRANCH   2  15
BRANCH   3  21
ATOM     21  C   UNL     1      -0.817   1.999  -1.152  0.00  0.00    +0.233 C 
ATOM     22  O   UNL     1      -1.785   2.701  -0.952  0.00  0.00    -0.274 OA
ATOM     23  N   UNL     1      -0.456   1.693  -2.414  0.00  0.00    -0.328 N 
ATOM     24  H   UNL     1       0.318   1.131  -2.574  0.00  0.00    +0.145 HD
ATOM     25  H   UNL     1      -0.970   2.035  -3.162  0.00  0.00    +0.145 HD
ENDBRANCH   3  21
BRANCH   1  26
ATOM     26  C   UNL     1       0.785   3.787   2.491  0.00  0.00    +0.159 C 
ATOM     27  O   UNL     1       1.504   4.481   1.814  0.00  0.00    -0.295 OA
BRANCH  26  29
ATOM     28  C   UNL     1       0.269   5.901   3.680  0.00  0.00    +0.018 C 
ATOM     29  C   UNL     1      -0.013   4.399   3.614  0.00  0.00    +0.022 C 
ATOM     30  C   UNL     1      -1.505   4.170   3.364  0.00  0.00    +0.018 C 
ATOM     31  C   UNL     1       0.388   3.747   4.939  0.00  0.00    +0.018 C 
ENDBRANCH  26  29
ENDBRANCH   1  26
BRANCH   3  32
ATOM     32  C   UNL     1       0.002  -0.004   0.002  0.00  0.00    +0.082 C 
ATOM     33  N   UNL     1       0.018  -1.140  -0.004  0.00  0.00    -0.195 NA
ENDBRANCH   3  32
TORSDOF 5
