REMARK  Name = ZINC06023592
REMARK  9 active torsions:
REMARK  status: ('A' for Active; 'I' for Inactive)
REMARK    1  A    between atoms: C_1  and  N_2
REMARK    2  A    between atoms: N_2  and  C_3
REMARK    3  A    between atoms: N_2  and  C_4
REMARK    4  A    between atoms: C_7  and  C_10
REMARK    5  A    between atoms: N_11  and  N_12
REMARK    6  A    between atoms: C_13  and  C_15
REMARK    7  A    between atoms: C_15  and  N_57
REMARK    8  A    between atoms: N_18  and  S_21
REMARK    9  A    between atoms: S_21  and  C_24
REMARK                            x       y       z     vdW  Elec       q    Type
REMARK                         _______ _______ _______ _____ _____    ______ ____
ROOT
ATOM      1  C   UNL     1      -1.547   3.040  -0.034  0.00  0.00    -0.061 C 
ATOM      2  C   UNL     1      -0.755   2.384   1.103  0.00  0.00    +0.091 C 
ATOM      3  N   UNL     1       0.495   3.134   1.299  0.00  0.00    -0.180 NA
ATOM      4  C   UNL     1       1.337   3.404   0.122  0.00  0.00    +0.091 C 
ATOM      5  C   UNL     1       0.462   4.019  -0.975  0.00  0.00    -0.061 C 
ATOM      6  N   UNL     1      -0.682   3.118  -1.231  0.00  0.00    +0.387 N 
ATOM      7  H   UNL     1      -0.325   2.179  -1.446  0.00  0.00    -0.081 HD
ENDROOT
BRANCH   3   8
ATOM      8  S   UNL     1       0.940   3.666   2.803  0.00  0.00    +0.061 S 
ATOM      9  O   UNL     1       1.813   4.769   2.602  0.00  0.00    -0.153 OA
ATOM     10  O   UNL     1      -0.254   3.768   3.567  0.00  0.00    -0.153 OA
BRANCH   8  11
ATOM     11  C   UNL     1       1.904   2.389   3.543  0.00  0.00    +0.106 A 
ATOM     12  C   UNL     1       1.289   1.411   4.301  0.00  0.00    +0.029 A 
ATOM     13  C   UNL     1       2.044   0.407   4.878  0.00  0.00    +0.017 A 
ATOM     14  C   UNL     1       3.417   0.387   4.704  0.00  0.00    +0.018 A 
ATOM     15  C   UNL     1       4.032   1.370   3.949  0.00  0.00    +0.017 A 
ATOM     16  C   UNL     1       3.275   2.370   3.369  0.00  0.00    +0.029 A 
ATOM     17 BR   UNL     1       4.451  -0.982   5.498  0.00  0.00    -0.050 Br
ENDBRANCH   8  11
ENDBRANCH   3   8
BRANCH   6  18
ATOM     18  C   UNL     1      -1.463   3.610  -2.385  0.00  0.00    +0.020 C 
BRANCH  18  20
ATOM     19  N   UNL     1      -2.583   5.691  -3.115  0.00  0.00    -0.209 N 
ATOM     20  C   UNL     1      -1.951   5.013  -2.136  0.00  0.00    +0.216 C 
ATOM     21  O   UNL     1      -1.775   5.534  -1.054  0.00  0.00    -0.276 OA
ATOM     22  H   UNL     1      -2.723   5.275  -3.980  0.00  0.00    +0.177 HD
BRANCH  19  24
ATOM     23  C   UNL     1      -3.645   7.649  -3.826  0.00  0.00    +0.138 C 
ATOM     24  N   UNL     1      -3.036   6.996  -2.883  0.00  0.00    -0.188 NA
BRANCH  23  28
ATOM     25  C   UNL     1      -5.021  11.603  -3.123  0.00  0.00    +0.029 A 
ATOM     26  C   UNL     1      -5.223  11.009  -4.364  0.00  0.00    +0.024 A 
ATOM     27  C   UNL     1      -4.777   9.726  -4.596  0.00  0.00    +0.011 A 
ATOM     28  C   UNL     1      -4.122   9.022  -3.582  0.00  0.00    -0.005 A 
ATOM     29  C   UNL     1      -3.926   9.620  -2.334  0.00  0.00    +0.011 A 
ATOM     30  C   UNL     1      -4.369  10.905  -2.111  0.00  0.00    +0.024 A 
BRANCH  25  32
ATOM     31  C   UNL     1      -6.275  13.590  -3.907  0.00  0.00    +0.129 C 
ATOM     32  N   UNL     1      -5.473  12.902  -2.892  0.00  0.00    -0.336 N 
ATOM     33  C   UNL     1      -5.146  13.579  -1.634  0.00  0.00    +0.129 C 
ENDBRANCH  25  32
ENDBRANCH  23  28
ENDBRANCH  19  24
ENDBRANCH  18  20
ENDBRANCH   6  18
TORSDOF 7
