REMARK  Name = ZINC12874402
REMARK  8 active torsions:
REMARK  status: ('A' for Active; 'I' for Inactive)
REMARK    1  A    between atoms: C_1  and  C_2
REMARK    2  A    between atoms: C_2  and  C_4
REMARK    3  A    between atoms: C_2  and  N_61
REMARK    4  A    between atoms: C_14  and  C_15
REMARK    5  A    between atoms: C_14  and  N_61
REMARK    6  A    between atoms: N_17  and  C_18
REMARK    7  A    between atoms: C_22  and  S_24
REMARK    8  A    between atoms: S_24  and  N_27
REMARK                            x       y       z     vdW  Elec       q    Type
REMARK                         _______ _______ _______ _____ _____    ______ ____
ROOT
ATOM      1  C   UNL     1      -2.415  -0.302  -0.090  0.00  0.00    +0.200 C 
ATOM      2  O   UNL     1      -1.359  -0.900  -0.098  0.00  0.00    -0.278 OA
ATOM      3  N   UNL     1      -2.428   1.041   0.019  0.00  0.00    -0.287 N 
ATOM      4  H   UNL     1      -3.271   1.512   0.103  0.00  0.00    +0.155 HD
ENDROOT
BRANCH   3   5
ATOM      5  C   UNL     1      -1.225   1.755   0.012  0.00  0.00    +0.035 A 
ATOM      6  C   UNL     1      -0.152   1.303  -0.746  0.00  0.00    +0.023 A 
ATOM      7  C   UNL     1       1.032   2.013  -0.756  0.00  0.00    +0.004 A 
ATOM      8  C   UNL     1       1.152   3.171  -0.009  0.00  0.00    +0.028 A 
ATOM      9  C   UNL     1       0.088   3.621   0.750  0.00  0.00    +0.107 A 
ATOM     10  C   UNL     1      -1.099   2.915   0.764  0.00  0.00    +0.051 A 
BRANCH   9  11
ATOM     11  S   UNL     1       0.246   5.097   1.700  0.00  0.00    +0.061 S 
ATOM     12  O   UNL     1      -0.708   5.009   2.749  0.00  0.00    -0.153 OA
ATOM     13  O   UNL     1       1.634   5.276   1.945  0.00  0.00    -0.153 OA
BRANCH  11  14
ATOM     14  N   UNL     1      -0.230   6.354   0.733  0.00  0.00    -0.177 NA
ATOM     15  C   UNL     1       0.649   7.137  -0.149  0.00  0.00    +0.109 C 
ATOM     16  C   UNL     1      -0.225   8.211  -0.830  0.00  0.00    +0.018 C 
ATOM     17  C   UNL     1      -1.430   8.341   0.138  0.00  0.00    +0.018 C 
ATOM     18  C   UNL     1      -1.603   6.878   0.618  0.00  0.00    +0.109 C 
ENDBRANCH  11  14
ENDBRANCH   9  11
ENDBRANCH   3   5
BRANCH   1  19
ATOM     19  C   UNL     1      -3.712  -1.062  -0.201  0.00  0.00    +0.016 C 
BRANCH  19  20
ATOM     20  N   UNL     1      -3.420  -2.504  -0.308  0.00  0.00    +0.389 N 
ATOM     21  H   UNL     1      -2.844  -2.672  -1.141  0.00  0.00    -0.084 HD
ATOM     22  H   UNL     1      -2.908  -2.809   0.529  0.00  0.00    -0.084 HD
BRANCH  20  24
ATOM     23  C   UNL     1      -5.226  -3.553   0.980  0.00  0.00    -0.009 C 
ATOM     24  C   UNL     1      -4.673  -3.274  -0.419  0.00  0.00    -0.043 C 
BRANCH  24  25
ATOM     25  C   UNL     1      -4.392  -4.579  -1.117  0.00  0.00    -0.061 A 
ATOM     26  C   UNL     1      -3.234  -5.280  -0.838  0.00  0.00    +0.002 A 
ATOM     27  C   UNL     1      -2.982  -6.473  -1.483  0.00  0.00    +0.004 A 
ATOM     28  C   UNL     1      -3.884  -6.976  -2.412  0.00  0.00    -0.044 A 
ATOM     29  C   UNL     1      -5.040  -6.281  -2.687  0.00  0.00    -0.044 A 
ATOM     30  C   UNL     1      -5.292  -5.081  -2.034  0.00  0.00    +0.006 A 
ATOM     31  C   UNL     1      -6.066  -6.771  -3.674  0.00  0.00    +0.035 C 
ATOM     32  C   UNL     1      -5.461  -7.829  -4.596  0.00  0.00    +0.005 C 
ATOM     33  C   UNL     1      -4.782  -8.895  -3.729  0.00  0.00    +0.005 C 
ATOM     34  C   UNL     1      -3.540  -8.277  -3.090  0.00  0.00    +0.035 C 
ENDBRANCH  24  25
ENDBRANCH  20  24
ENDBRANCH  19  20
ENDBRANCH   1  19
TORSDOF 7
