REMARK  Name = ZINC41585011
REMARK  6 active torsions:
REMARK  status: ('A' for Active; 'I' for Inactive)
REMARK    1  A    between atoms: C_6  and  C_7
REMARK    2  A    between atoms: C_14  and  O_35
REMARK    3  A    between atoms: C_15  and  C_18
REMARK    4  A    between atoms: C_18  and  N_19
REMARK    5  A    between atoms: N_22  and  C_25
REMARK    6  A    between atoms: C_25  and  C_26
REMARK                            x       y       z     vdW  Elec       q    Type
REMARK                         _______ _______ _______ _____ _____    ______ ____
ROOT
ATOM      1  C   UNL     1      -1.258  -0.760   0.011  0.00  0.00    +0.058 C 
ATOM      2  C   UNL     1      -1.239  -2.111  -0.099  0.00  0.00    +0.176 C 
ATOM      3  C   UNL     1      -2.413  -2.991  -0.215  0.00  0.00    +0.231 C 
ATOM      4  O   UNL     1      -3.588  -2.669  -0.233  0.00  0.00    -0.283 OA
ATOM      5  C   UNL     1      -1.849  -4.350  -0.306  0.00  0.00    +0.068 A 
ATOM      6  C   UNL     1      -2.423  -5.616  -0.431  0.00  0.00    +0.019 A 
ATOM      7  C   UNL     1      -1.625  -6.723  -0.492  0.00  0.00    +0.046 A 
ATOM      8  C   UNL     1      -0.240  -6.591  -0.430  0.00  0.00    +0.125 A 
ATOM      9  C   UNL     1       0.344  -5.341  -0.306  0.00  0.00    +0.051 A 
ATOM     10  C   UNL     1      -0.454  -4.205  -0.242  0.00  0.00    +0.147 A 
ATOM     11  O   UNL     1      -0.137  -2.896  -0.128  0.00  0.00    -0.451 OA
ENDROOT
BRANCH   1  17
ATOM     12  C   UNL     1       1.228  -0.679  -0.001  0.00  0.00    +0.009 A 
ATOM     13  C   UNL     1       2.405   0.037  -0.014  0.00  0.00    +0.020 A 
ATOM     14  C   UNL     1       2.377   1.422  -0.029  0.00  0.00    +0.041 A 
ATOM     15  C   UNL     1       1.168   2.098  -0.031  0.00  0.00    +0.020 A 
ATOM     16  C   UNL     1      -0.018   1.396  -0.018  0.00  0.00    +0.009 A 
ATOM     17  C   UNL     1       0.002  -0.004  -0.003  0.00  0.00    -0.021 A 
ATOM     18 CL   UNL     1       3.866   2.315  -0.045  0.00  0.00    -0.084 Cl
ENDBRANCH   1  17
BRANCH   8  19
ATOM     19  O   UNL     1       0.544  -7.697  -0.491  0.00  0.00    -0.506 OA
ATOM     20  H   UNL     1       0.804  -7.946  -1.388  0.00  0.00    +0.292 HD
ENDBRANCH   8  19
BRANCH   9  21
ATOM     21  C   UNL     1       1.844  -5.213  -0.239  0.00  0.00    +0.126 C 
BRANCH  21  22
ATOM     22  N   UNL     1       2.382  -5.059  -1.597  0.00  0.00    -0.301 NA
ATOM     23  C   UNL     1       2.175  -6.280  -2.388  0.00  0.00    +0.066 C 
ATOM     24  C   UNL     1       2.696  -6.058  -3.810  0.00  0.00    -0.063 C 
ATOM     25  N   UNL     1       4.125  -5.721  -3.761  0.00  0.00    +0.384 N 
ATOM     26  C   UNL     1       4.313  -4.486  -2.989  0.00  0.00    -0.063 C 
ATOM     27  C   UNL     1       3.806  -4.696  -1.560  0.00  0.00    +0.066 C 
ATOM     28  H   UNL     1       4.632  -6.474  -3.321  0.00  0.00    -0.081 HD
BRANCH  25  29
ATOM     29  C   UNL     1       4.628  -5.526  -5.128  0.00  0.00    -0.043 C 
BRANCH  29  30
ATOM     30  C   UNL     1       6.118  -5.302  -5.087  0.00  0.00    -0.060 A 
ATOM     31  C   UNL     1       6.620  -4.020  -4.960  0.00  0.00    +0.005 A 
ATOM     32  C   UNL     1       7.985  -3.810  -4.922  0.00  0.00    +0.050 A 
ATOM     33  C   UNL     1       8.855  -4.885  -5.011  0.00  0.00    +0.166 A 
ATOM     34  C   UNL     1       8.349  -6.176  -5.140  0.00  0.00    +0.166 A 
ATOM     35  C   UNL     1       6.979  -6.380  -5.171  0.00  0.00    +0.051 A 
ATOM     36  O   UNL     1       9.396  -7.050  -5.208  0.00  0.00    -0.453 OA
ATOM     37  C   UNL     1      10.547  -6.246  -5.531  0.00  0.00    +0.466 C 
ATOM     38  O   UNL     1      10.218  -4.949  -5.000  0.00  0.00    -0.453 OA
ENDBRANCH  29  30
ENDBRANCH  25  29
ENDBRANCH  21  22
ENDBRANCH   9  21
TORSDOF 6
