REMARK  Name = ZINC44690246
REMARK  7 active torsions:
REMARK  status: ('A' for Active; 'I' for Inactive)
REMARK    1  A    between atoms: N_15  and  C_17
REMARK    2  A    between atoms: C_17  and  C_19
REMARK    3  A    between atoms: C_17  and  C_37
REMARK    4  A    between atoms: C_26  and  N_29
REMARK    5  A    between atoms: C_30  and  C_32
REMARK    6  A    between atoms: C_32  and  C_33
REMARK    7  A    between atoms: C_33  and  C_34
REMARK                            x       y       z     vdW  Elec       q    Type
REMARK                         _______ _______ _______ _____ _____    ______ ____
ROOT
ATOM      1  C   UNL     1       3.098   1.522   4.345  0.00  0.00    +0.006 A 
ATOM      2  C   UNL     1       1.903   1.821   3.812  0.00  0.00    +0.089 A 
ATOM      3  N   UNL     1       1.280   2.776   4.567  0.00  0.00    -0.360 N 
ATOM      4  H   UNL     1       0.405   3.152   4.381  0.00  0.00    +0.165 HD
ATOM      5  C   UNL     1       2.080   3.124   5.635  0.00  0.00    +0.047 A 
ATOM      6  C   UNL     1       3.251   2.349   5.545  0.00  0.00    +0.007 A 
ATOM      7  C   UNL     1       4.253   2.485   6.507  0.00  0.00    +0.033 A 
ATOM      8  C   UNL     1       4.086   3.381   7.546  0.00  0.00    +0.034 A 
ATOM      9  C   UNL     1       2.923   4.144   7.633  0.00  0.00    +0.025 A 
ATOM     10  C   UNL     1       1.933   4.024   6.685  0.00  0.00    +0.028 A 
ENDROOT
BRANCH   8  11
ATOM     11  N   UNL     1       5.088   3.521   8.515  0.00  0.00    -0.285 N 
ATOM     12  C   UNL     1       6.383   3.378   8.170  0.00  0.00    +0.218 C 
ATOM     13  O   UNL     1       6.688   3.222   7.006  0.00  0.00    -0.275 OA
ATOM     14  H   UNL     1       4.850   3.722   9.433  0.00  0.00    +0.155 HD
BRANCH  12  15
ATOM     15  C   UNL     1       7.454   3.411   9.231  0.00  0.00    +0.107 C 
BRANCH  15  16
ATOM     16  C   UNL     1       8.825   3.226   8.578  0.00  0.00    +0.134 C 
BRANCH  16  17
ATOM     17  C   UNL     1       9.895   3.259   9.639  0.00  0.00    +0.356 C 
ATOM     18  O   UNL     1       9.589   3.416  10.809  0.00  0.00    -0.246 OA
ATOM     19  O   UNL     1      11.066   3.129   9.327  0.00  0.00    -0.246 OA
ENDBRANCH  16  17
ENDBRANCH  15  16
ENDBRANCH  12  15
ENDBRANCH   8  11
BRANCH   1  20
ATOM     20  C   UNL     1       4.091   0.520   3.815  0.00  0.00    +0.203 C 
BRANCH  20  33
ATOM     21  C   UNL     1      -0.137   0.955   0.197  0.00  0.00    +0.007 A 
ATOM     22  C   UNL     1       1.143   1.518   0.138  0.00  0.00    +0.022 A 
ATOM     23  C   UNL     1       2.247   0.728   0.188  0.00  0.00    +0.026 A 
ATOM     24  N   UNL     1       2.127  -0.619   0.240  0.00  0.00    -0.312 N 
ATOM     25  C   UNL     1       0.904  -1.182   0.397  0.00  0.00    +0.251 A 
ATOM     26  O   UNL     1       0.812  -2.383   0.591  0.00  0.00    -0.268 OA
ATOM     27  C   UNL     1      -0.256  -0.397   0.339  0.00  0.00    +0.070 A 
ATOM     28  C   UNL     1       3.261  -1.530   0.078  0.00  0.00    +0.130 C 
ATOM     29  C   UNL     1       4.593  -0.846   0.334  0.00  0.00    +0.024 C 
ATOM     30  C   UNL     1       4.638   0.481  -0.429  0.00  0.00    +0.017 C 
ATOM     31  C   UNL     1       3.596   1.412   0.199  0.00  0.00    +0.050 C 
ATOM     32  C   UNL     1       3.986   1.640   1.669  0.00  0.00    +0.095 C 
ATOM     33  N   UNL     1       3.890   0.350   2.369  0.00  0.00    -0.285 NA
ATOM     34  C   UNL     1       4.832  -0.611   1.817  0.00  0.00    +0.090 C 
ENDBRANCH  20  33
BRANCH  20  35
ATOM     35  C   UNL     1       3.890  -0.802   4.509  0.00  0.00    +0.377 C 
ATOM     36  O   UNL     1       4.498  -1.049   5.537  0.00  0.00    -0.244 OA
ATOM     37  O   UNL     1       3.120  -1.625   4.043  0.00  0.00    -0.244 OA
ENDBRANCH  20  35
ENDBRANCH   1  20
TORSDOF 7
