REMARK  Name = ZINC18416608
REMARK  5 active torsions:
REMARK  status: ('A' for Active; 'I' for Inactive)
REMARK    1  A    between atoms: C_1  and  C_2
REMARK    2  A    between atoms: C_7  and  C_8
REMARK    3  A    between atoms: C_8  and  N_9
REMARK    4  A    between atoms: C_10  and  C_12
REMARK    5  A    between atoms: C_12  and  N_13
REMARK                            x       y       z     vdW  Elec       q    Type
REMARK                         _______ _______ _______ _____ _____    ______ ____
ROOT
ATOM      1  N   UNL     1       2.127   0.675  -0.035  0.00  0.00    -0.215 N 
ATOM      2  C   UNL     1       1.452   1.841  -0.002  0.00  0.00    +0.247 C 
ATOM      3  O   UNL     1       1.912   2.962   0.013  0.00  0.00    -0.273 OA
ATOM      4  C   UNL     1      -0.018   1.463   0.010  0.00  0.00    +0.113 C 
ATOM      5  C   UNL     1      -0.663   1.977   1.289  0.00  0.00    +0.035 C 
ATOM      6  C   UNL     1      -2.149   2.271   1.106  0.00  0.00    +0.003 C 
ATOM      7  C   UNL     1      -2.975   1.005   1.278  0.00  0.00    +0.000 C 
ATOM      8  C   UNL     1      -3.223   0.267  -0.029  0.00  0.00    +0.000 C 
ATOM      9  C   UNL     1      -3.058   1.158  -1.253  0.00  0.00    +0.000 C 
ATOM     10  C   UNL     1      -1.655   0.998  -1.838  0.00  0.00    +0.003 C 
ATOM     11  C   UNL     1      -0.689   2.017  -1.240  0.00  0.00    +0.035 C 
ATOM     12  N   UNL     1       0.002  -0.004   0.002  0.00  0.00    -0.285 N 
ATOM     13  C   UNL     1       1.297  -0.375  -0.041  0.00  0.00    +0.310 C 
ATOM     14  O   UNL     1       1.668  -1.531  -0.076  0.00  0.00    -0.252 OA
ATOM     15  H   UNL     1      -0.760  -0.603   0.035  0.00  0.00    +0.151 HD
ENDROOT
BRANCH   1  16
ATOM     16  C   UNL     1       3.588   0.568  -0.061  0.00  0.00    +0.213 C 
BRANCH  16  18
ATOM     17  N   UNL     1       5.383   0.465  -1.760  0.00  0.00    -0.310 N 
ATOM     18  C   UNL     1       4.066   0.557  -1.490  0.00  0.00    +0.231 C 
ATOM     19  O   UNL     1       3.265   0.631  -2.397  0.00  0.00    -0.274 OA
ATOM     20  H   UNL     1       6.024   0.406  -1.034  0.00  0.00    +0.149 HD
BRANCH  17  21
ATOM     21  C   UNL     1       5.848   0.455  -3.149  0.00  0.00    +0.139 C 
BRANCH  21  28
ATOM     22  C   UNL     1       7.115  -2.115  -2.782  0.00  0.00    +0.044 C 
ATOM     23  C   UNL     1       7.957  -0.885  -3.000  0.00  0.00    -0.046 A 
ATOM     24  C   UNL     1       9.335  -0.985  -3.025  0.00  0.00    +0.003 A 
ATOM     25  C   UNL     1      10.107   0.143  -3.225  0.00  0.00    +0.000 A 
ATOM     26  C   UNL     1       9.501   1.373  -3.401  0.00  0.00    +0.000 A 
ATOM     27  C   UNL     1       8.123   1.473  -3.381  0.00  0.00    +0.005 A 
ATOM     28  C   UNL     1       7.350   0.345  -3.176  0.00  0.00    -0.027 A 
ENDBRANCH  21  28
ENDBRANCH  17  21
ENDBRANCH  16  18
ENDBRANCH   1  16
TORSDOF 4
