REMARK  Name = ZINC20726665
REMARK  8 active torsions:
REMARK  status: ('A' for Active; 'I' for Inactive)
REMARK    1  A    between atoms: C_1  and  C_2
REMARK    2  A    between atoms: C_2  and  C_3
REMARK    3  A    between atoms: C_2  and  C_4
REMARK    4  A    between atoms: C_4  and  C_6
REMARK    5  A    between atoms: C_4  and  N_10
REMARK    6  A    between atoms: C_6  and  O_8
REMARK    7  A    between atoms: O_8  and  C_9
REMARK    8  A    between atoms: C_22  and  C_24
REMARK                            x       y       z     vdW  Elec       q    Type
REMARK                         _______ _______ _______ _____ _____    ______ ____
ROOT
ATOM      1  N   UNL     1      -1.258  -2.298  -2.372  0.00  0.00    -0.286 N 
ATOM      2  C   UNL     1      -1.859  -1.092  -2.331  0.00  0.00    +0.304 C 
ATOM      3  O   UNL     1      -1.901  -0.468  -1.288  0.00  0.00    -0.253 OA
ATOM      4  N   UNL     1      -2.412  -0.577  -3.447  0.00  0.00    -0.273 N 
ATOM      5  C   UNL     1      -3.066   0.740  -3.424  0.00  0.00    +0.116 C 
ATOM      6  C   UNL     1      -4.559   0.564  -3.729  0.00  0.00    +0.074 C 
ATOM      7  C   UNL     1      -4.709  -0.375  -4.897  0.00  0.00    +0.040 A 
ATOM      8  C   UNL     1      -3.749  -1.215  -5.339  0.00  0.00    +0.062 A 
ATOM      9  N   UNL     1      -4.237  -1.891  -6.381  0.00  0.00    -0.348 N 
ATOM     10  C   UNL     1      -5.465  -1.501  -6.607  0.00  0.00    +0.171 A 
ATOM     11  N   UNL     1      -5.794  -0.553  -5.700  0.00  0.00    -0.349 N 
ATOM     12  H   UNL     1      -6.643  -0.089  -5.634  0.00  0.00    +0.166 HD
ATOM     13  C   UNL     1      -2.371  -1.317  -4.721  0.00  0.00    +0.158 C 
ATOM     14  H   UNL     1      -1.285  -2.826  -3.185  0.00  0.00    +0.151 HD
ATOM     15  H   UNL     1      -3.758  -2.564  -6.890  0.00  0.00    +0.167 HD
ENDROOT
BRANCH  13  16
ATOM     16  C   UNL     1      -1.346  -0.702  -5.639  0.00  0.00    -0.001 A 
ATOM     17  C   UNL     1      -1.753   0.063  -6.716  0.00  0.00    +0.007 A 
ATOM     18  C   UNL     1      -0.814   0.628  -7.558  0.00  0.00    +0.002 A 
ATOM     19  C   UNL     1       0.534   0.428  -7.325  0.00  0.00    +0.021 A 
ATOM     20  C   UNL     1       0.943  -0.337  -6.248  0.00  0.00    +0.060 A 
ATOM     21  C   UNL     1       0.002  -0.898  -5.400  0.00  0.00    +0.065 A 
ATOM     22 CL   UNL     1       0.515  -1.852  -4.043  0.00  0.00    -0.082 Cl
ATOM     23 CL   UNL     1       2.636  -0.588  -5.954  0.00  0.00    -0.082 Cl
ENDBRANCH  13  16
BRANCH   1  24
ATOM     24  C   UNL     1      -0.565  -2.811  -1.188  0.00  0.00    +0.186 C 
BRANCH  24  26
ATOM     25  C   UNL     1      -2.137  -4.740  -0.973  0.00  0.00    +0.009 C 
ATOM     26  C   UNL     1      -1.571  -3.506  -0.268  0.00  0.00    +0.014 C 
ATOM     27  C   UNL     1      -0.872  -3.932   1.024  0.00  0.00    +0.009 C 
ENDBRANCH  24  26
BRANCH  24  28
ATOM     28  C   UNL     1       0.492  -3.797  -1.613  0.00  0.00    +0.328 C 
ATOM     29  O   UNL     1       0.650  -4.047  -2.784  0.00  0.00    -0.249 OA
BRANCH  28  30
ATOM     30  O   UNL     1       1.258  -4.400  -0.690  0.00  0.00    -0.467 OA
ATOM     31  C   UNL     1       2.240  -5.324  -1.163  0.00  0.00    +0.280 C 
ENDBRANCH  28  30
ENDBRANCH  24  28
ENDBRANCH   1  24
TORSDOF 5
