REMARK  Name = ZINC10019753
REMARK  11 active torsions:
REMARK  status: ('A' for Active; 'I' for Inactive)
REMARK    1  A    between atoms: C_1  and  C_2
REMARK    2  A    between atoms: C_5  and  C_8
REMARK    3  A    between atoms: C_8  and  C_10
REMARK    4  A    between atoms: C_8  and  N_54
REMARK    5  A    between atoms: C_10  and  N_11
REMARK    6  A    between atoms: C_12  and  C_14
REMARK    7  A    between atoms: N_16  and  C_17
REMARK    8  A    between atoms: C_20  and  N_23
REMARK    9  A    between atoms: C_24  and  C_26
REMARK   10  A    between atoms: C_27  and  N_54
REMARK   11  A    between atoms: C_28  and  N_54
REMARK                            x       y       z     vdW  Elec       q    Type
REMARK                         _______ _______ _______ _____ _____    ______ ____
ROOT
ATOM      1  N   UNL     1       1.056  10.501  -1.339  0.00  0.00    -0.309 N 
ATOM      2  C   UNL     1      -0.079   9.787  -1.205  0.00  0.00    +0.299 C 
ATOM      3  O   UNL     1      -1.128  10.352  -0.976  0.00  0.00    -0.265 OA
ATOM      4  H   UNL     1       1.895  10.049  -1.523  0.00  0.00    +0.149 HD
ENDROOT
BRANCH   2   5
ATOM      5  C   UNL     1      -0.046   8.300  -1.340  0.00  0.00    +0.303 C 
ATOM      6  O   UNL     1       1.003   7.734  -1.569  0.00  0.00    -0.265 OA
ATOM      7  N   UNL     1      -1.182   7.586  -1.206  0.00  0.00    -0.278 N 
ATOM      8  H   UNL     1      -2.007   8.030  -0.955  0.00  0.00    +0.155 HD
BRANCH   7   9
ATOM      9  C   UNL     1      -1.170   6.206  -1.429  0.00  0.00    +0.034 A 
ATOM     10  C   UNL     1      -0.058   5.453  -1.072  0.00  0.00    +0.025 A 
ATOM     11  C   UNL     1      -0.047   4.091  -1.292  0.00  0.00    +0.025 A 
ATOM     12  C   UNL     1      -1.148   3.472  -1.870  0.00  0.00    +0.033 A 
ATOM     13  C   UNL     1      -2.257   4.224  -2.232  0.00  0.00    +0.025 A 
ATOM     14  C   UNL     1      -2.271   5.586  -2.007  0.00  0.00    +0.025 A 
BRANCH  12  15
ATOM     15  N   UNL     1      -1.136   2.089  -2.092  0.00  0.00    -0.286 N 
ATOM     16  C   UNL     1      -2.293   1.398  -2.096  0.00  0.00    +0.214 C 
ATOM     17  O   UNL     1      -3.332   1.953  -1.807  0.00  0.00    -0.276 OA
ATOM     18  C   UNL     1      -2.295  -0.066  -2.454  0.00  0.00    +0.109 C 
ATOM     19  H   UNL     1      -0.296   1.629  -2.243  0.00  0.00    +0.155 HD
ENDBRANCH  12  15
ENDBRANCH   7   9
ENDBRANCH   2   5
BRANCH   1  20
ATOM     20  C   UNL     1       1.024  11.959  -1.208  0.00  0.00    +0.094 C 
BRANCH  20  21
ATOM     21  C   UNL     1       2.415  12.528  -1.496  0.00  0.00    -0.021 C 
BRANCH  21  26
ATOM     22  C   UNL     1       2.189  18.302  -1.408  0.00  0.00    +0.044 C 
ATOM     23  C   UNL     1       2.248  16.796  -1.431  0.00  0.00    -0.050 A 
ATOM     24  C   UNL     1       2.119  16.117  -2.629  0.00  0.00    +0.003 A 
ATOM     25  C   UNL     1       2.173  14.736  -2.650  0.00  0.00    +0.002 A 
ATOM     26  C   UNL     1       2.356  14.034  -1.473  0.00  0.00    -0.059 A 
ATOM     27  C   UNL     1       2.480  14.712  -0.275  0.00  0.00    +0.002 A 
ATOM     28  C   UNL     1       2.431  16.093  -0.255  0.00  0.00    +0.003 A 
ENDBRANCH  21  26
BRANCH  21  31
ATOM     29  C   UNL     1       2.664  11.774   0.791  0.00  0.00    -0.096 C 
ATOM     30  C   UNL     1       4.102  10.883  -0.941  0.00  0.00    -0.096 C 
ATOM     31  N   UNL     1       3.377  12.080  -0.467  0.00  0.00    +0.382 N 
ATOM     32  H   UNL     1       4.053  12.833  -0.293  0.00  0.00    -0.082 HD
ENDBRANCH  21  31
ENDBRANCH  20  21
ENDBRANCH   1  20
TORSDOF 7
