REMARK  Name = ZINC19635501
REMARK  6 active torsions:
REMARK  status: ('A' for Active; 'I' for Inactive)
REMARK    1  A    between atoms: C_2  and  C_21
REMARK    2  A    between atoms: N_5  and  C_6
REMARK    3  A    between atoms: C_6  and  C_7
REMARK    4  A    between atoms: N_10  and  C_13
REMARK    5  A    between atoms: C_13  and  C_14
REMARK    6  A    between atoms: C_21  and  N_22
REMARK                            x       y       z     vdW  Elec       q    Type
REMARK                         _______ _______ _______ _____ _____    ______ ____
ROOT
ATOM      1  C   UNL     1      -2.666   1.663   5.038  0.00  0.00    +0.148 C 
ENDROOT
BRANCH   1   2
ATOM      2  C   UNL     1      -2.055   1.074   3.764  0.00  0.00    +0.007 C 
ATOM      3  C   UNL     1      -0.558   1.389   3.721  0.00  0.00    -0.013 C 
ATOM      4  C   UNL     1       0.035   0.852   2.417  0.00  0.00    -0.078 C 
ATOM      5  N   UNL     1      -0.647   1.473   1.275  0.00  0.00    +0.380 N 
ATOM      6  C   UNL     1      -2.079   1.145   1.268  0.00  0.00    -0.078 C 
ATOM      7  C   UNL     1      -2.734   1.692   2.539  0.00  0.00    -0.013 C 
ATOM      8  H   UNL     1      -0.554   2.564   1.382  0.00  0.00    -0.082 HD
BRANCH   5   9
ATOM      9  C   UNL     1      -0.013   1.086   0.008  0.00  0.00    -0.075 C 
BRANCH   9  10
ATOM     10  C   UNL     1      -0.806   1.675  -1.161  0.00  0.00    -0.024 C 
ATOM     11  C   UNL     1      -0.786   3.206  -1.078  0.00  0.00    +0.006 C 
ATOM     12  C   UNL     1      -1.728   3.761  -2.148  0.00  0.00    +0.027 C 
ATOM     13  C   UNL     1      -1.438   3.122  -3.474  0.00  0.00    -0.031 C 
ATOM     14  C   UNL     1      -0.760   2.029  -3.620  0.00  0.00    -0.031 C 
ATOM     15  C   UNL     1      -0.162   1.253  -2.483  0.00  0.00    +0.028 C 
ENDBRANCH   9  10
ENDBRANCH   5   9
ENDBRANCH   1   2
BRANCH   1  20
ATOM     16  C   UNL     1      -4.640   0.620   6.185  0.00  0.00    +0.135 A 
ATOM     17  C   UNL     1      -5.942   0.446   5.859  0.00  0.00    +0.100 A 
ATOM     18  N   UNL     1      -6.102   0.975   4.641  0.00  0.00    -0.133 NA
ATOM     19  N   UNL     1      -4.975   1.448   4.241  0.00  0.00    -0.065 NA
ATOM     20  N   UNL     1      -4.071   1.259   5.137  0.00  0.00    -0.251 N 
BRANCH  17  21
ATOM     21  C   UNL     1      -7.002  -0.217   6.701  0.00  0.00    +0.164 C 
BRANCH  21  22
ATOM     22  N   UNL     1      -7.735   0.803   7.455  0.00  0.00    -0.294 N 
ATOM     23  C   UNL     1      -8.736   0.441   8.281  0.00  0.00    +0.297 C 
ATOM     24  O   UNL     1      -9.031  -0.733   8.401  0.00  0.00    -0.253 OA
ATOM     25  N   UNL     1      -9.411   1.379   8.975  0.00  0.00    -0.313 N 
ATOM     26  H   UNL     1      -7.468   1.865   7.347  0.00  0.00    +0.151 HD
ATOM     27  H   UNL     1     -10.228   1.083   9.649  0.00  0.00    +0.146 HD
ATOM     28  H   UNL     1      -9.144   2.440   8.867  0.00  0.00    +0.146 HD
ENDBRANCH  21  22
ENDBRANCH  17  21
ENDBRANCH   1  20
TORSDOF 6
