REMARK  Name = ZINC02743107
REMARK  10 active torsions:
REMARK  status: ('A' for Active; 'I' for Inactive)
REMARK    1  A    between atoms: C_1  and  C_2
REMARK    2  A    between atoms: C_2  and  C_3
REMARK    3  A    between atoms: C_4  and  C_28
REMARK    4  A    between atoms: C_6  and  N_11
REMARK    5  A    between atoms: C_7  and  C_8
REMARK    6  A    between atoms: C_12  and  C_14
REMARK    7  A    between atoms: C_17  and  C_19
REMARK    8  A    between atoms: C_19  and  N_20
REMARK    9  A    between atoms: C_21  and  C_27
REMARK   10  A    between atoms: C_23  and  C_25
REMARK                            x       y       z     vdW  Elec       q    Type
REMARK                         _______ _______ _______ _____ _____    ______ ____
ROOT
ATOM      1  N   UNL     1      -2.649   0.718   2.504  0.00  0.00    -0.273 N 
ATOM      2  C   UNL     1      -3.387   0.264   3.537  0.00  0.00    +0.284 C 
ATOM      3  O   UNL     1      -4.418  -0.347   3.326  0.00  0.00    -0.266 OA
ATOM      4  H   UNL     1      -1.717   1.270   2.695  0.00  0.00    +0.156 HD
ENDROOT
BRANCH   1   8
ATOM      5  C   UNL     1      -3.103   0.493  -1.210  0.00  0.00    -0.024 A 
ATOM      6  C   UNL     1      -4.255  -0.194  -1.103  0.00  0.00    -0.008 A 
ATOM      7  S   UNL     1      -4.481  -0.344   0.657  0.00  0.00    -0.078 S 
ATOM      8  C   UNL     1      -3.065   0.489   1.203  0.00  0.00    +0.085 A 
ATOM      9  C   UNL     1      -2.447   0.874   0.018  0.00  0.00    +0.068 A 
ATOM     10  C   UNL     1      -5.140  -0.713  -2.207  0.00  0.00    +0.052 C 
BRANCH   9  11
ATOM     11  C   UNL     1      -1.187   1.624   0.017  0.00  0.00    +0.244 C 
ATOM     12  O   UNL     1      -1.204   2.841   0.023  0.00  0.00    -0.270 OA
ATOM     13  N   UNL     1      -0.011   0.966   0.007  0.00  0.00    -0.325 N 
ATOM     14  H   UNL     1       0.934   1.529   0.006  0.00  0.00    +0.145 HD
ATOM     15  H   UNL     1       0.004  -0.134   0.001  0.00  0.00    +0.145 HD
ENDBRANCH   9  11
BRANCH   5  17
ATOM     16  C   UNL     1      -1.588  -0.268  -3.020  0.00  0.00    +0.009 C 
ATOM     17  C   UNL     1      -2.523   0.850  -2.554  0.00  0.00    +0.033 C 
ENDBRANCH   5  17
ENDBRANCH   1   8
BRANCH   2  18
ATOM     18  C   UNL     1      -2.947   0.506   4.914  0.00  0.00    +0.190 A 
ATOM     19  C   UNL     1      -3.596   0.104   6.047  0.00  0.00    +0.055 A 
ATOM     20  C   UNL     1      -2.825   0.547   7.132  0.00  0.00    +0.047 A 
ATOM     21  C   UNL     1      -1.753   1.193   6.622  0.00  0.00    +0.127 A 
ATOM     22  O   UNL     1      -1.827   1.161   5.285  0.00  0.00    -0.453 OA
BRANCH  21  23
ATOM     23  C   UNL     1      -0.652   1.837   7.425  0.00  0.00    +0.218 C 
BRANCH  23  24
ATOM     24  N   UNL     1       0.411   0.859   7.668  0.00  0.00    -0.260 N 
ATOM     25  C   UNL     1       0.496   0.025   8.727  0.00  0.00    +0.051 A 
ATOM     26  C   UNL     1       1.619  -0.717   8.578  0.00  0.00    +0.061 A 
ATOM     27  C   UNL     1       2.245  -0.317   7.393  0.00  0.00    +0.074 A 
ATOM     28  N   UNL     1       1.522   0.627   6.847  0.00  0.00    -0.175 NA
ATOM     29  C   UNL     1       3.531  -0.876   6.840  0.00  0.00    +0.068 C 
ATOM     30 BR   UNL     1       2.235  -2.053   9.766  0.00  0.00    -0.047 Br
ATOM     31  C   UNL     1      -0.484  -0.066   9.868  0.00  0.00    +0.066 C 
ENDBRANCH  23  24
ENDBRANCH  21  23
ENDBRANCH   2  18
TORSDOF 6
