REMARK  Name = ZINC35004645
REMARK  11 active torsions:
REMARK  status: ('A' for Active; 'I' for Inactive)
REMARK    1  A    between atoms: C_1  and  C_2
REMARK    2  A    between atoms: C_2  and  C_3
REMARK    3  A    between atoms: C_3  and  C_5
REMARK    4  A    between atoms: C_3  and  C_6
REMARK    5  A    between atoms: C_6  and  C_8
REMARK    6  A    between atoms: C_6  and  N_27
REMARK    7  A    between atoms: C_14  and  C_17
REMARK    8  A    between atoms: N_20  and  C_21
REMARK    9  A    between atoms: N_30  and  C_31
REMARK   10  A    between atoms: C_32  and  C_38
REMARK   11  A    between atoms: C_36  and  C_37
REMARK                            x       y       z     vdW  Elec       q    Type
REMARK                         _______ _______ _______ _____ _____    ______ ____
ROOT
ATOM      1  C   UNL     1      -1.119   0.204   3.801  0.00  0.00    +0.163 C 
ENDROOT
BRANCH   1   2
ATOM      2  C   UNL     1      -0.398   0.099   5.120  0.00  0.00    +0.236 C 
ATOM      3  O   UNL     1       0.150   1.073   5.590  0.00  0.00    -0.274 OA
ATOM      4  N   UNL     1      -0.361  -1.078   5.776  0.00  0.00    -0.297 N 
ATOM      5  C   UNL     1      -0.926  -2.291   5.168  0.00  0.00    +0.127 C 
ATOM      6  C   UNL     1      -1.958  -2.888   6.133  0.00  0.00    +0.128 C 
ATOM      7  N   UNL     1      -1.353  -2.981   7.469  0.00  0.00    -0.280 N 
ATOM      8  C   UNL     1      -0.788  -1.768   8.077  0.00  0.00    +0.092 C 
ATOM      9  C   UNL     1       0.248  -1.172   7.110  0.00  0.00    +0.130 C 
ATOM     10  C   UNL     1      -1.906  -0.754   8.332  0.00  0.00    +0.030 C 
ATOM     11  C   UNL     1      -1.316  -4.157   8.125  0.00  0.00    +0.303 C 
ATOM     12  O   UNL     1      -0.899  -4.205   9.267  0.00  0.00    -0.253 OA
ATOM     13  N   UNL     1      -1.742  -5.282   7.517  0.00  0.00    -0.296 N 
ATOM     14  H   UNL     1      -2.005  -5.259   6.583  0.00  0.00    +0.151 HD
BRANCH  13  15
ATOM     15  C   UNL     1      -1.808  -6.540   8.265  0.00  0.00    +0.074 C 
ATOM     16  C   UNL     1      -0.438  -7.221   8.240  0.00  0.00    +0.022 C 
ATOM     17  C   UNL     1      -0.507  -8.534   9.022  0.00  0.00    +0.002 C 
ATOM     18  C   UNL     1      -1.546  -9.456   8.379  0.00  0.00    +0.000 C 
ATOM     19  C   UNL     1      -2.916  -8.775   8.404  0.00  0.00    +0.002 C 
ATOM     20  C   UNL     1      -2.847  -7.461   7.622  0.00  0.00    +0.022 C 
ENDBRANCH  13  15
ENDBRANCH   1   2
BRANCH   1  21
ATOM     21  N   UNL     1      -1.232   1.614   3.417  0.00  0.00    -0.288 N 
ATOM     22  C   UNL     1      -2.310   2.040   2.729  0.00  0.00    +0.304 C 
ATOM     23  O   UNL     1      -3.229   1.277   2.505  0.00  0.00    -0.252 OA
ATOM     24  N   UNL     1      -2.369   3.313   2.291  0.00  0.00    -0.269 N 
ATOM     25  H   UNL     1      -0.532   2.240   3.658  0.00  0.00    +0.151 HD
ATOM     26  H   UNL     1      -1.611   3.906   2.418  0.00  0.00    +0.156 HD
BRANCH  24  27
ATOM     27  C   UNL     1      -3.522   3.781   1.651  0.00  0.00    +0.041 A 
ATOM     28  C   UNL     1      -3.978   3.158   0.496  0.00  0.00    -0.029 A 
ATOM     29  C   UNL     1      -5.117   3.621  -0.133  0.00  0.00    +0.005 A 
ATOM     30  C   UNL     1      -5.803   4.704   0.386  0.00  0.00    +0.001 A 
ATOM     31  C   UNL     1      -5.352   5.326   1.535  0.00  0.00    +0.005 A 
ATOM     32  C   UNL     1      -4.217   4.864   2.172  0.00  0.00    -0.029 A 
ATOM     33  C   UNL     1      -3.729   5.539   3.429  0.00  0.00    +0.045 C 
ATOM     34  C   UNL     1      -3.230   1.979  -0.070  0.00  0.00    +0.045 C 
ENDBRANCH  24  27
ENDBRANCH   1  21
BRANCH   1  35
ATOM     35  C   UNL     1      -0.336  -0.555   2.729  0.00  0.00    +0.015 C 
ATOM     36  C   UNL     1      -1.156  -0.607   1.438  0.00  0.00    +0.010 C 
BRANCH  35  38
ATOM     37  C   UNL     1       1.928  -0.041   3.653  0.00  0.00    +0.004 C 
ATOM     38  C   UNL     1       0.989   0.162   2.462  0.00  0.00    +0.002 C 
ENDBRANCH  35  38
ENDBRANCH   1  35
TORSDOF 6
