REMARK  Name = ZINC35877093
REMARK  5 active torsions:
REMARK  status: ('A' for Active; 'I' for Inactive)
REMARK    1  A    between atoms: C_1  and  C_2
REMARK    2  A    between atoms: C_2  and  C_3
REMARK    3  A    between atoms: C_23  and  C_31
REMARK    4  A    between atoms: C_31  and  C_33
REMARK    5  A    between atoms: C_37  and  N_39
REMARK                            x       y       z     vdW  Elec       q    Type
REMARK                         _______ _______ _______ _____ _____    ______ ____
ROOT
ATOM      1  C   UNL     1       0.563  -1.192  -1.244  0.00  0.00    -0.047 A 
ATOM      2  C   UNL     1      -0.133  -1.639  -2.353  0.00  0.00    +0.005 A 
ATOM      3  C   UNL     1       0.545  -2.119  -3.454  0.00  0.00    +0.024 A 
ATOM      4  C   UNL     1       1.938  -2.156  -3.457  0.00  0.00    +0.036 A 
ATOM      5  C   UNL     1       2.627  -1.702  -2.338  0.00  0.00    -0.026 A 
ATOM      6  C   UNL     1       1.946  -1.220  -1.242  0.00  0.00    +0.008 A 
ATOM      7  C   UNL     1       4.089  -1.866  -2.655  0.00  0.00    +0.060 C 
ATOM      8  C   UNL     1       4.117  -2.456  -4.042  0.00  0.00    +0.212 C 
ATOM      9  O   UNL     1       5.104  -2.751  -4.682  0.00  0.00    -0.277 OA
ATOM     10  N   UNL     1       2.837  -2.591  -4.434  0.00  0.00    -0.286 N 
ATOM     11  C   UNL     1       4.782  -2.778  -1.650  0.00  0.00    +0.085 C 
ATOM     12  C   UNL     1       3.833  -3.754  -1.016  0.00  0.00    -0.011 A 
ATOM     13  C   UNL     1       2.675  -3.612  -0.285  0.00  0.00    +0.006 A 
ATOM     14  C   UNL     1       2.006  -4.731   0.177  0.00  0.00    +0.000 A 
ATOM     15  C   UNL     1       2.504  -5.992  -0.096  0.00  0.00    +0.002 A 
ATOM     16  C   UNL     1       3.664  -6.140  -0.827  0.00  0.00    +0.023 A 
ATOM     17  C   UNL     1       4.343  -5.018  -1.297  0.00  0.00    +0.038 A 
ATOM     18  N   UNL     1       5.517  -4.909  -2.046  0.00  0.00    -0.285 N 
ATOM     19  C   UNL     1       5.843  -3.627  -2.296  0.00  0.00    +0.228 C 
ATOM     20  O   UNL     1       6.805  -3.232  -2.921  0.00  0.00    -0.275 OA
ATOM     21  C   UNL     1       5.386  -1.824  -0.610  0.00  0.00    +0.066 C 
ATOM     22  C   UNL     1       5.576  -0.498  -1.369  0.00  0.00    -0.055 C 
ATOM     23  N   UNL     1       4.788  -0.575  -2.618  0.00  0.00    +0.395 N 
ATOM     24  C   UNL     1       5.720  -0.487  -3.763  0.00  0.00    -0.076 C 
ATOM     25  C   UNL     1       6.972   0.234  -3.206  0.00  0.00    -0.020 C 
ATOM     26  C   UNL     1       7.060  -0.343  -1.758  0.00  0.00    -0.016 C 
ATOM     27  H   UNL     1       2.569  -2.948  -5.295  0.00  0.00    +0.155 HD
ATOM     28  H   UNL     1       6.037  -5.670  -2.351  0.00  0.00    +0.155 HD
ATOM     29  H   UNL     1       4.123   0.183  -2.655  0.00  0.00    -0.079 HD
ENDROOT
BRANCH   1  31
ATOM     30  C   UNL     1      -0.408   0.836  -0.198  0.00  0.00    +0.009 C 
ATOM     31  C   UNL     1      -0.183  -0.669  -0.044  0.00  0.00    +0.032 C 
ENDBRANCH   1  31
BRANCH  21  32
ATOM     32  C   UNL     1       4.439  -1.639   0.547  0.00  0.00    +0.166 C 
ATOM     33  O   UNL     1       3.807  -0.610   0.655  0.00  0.00    -0.292 OA
BRANCH  32  34
ATOM     34  C   UNL     1       4.280  -2.709   1.546  0.00  0.00    +0.020 A 
ATOM     35  C   UNL     1       5.011  -3.895   1.427  0.00  0.00    +0.011 A 
ATOM     36  C   UNL     1       4.857  -4.892   2.367  0.00  0.00    +0.003 A 
ATOM     37  C   UNL     1       3.982  -4.721   3.426  0.00  0.00    +0.033 A 
ATOM     38  C   UNL     1       3.255  -3.550   3.550  0.00  0.00    +0.127 A 
ATOM     39  C   UNL     1       3.402  -2.541   2.621  0.00  0.00    +0.044 A 
BRANCH  38  40
ATOM     40  N   UNL     1       2.321  -3.378   4.685  0.00  0.00    +0.056 N 
ATOM     41  O   UNL     1       2.194  -4.259   5.503  0.00  0.00    -0.126 OA
ATOM     42  O   UNL     1       1.685  -2.356   4.795  0.00  0.00    -0.126 OA
ENDBRANCH  38  40
ENDBRANCH  32  34
ENDBRANCH  21  32
TORSDOF 4
