REMARK  Name = ZINC52001354
REMARK  7 active torsions:
REMARK  status: ('A' for Active; 'I' for Inactive)
REMARK    1  A    between atoms: C_1  and  C_2
REMARK    2  A    between atoms: C_3  and  C_11
REMARK    3  A    between atoms: C_8  and  C_10
REMARK    4  A    between atoms: C_11  and  C_13
REMARK    5  A    between atoms: C_11  and  N_14
REMARK    6  A    between atoms: N_14  and  C_15
REMARK    7  A    between atoms: C_21  and  O_23
REMARK                            x       y       z     vdW  Elec       q    Type
REMARK                         _______ _______ _______ _____ _____    ______ ____
ROOT
ATOM      1  C   UNL     1      -2.492   0.017   0.015  0.00  0.00    -0.036 C 
ATOM      2  C   UNL     1      -3.224  -0.284   1.324  0.00  0.00    -0.009 C 
ENDROOT
BRANCH   1   5
ATOM      3  C   UNL     1      -0.018   1.503   0.010  0.00  0.00    +0.066 C 
ATOM      4  C   UNL     1       0.002  -0.004   0.002  0.00  0.00    +0.047 A 
ATOM      5  C   UNL     1      -1.167  -0.702   0.004  0.00  0.00    +0.024 A 
ATOM      6  C   UNL     1      -1.113  -2.111  -0.005  0.00  0.00    +0.253 A 
ATOM      7  O   UNL     1      -2.136  -2.774  -0.004  0.00  0.00    -0.268 OA
ATOM      8  N   UNL     1       0.097  -2.710  -0.014  0.00  0.00    -0.311 N 
ATOM      9  H   UNL     1       0.160  -3.678  -0.020  0.00  0.00    +0.170 HD
ATOM     10  C   UNL     1       1.218  -1.962  -0.015  0.00  0.00    +0.107 A 
ATOM     11  N   UNL     1       1.167  -0.657  -0.013  0.00  0.00    -0.239 NA
ATOM     12  C   UNL     1       2.560  -2.647  -0.026  0.00  0.00    +0.086 C 
ENDBRANCH   1   5
BRANCH   1  13
ATOM     13  N   UNL     1      -3.307  -0.441  -1.118  0.00  0.00    +0.387 N 
ATOM     14  H   UNL     1      -2.790  -0.319  -1.976  0.00  0.00    -0.085 HD
ATOM     15  H   UNL     1      -3.532  -1.418  -0.998  0.00  0.00    -0.085 HD
BRANCH  13  16
ATOM     16  C   UNL     1      -4.548   0.343  -1.178  0.00  0.00    -0.042 C 
ATOM     17  C   UNL     1      -4.213   1.804  -1.484  0.00  0.00    -0.013 C 
ATOM     18  C   UNL     1      -5.505   2.621  -1.546  0.00  0.00    -0.001 C 
ATOM     19  C   UNL     1      -6.409   2.063  -2.647  0.00  0.00    +0.002 C 
ATOM     20  C   UNL     1      -6.744   0.602  -2.341  0.00  0.00    +0.030 C 
ATOM     21  C   UNL     1      -5.452  -0.215  -2.279  0.00  0.00    +0.101 C 
BRANCH  21  22
ATOM     22  O   UNL     1      -5.764  -1.580  -1.993  0.00  0.00    -0.393 OA
ATOM     23  H   UNL     1      -6.335  -1.999  -2.651  0.00  0.00    +0.210 HD
ENDBRANCH  21  22
ENDBRANCH  13  16
ENDBRANCH   1  13
TORSDOF 4
