REMARK  Name = ZINC04824079
REMARK  10 active torsions:
REMARK  status: ('A' for Active; 'I' for Inactive)
REMARK    1  A    between atoms: C_1  and  C_2
REMARK    2  A    between atoms: C_2  and  C_3
REMARK    3  A    between atoms: C_3  and  C_5
REMARK    4  A    between atoms: C_3  and  C_6
REMARK    5  A    between atoms: C_11  and  N_12
REMARK    6  A    between atoms: C_13  and  C_15
REMARK    7  A    between atoms: C_15  and  C_17
REMARK    8  A    between atoms: C_15  and  O_18
REMARK    9  A    between atoms: O_18  and  C_19
REMARK   10  A    between atoms: C_19  and  C_21
REMARK                            x       y       z     vdW  Elec       q    Type
REMARK                         _______ _______ _______ _____ _____    ______ ____
ROOT
ATOM      1  C   UNL     1       0.008  -0.003  -0.010  0.00  0.00    +0.259 C 
ATOM      2  C   UNL     1       0.037  -0.518   1.431  0.00  0.00    +0.062 C 
ENDROOT
BRANCH   1   4
ATOM      3  N   UNL     1      -1.425  -1.846  -0.827  0.00  0.00    -0.282 N 
ATOM      4  C   UNL     1      -1.227  -0.519  -0.703  0.00  0.00    +0.258 C 
ATOM      5  O   UNL     1      -2.043   0.261  -1.148  0.00  0.00    -0.271 OA
ATOM      6  H   UNL     1      -0.743  -2.468  -0.531  0.00  0.00    +0.155 HD
BRANCH   3  12
ATOM      7  C   UNL     1      -3.178  -3.505  -0.913  0.00  0.00    -0.023 A 
ATOM      8  C   UNL     1      -4.353  -3.977  -1.466  0.00  0.00    +0.006 A 
ATOM      9  C   UNL     1      -4.968  -3.277  -2.487  0.00  0.00    +0.000 A 
ATOM     10  C   UNL     1      -4.410  -2.103  -2.959  0.00  0.00    +0.002 A 
ATOM     11  C   UNL     1      -3.239  -1.623  -2.407  0.00  0.00    +0.023 A 
ATOM     12  C   UNL     1      -2.615  -2.327  -1.385  0.00  0.00    +0.037 A 
BRANCH   7  13
ATOM     13  C   UNL     1      -2.508  -4.268   0.200  0.00  0.00    +0.017 C 
ATOM     14  C   UNL     1      -3.503  -4.480   1.343  0.00  0.00    +0.012 C 
BRANCH  13  16
ATOM     15  C   UNL     1      -1.248  -6.349   0.770  0.00  0.00    +0.004 C 
ATOM     16  C   UNL     1      -2.037  -5.626  -0.324  0.00  0.00    +0.004 C 
ENDBRANCH  13  16
ENDBRANCH   7  13
ENDBRANCH   3  12
ENDBRANCH   1   4
BRANCH   1  17
ATOM     17  O   UNL     1      -0.011   1.449  -0.004  0.00  0.00    -0.448 OA
BRANCH  17  18
ATOM     18  C   UNL     1       1.181   2.077  -0.021  0.00  0.00    +0.361 C 
ATOM     19  O   UNL     1       2.209   1.428  -0.039  0.00  0.00    -0.243 OA
BRANCH  18  20
ATOM     20  C   UNL     1       1.239   3.548  -0.016  0.00  0.00    +0.177 A 
ATOM     21  C   UNL     1       2.449   4.382  -0.026  0.00  0.00    +0.034 A 
ATOM     22  C   UNL     1       3.820   4.143  -0.056  0.00  0.00    +0.012 A 
ATOM     23  C   UNL     1       4.687   5.200  -0.066  0.00  0.00    +0.001 A 
ATOM     24  C   UNL     1       4.210   6.505  -0.054  0.00  0.00    +0.002 A 
ATOM     25  C   UNL     1       2.867   6.760  -0.031  0.00  0.00    +0.028 A 
ATOM     26  C   UNL     1       1.962   5.704  -0.020  0.00  0.00    +0.067 A 
ATOM     27  N   UNL     1       0.596   5.604   0.002  0.00  0.00    -0.276 N 
ATOM     28  H   UNL     1      -0.027   6.387   0.015  0.00  0.00    +0.189 HD
ATOM     29  N   UNL     1       0.217   4.378   0.003  0.00  0.00    -0.166 NA
ENDBRANCH  18  20
ENDBRANCH  17  18
ENDBRANCH   1  17
TORSDOF 7
