REMARK  Name = ZINC35894760
REMARK  7 active torsions:
REMARK  status: ('A' for Active; 'I' for Inactive)
REMARK    1  A    between atoms: C_4  and  N_9
REMARK    2  A    between atoms: C_5  and  C_7
REMARK    3  A    between atoms: C_16  and  N_36
REMARK    4  A    between atoms: C_20  and  C_25
REMARK    5  A    between atoms: N_27  and  C_28
REMARK    6  A    between atoms: C_28  and  C_29
REMARK    7  A    between atoms: C_29  and  N_30
REMARK                            x       y       z     vdW  Elec       q    Type
REMARK                         _______ _______ _______ _____ _____    ______ ____
ROOT
ATOM      1  N   UNL     1       2.820  -0.090   1.508  0.00  0.00    -0.326 N 
ATOM      2  C   UNL     1       3.128   0.183   0.110  0.00  0.00    +0.124 C 
ATOM      3  C   UNL     1       3.671  -1.056  -0.574  0.00  0.00    +0.124 C 
ATOM      4  N   UNL     1       4.541  -1.853   0.274  0.00  0.00    -0.323 N 
ATOM      5  C   UNL     1       5.339  -2.842  -0.338  0.00  0.00    +0.033 A 
ATOM      6  C   UNL     1       5.628  -2.733  -1.692  0.00  0.00    +0.025 A 
ATOM      7  C   UNL     1       6.398  -3.699  -2.310  0.00  0.00    +0.034 A 
ATOM      8  C   UNL     1       6.876  -4.769  -1.577  0.00  0.00    +0.127 A 
ATOM      9  C   UNL     1       6.593  -4.874  -0.229  0.00  0.00    +0.038 A 
ATOM     10  C   UNL     1       5.824  -3.907   0.402  0.00  0.00    -0.023 A 
ATOM     11  C   UNL     1       5.561  -4.050   1.878  0.00  0.00    +0.051 C 
ATOM     12  C   UNL     1       4.402  -3.151   2.318  0.00  0.00    +0.101 C 
ATOM     13  C   UNL     1       4.620  -1.763   1.718  0.00  0.00    +0.103 C 
ATOM     14  C   UNL     1       3.809  -0.690   2.389  0.00  0.00    +0.128 C 
ENDROOT
BRANCH   1  18
ATOM     15  C   UNL     1      -0.947   0.875   3.008  0.00  0.00    +0.001 A 
ATOM     16  C   UNL     1      -0.742  -0.331   2.356  0.00  0.00    +0.002 A 
ATOM     17  C   UNL     1       0.504  -0.653   1.858  0.00  0.00    +0.024 A 
ATOM     18  C   UNL     1       1.563   0.232   2.008  0.00  0.00    +0.047 A 
ATOM     19  C   UNL     1       1.359   1.454   2.668  0.00  0.00    +0.073 A 
ATOM     20  C   UNL     1       0.092   1.766   3.167  0.00  0.00    +0.021 A 
BRANCH  19  21
ATOM     21  C   UNL     1       2.444   2.376   2.830  0.00  0.00    +0.101 C 
ATOM     22  N   UNL     1       3.304   3.107   2.958  0.00  0.00    -0.191 NA
ENDBRANCH  19  21
ENDBRANCH   1  18
BRANCH  12  23
ATOM     23  C   UNL     1       3.099  -3.722   1.819  0.00  0.00    +0.218 C 
ATOM     24  O   UNL     1       2.717  -3.471   0.696  0.00  0.00    -0.275 OA
ATOM     25  N   UNL     1       2.359  -4.512   2.622  0.00  0.00    -0.317 N 
ATOM     26  H   UNL     1       2.664  -4.713   3.521  0.00  0.00    +0.149 HD
BRANCH  25  27
ATOM     27  C   UNL     1       1.093  -5.066   2.138  0.00  0.00    +0.085 C 
BRANCH  27  28
ATOM     28  C   UNL     1       0.457  -5.920   3.237  0.00  0.00    -0.060 C 
BRANCH  28  29
ATOM     29  N   UNL     1      -0.813  -6.477   2.751  0.00  0.00    +0.381 N 
ATOM     30  C   UNL     1      -1.760  -5.384   2.500  0.00  0.00    -0.079 C 
ATOM     31  C   UNL     1      -3.057  -5.951   1.917  0.00  0.00    -0.019 C 
ATOM     32  C   UNL     1      -3.668  -6.939   2.914  0.00  0.00    -0.004 C 
ATOM     33  C   UNL     1      -2.644  -8.034   3.226  0.00  0.00    -0.019 C 
ATOM     34  C   UNL     1      -1.363  -7.390   3.760  0.00  0.00    -0.079 C 
ATOM     35  H   UNL     1      -0.651  -6.983   1.893  0.00  0.00    -0.082 HD
ENDBRANCH  28  29
ENDBRANCH  27  28
ENDBRANCH  25  27
ENDBRANCH  12  23
BRANCH   8  36
ATOM     36  N   UNL     1       7.697  -5.807  -2.239  0.00  0.00    +0.056 N 
ATOM     37  O   UNL     1       7.948  -5.718  -3.418  0.00  0.00    -0.126 OA
ATOM     38  O   UNL     1       8.117  -6.744  -1.601  0.00  0.00    -0.126 OA
ENDBRANCH   8  36
TORSDOF 7
