REMARK  Name = ZINC30945755
REMARK  5 active torsions:
REMARK  status: ('A' for Active; 'I' for Inactive)
REMARK    1  A    between atoms: C_6  and  C_7
REMARK    2  A    between atoms: C_7  and  N_8
REMARK    3  A    between atoms: C_12  and  C_15
REMARK    4  A    between atoms: N_17  and  C_18
REMARK    5  A    between atoms: C_20  and  N_25
REMARK                            x       y       z     vdW  Elec       q    Type
REMARK                         _______ _______ _______ _____ _____    ______ ____
ROOT
ATOM      1  N   UNL     1       2.893   0.782  -1.407  0.00  0.00    +0.383 N 
ATOM      2  C   UNL     1       1.974  -0.139  -2.088  0.00  0.00    -0.078 C 
ATOM      3  C   UNL     1       2.352  -0.237  -3.567  0.00  0.00    -0.018 C 
ATOM      4  C   UNL     1       3.792  -0.743  -3.688  0.00  0.00    +0.009 C 
ATOM      5  C   UNL     1       4.723   0.208  -2.930  0.00  0.00    +0.059 C 
ATOM      6  C   UNL     1       4.276   0.294  -1.469  0.00  0.00    -0.066 C 
ATOM      7  H   UNL     1       2.854   1.746  -1.935  0.00  0.00    -0.081 HD
ENDROOT
BRANCH   5   8
ATOM      8  C   UNL     1       6.136  -0.314  -2.994  0.00  0.00    +0.219 C 
ATOM      9  O   UNL     1       6.727  -0.590  -1.972  0.00  0.00    -0.275 OA
ATOM     10  N   UNL     1       6.742  -0.474  -4.187  0.00  0.00    -0.284 N 
ATOM     11  H   UNL     1       6.182  -0.294  -5.117  0.00  0.00    +0.155 HD
BRANCH  10  12
ATOM     12  C   UNL     1       8.083  -0.869  -4.244  0.00  0.00    +0.054 A 
ATOM     13  C   UNL     1       8.591  -1.747  -3.295  0.00  0.00    +0.057 A 
ATOM     14  C   UNL     1       9.915  -2.135  -3.353  0.00  0.00    +0.128 A 
ATOM     15  C   UNL     1      10.736  -1.650  -4.355  0.00  0.00    +0.034 A 
ATOM     16  C   UNL     1      10.235  -0.776  -5.302  0.00  0.00    +0.024 A 
ATOM     17  C   UNL     1       8.909  -0.388  -5.252  0.00  0.00    +0.062 A 
ATOM     18 CL   UNL     1       8.278   0.705  -6.445  0.00  0.00    -0.082 Cl
BRANCH  14  19
ATOM     19  N   UNL     1      10.456  -3.071  -2.342  0.00  0.00    +0.056 N 
ATOM     20  O   UNL     1       9.734  -3.498  -1.460  0.00  0.00    -0.126 OA
ATOM     21  O   UNL     1      11.624  -3.414  -2.393  0.00  0.00    -0.126 OA
ENDBRANCH  14  19
ENDBRANCH  10  12
ENDBRANCH   5   8
BRANCH   1  22
ATOM     22  C   UNL     1       2.476   1.009  -0.016  0.00  0.00    -0.043 C 
BRANCH  22  28
ATOM     23  C   UNL     1       1.127   3.117   0.009  0.00  0.00    +0.003 A 
ATOM     24  C   UNL     1      -0.084   3.784   0.025  0.00  0.00    +0.021 A 
ATOM     25  C   UNL     1      -1.267   3.068   0.032  0.00  0.00    +0.059 A 
ATOM     26  C   UNL     1      -1.239   1.683   0.016  0.00  0.00    +0.059 A 
ATOM     27  C   UNL     1      -0.026   1.018   0.007  0.00  0.00    +0.023 A 
ATOM     28  C   UNL     1       1.156   1.735   0.001  0.00  0.00    -0.062 A 
ATOM     29 CL   UNL     1      -2.723   0.784   0.016  0.00  0.00    -0.082 Cl
ATOM     30 CL   UNL     1      -2.788   3.905   0.052  0.00  0.00    -0.082 Cl
ENDBRANCH  22  28
ENDBRANCH   1  22
TORSDOF 5
