REMARK  Name = ZINC63383908
REMARK  10 active torsions:
REMARK  status: ('A' for Active; 'I' for Inactive)
REMARK    1  A    between atoms: C_1  and  C_2
REMARK    2  A    between atoms: C_2  and  C_3
REMARK    3  A    between atoms: C_3  and  C_5
REMARK    4  A    between atoms: C_3  and  C_6
REMARK    5  A    between atoms: C_6  and  C_8
REMARK    6  A    between atoms: C_6  and  N_14
REMARK    7  A    between atoms: N_10  and  C_11
REMARK    8  A    between atoms: C_11  and  C_12
REMARK    9  A    between atoms: C_11  and  C_13
REMARK   10  A    between atoms: C_15  and  C_17
REMARK                            x       y       z     vdW  Elec       q    Type
REMARK                         _______ _______ _______ _____ _____    ______ ____
ROOT
ATOM      1  C   UNL     1      -2.509  -3.681   3.497  0.00  0.00    +0.167 C 
ATOM      2  C   UNL     1      -2.389  -5.173   3.129  0.00  0.00    +0.065 C 
ATOM      3  C   UNL     1      -3.746  -5.622   2.646  0.00  0.00    -0.034 C 
ATOM      4  C   UNL     1      -4.109  -6.241   1.527  0.00  0.00    -0.001 A 
ATOM      5  C   UNL     1      -3.319  -6.790   0.412  0.00  0.00    +0.010 A 
ATOM      6  C   UNL     1      -4.026  -7.351  -0.604  0.00  0.00    +0.001 A 
ATOM      7  C   UNL     1      -5.423  -7.422  -0.622  0.00  0.00    +0.002 A 
ATOM      8  C   UNL     1      -6.227  -6.951   0.363  0.00  0.00    +0.026 A 
ATOM      9  C   UNL     1      -5.599  -6.344   1.489  0.00  0.00    +0.043 A 
ATOM     10  N   UNL     1      -6.117  -5.835   2.567  0.00  0.00    -0.375 N 
ATOM     11  C   UNL     1      -5.027  -5.396   3.442  0.00  0.00    +0.131 C 
ATOM     12  C   UNL     1      -5.101  -3.892   3.726  0.00  0.00    +0.134 C 
ATOM     13  N   UNL     1      -3.767  -3.476   4.225  0.00  0.00    -0.276 N 
ATOM     14  C   UNL     1      -3.912  -2.909   5.436  0.00  0.00    +0.248 C 
ATOM     15  O   UNL     1      -3.014  -2.398   6.077  0.00  0.00    -0.270 OA
ATOM     16  C   UNL     1      -5.307  -2.995   5.871  0.00  0.00    +0.042 A 
ATOM     17  C   UNL     1      -6.071  -3.604   4.825  0.00  0.00    -0.013 A 
ATOM     18  C   UNL     1      -7.425  -3.826   4.935  0.00  0.00    +0.006 A 
ATOM     19  C   UNL     1      -8.037  -3.425   6.119  0.00  0.00    +0.000 A 
ATOM     20  C   UNL     1      -7.325  -2.830   7.141  0.00  0.00    +0.001 A 
ATOM     21  C   UNL     1      -5.920  -2.591   7.060  0.00  0.00    +0.013 A 
ATOM     22  H   UNL     1      -7.064  -5.757   2.760  0.00  0.00    +0.160 HD
ENDROOT
BRANCH   1  24
ATOM     23  N   UNL     1      -1.450  -2.886   1.407  0.00  0.00    -0.302 N 
ATOM     24  C   UNL     1      -2.509  -2.849   2.241  0.00  0.00    +0.235 C 
ATOM     25  O   UNL     1      -3.462  -2.145   1.980  0.00  0.00    -0.274 OA
ATOM     26  H   UNL     1      -0.688  -3.448   1.616  0.00  0.00    +0.150 HD
BRANCH  23  27
ATOM     27  C   UNL     1      -1.451  -2.076   0.186  0.00  0.00    +0.162 C 
BRANCH  27  28
ATOM     28  C   UNL     1      -0.536  -2.704  -0.833  0.00  0.00    +0.234 C 
ATOM     29  O   UNL     1       0.359  -3.440  -0.473  0.00  0.00    -0.274 OA
ATOM     30  N   UNL     1      -0.712  -2.449  -2.145  0.00  0.00    -0.311 N 
ATOM     31  H   UNL     1      -1.467  -1.916  -2.438  0.00  0.00    +0.149 HD
BRANCH  30  32
ATOM     32  C   UNL     1       0.238  -2.977  -3.128  0.00  0.00    +0.067 C 
ATOM     33  C   UNL     1      -0.454  -3.108  -4.486  0.00  0.00    +0.027 C 
ATOM     34  C   UNL     1       1.427  -2.022  -3.251  0.00  0.00    +0.027 C 
ENDBRANCH  30  32
ENDBRANCH  27  28
BRANCH  27  35
ATOM     35  C   UNL     1      -0.960  -0.664   0.510  0.00  0.00    +0.015 C 
ATOM     36  C   UNL     1       0.400  -0.744   1.206  0.00  0.00    +0.010 C 
BRANCH  35  38
ATOM     37  C   UNL     1      -1.540   1.478   1.659  0.00  0.00    +0.004 C 
ATOM     38  C   UNL     1      -1.966   0.026   1.435  0.00  0.00    +0.002 C 
ENDBRANCH  35  38
ENDBRANCH  27  35
ENDBRANCH  23  27
ENDBRANCH   1  24
TORSDOF 6
