REMARK  Name = ZINC32747310
REMARK  8 active torsions:
REMARK  status: ('A' for Active; 'I' for Inactive)
REMARK    1  A    between atoms: C_1  and  C_2
REMARK    2  A    between atoms: C_4  and  C_34
REMARK    3  A    between atoms: C_5  and  N_9
REMARK    4  A    between atoms: C_10  and  C_12
REMARK    5  A    between atoms: C_12  and  N_13
REMARK    6  A    between atoms: C_14  and  C_26
REMARK    7  A    between atoms: C_26  and  N_27
REMARK    8  A    between atoms: C_30  and  C_33
REMARK                            x       y       z     vdW  Elec       q    Type
REMARK                         _______ _______ _______ _____ _____    ______ ____
ROOT
ATOM      1  N   UNL     1       1.847   6.968   0.077  0.00  0.00    -0.289 N 
ATOM      2  C   UNL     1       1.085   8.064   0.326  0.00  0.00    +0.097 A 
ATOM      3  N   UNL     1      -0.213   7.975   0.445  0.00  0.00    -0.228 NA
ATOM      4  C   UNL     1      -0.830   6.802   0.326  0.00  0.00    +0.116 A 
ATOM      5  C   UNL     1      -0.128   5.617   0.068  0.00  0.00    +0.076 A 
ATOM      6  C   UNL     1       1.294   5.747  -0.057  0.00  0.00    +0.263 A 
ATOM      7  O   UNL     1       1.989   4.772  -0.281  0.00  0.00    -0.267 OA
ATOM      8  C   UNL     1      -0.939   4.396  -0.041  0.00  0.00    -0.023 A 
ATOM      9  C   UNL     1      -2.266   4.532   0.121  0.00  0.00    -0.004 A 
ATOM     10  S   UNL     1      -2.518   6.267   0.413  0.00  0.00    -0.073 S 
ATOM     11  C   UNL     1      -2.991   3.219  -0.008  0.00  0.00    +0.043 C 
ATOM     12  C   UNL     1      -1.889   2.150   0.154  0.00  0.00    +0.010 C 
ATOM     13  C   UNL     1      -0.636   2.919  -0.309  0.00  0.00    +0.037 C 
ENDROOT
BRANCH   1  14
ATOM     14  C   UNL     1       3.299   7.116  -0.048  0.00  0.00    +0.222 C 
BRANCH  14  16
ATOM     15  N   UNL     1       4.942   7.557  -1.844  0.00  0.00    -0.283 N 
ATOM     16  C   UNL     1       3.654   7.385  -1.488  0.00  0.00    +0.237 C 
ATOM     17  O   UNL     1       2.780   7.447  -2.327  0.00  0.00    -0.274 OA
ATOM     18  H   UNL     1       5.729   7.559  -1.075  0.00  0.00    +0.155 HD
BRANCH  15  23
ATOM     19  C   UNL     1       6.309   8.267  -7.305  0.00  0.00    +0.044 C 
ATOM     20  C   UNL     1       5.946   8.078  -5.855  0.00  0.00    -0.049 A 
ATOM     21  C   UNL     1       6.555   8.853  -4.884  0.00  0.00    +0.008 A 
ATOM     22  C   UNL     1       6.224   8.682  -3.554  0.00  0.00    -0.028 A 
ATOM     23  C   UNL     1       5.279   7.732  -3.191  0.00  0.00    +0.055 A 
ATOM     24  C   UNL     1       4.673   6.952  -4.168  0.00  0.00    +0.063 A 
ATOM     25  C   UNL     1       5.005   7.131  -5.497  0.00  0.00    +0.025 A 
ATOM     26 CL   UNL     1       3.495   5.758  -3.719  0.00  0.00    -0.082 Cl
ATOM     27  C   UNL     1       6.888   9.527  -2.498  0.00  0.00    +0.046 C 
ENDBRANCH  15  23
ENDBRANCH  14  16
ENDBRANCH   1  14
BRANCH   2  28
ATOM     28  C   UNL     1       1.750   9.409   0.468  0.00  0.00    -0.003 C 
BRANCH  28  29
ATOM     29  N   UNL     1       0.738  10.424   0.793  0.00  0.00    +0.384 N 
ATOM     30  C   UNL     1       1.370  11.680   1.217  0.00  0.00    -0.078 C 
ATOM     31  C   UNL     1       0.293  12.661   1.685  0.00  0.00    -0.016 C 
ATOM     32  C   UNL     1      -0.687  12.922   0.538  0.00  0.00    -0.018 C 
ATOM     33  C   UNL     1      -1.294  11.592   0.084  0.00  0.00    -0.016 C 
ATOM     34  C   UNL     1      -0.172  10.642  -0.338  0.00  0.00    -0.078 C 
ATOM     35  C   UNL     1      -1.800  13.855   1.019  0.00  0.00    +0.007 C 
ATOM     36  H   UNL     1       0.140  10.048   1.637  0.00  0.00    -0.081 HD
ENDBRANCH  28  29
ENDBRANCH   2  28
TORSDOF 5
