REMARK  Name = ZINC36252053
REMARK  7 active torsions:
REMARK  status: ('A' for Active; 'I' for Inactive)
REMARK    1  A    between atoms: C_1  and  C_2
REMARK    2  A    between atoms: C_5  and  C_21
REMARK    3  A    between atoms: C_6  and  O_8
REMARK    4  A    between atoms: O_8  and  C_9
REMARK    5  A    between atoms: C_9  and  C_10
REMARK    6  A    between atoms: C_17  and  C_20
REMARK    7  A    between atoms: C_18  and  N_19
REMARK                            x       y       z     vdW  Elec       q    Type
REMARK                         _______ _______ _______ _____ _____    ______ ____
ROOT
ATOM      1  C   UNL     1       0.063  -2.932   4.751  0.00  0.00    +0.176 A 
ATOM      2  N   UNL     1      -0.983  -3.426   5.363  0.00  0.00    -0.130 NA
ATOM      3  N   UNL     1      -0.614  -4.180   6.338  0.00  0.00    -0.127 NA
ATOM      4  C   UNL     1       0.707  -4.206   6.399  0.00  0.00    +0.182 A 
ATOM      5  N   UNL     1       1.169  -3.411   5.380  0.00  0.00    -0.282 N 
ATOM      6  C   UNL     1       2.511  -3.245   5.185  0.00  0.00    +0.095 A 
ATOM      7  C   UNL     1       3.404  -3.862   5.987  0.00  0.00    +0.023 A 
ATOM      8  C   UNL     1       2.967  -4.685   7.038  0.00  0.00    -0.025 A 
ATOM      9  C   UNL     1       1.629  -4.856   7.252  0.00  0.00    +0.073 A 
ATOM     10  C   UNL     1       3.971  -5.371   7.929  0.00  0.00    +0.046 C 
ENDROOT
BRANCH   9  11
ATOM     11  N   UNL     1       1.177  -5.673   8.290  0.00  0.00    -0.355 N 
ATOM     12  H   UNL     1       0.225  -5.797   8.430  0.00  0.00    +0.142 HD
ATOM     13  H   UNL     1       1.815  -6.116   8.871  0.00  0.00    +0.142 HD
ENDBRANCH   9  11
BRANCH   1  14
ATOM     14  C   UNL     1       0.045  -2.006   3.562  0.00  0.00    +0.305 C 
BRANCH  14  15
ATOM     15  O   UNL     1       0.050  -2.776   2.358  0.00  0.00    -0.484 OA
BRANCH  15  21
ATOM     16  C   UNL     1      -0.018   1.503   0.010  0.00  0.00    +0.044 C 
ATOM     17  C   UNL     1       0.002  -0.004   0.002  0.00  0.00    -0.047 A 
ATOM     18  C   UNL     1       0.006  -0.688  -1.200  0.00  0.00    +0.004 A 
ATOM     19  C   UNL     1       0.024  -2.071  -1.211  0.00  0.00    +0.007 A 
ATOM     20  C   UNL     1       0.039  -2.772  -0.020  0.00  0.00    -0.009 A 
ATOM     21  C   UNL     1       0.035  -2.088   1.186  0.00  0.00    +0.124 A 
ATOM     22  C   UNL     1       0.023  -0.700   1.195  0.00  0.00    +0.049 A 
ATOM     23  C   UNL     1       0.059  -4.279  -0.033  0.00  0.00    +0.047 C 
ENDBRANCH  15  21
ENDBRANCH  14  15
ENDBRANCH   1  14
TORSDOF 4
