REMARK  Name = ZINC02569084
REMARK  8 active torsions:
REMARK  status: ('A' for Active; 'I' for Inactive)
REMARK    1  A    between atoms: C_1  and  C_2
REMARK    2  A    between atoms: C_3  and  C_16
REMARK    3  A    between atoms: C_4  and  C_15
REMARK    4  A    between atoms: C_5  and  S_10
REMARK    5  A    between atoms: C_6  and  C_9
REMARK    6  A    between atoms: C_7  and  C_8
REMARK    7  A    between atoms: S_10  and  N_13
REMARK    8  A    between atoms: N_13  and  N_14
REMARK                            x       y       z     vdW  Elec       q    Type
REMARK                         _______ _______ _______ _____ _____    ______ ____
ROOT
ATOM      1  C   UNL     1      -0.639   5.964  -0.091  0.00  0.00    +0.044 C 
ATOM      2  C   UNL     1      -0.327   4.491  -0.034  0.00  0.00    -0.044 A 
ATOM      3  C   UNL     1       0.987   4.063  -0.026  0.00  0.00    -0.043 A 
ATOM      4  C   UNL     1       1.274   2.712   0.026  0.00  0.00    -0.021 A 
ATOM      5  C   UNL     1       0.246   1.789   0.072  0.00  0.00    +0.113 A 
ATOM      6  C   UNL     1      -1.069   2.216   0.059  0.00  0.00    -0.021 A 
ATOM      7  C   UNL     1      -1.355   3.568   0.011  0.00  0.00    -0.043 A 
ATOM      8  C   UNL     1      -2.788   4.035   0.003  0.00  0.00    +0.044 C 
ATOM      9  C   UNL     1      -2.189   1.210   0.102  0.00  0.00    +0.046 C 
ATOM     10  C   UNL     1       2.707   2.245   0.034  0.00  0.00    +0.046 C 
ATOM     11  C   UNL     1       2.108   5.070  -0.075  0.00  0.00    +0.044 C 
ENDROOT
BRANCH   5  12
ATOM     12  S   UNL     1       0.611   0.066   0.138  0.00  0.00    +0.071 S 
ATOM     13  O   UNL     1       1.827  -0.064   0.863  0.00  0.00    -0.152 OA
ATOM     14  O   UNL     1      -0.586  -0.588   0.536  0.00  0.00    -0.152 OA
BRANCH  12  15
ATOM     15  N   UNL     1       0.928  -0.427  -1.410  0.00  0.00    -0.127 NA
ATOM     16  H   UNL     1       0.383  -1.116  -1.821  0.00  0.00    +0.167 HD
BRANCH  15  17
ATOM     17  N   UNL     1       1.958   0.135  -2.109  0.00  0.00    -0.251 NA
ATOM     18  H   UNL     1       2.829   0.043  -1.607  0.00  0.00    +0.138 HD
ATOM     19  H   UNL     1       2.030  -0.264  -3.033  0.00  0.00    +0.138 HD
ENDBRANCH  15  17
ENDBRANCH  12  15
ENDBRANCH   5  12
TORSDOF 3
