REMARK  Name = ZINC12319471
REMARK  6 active torsions:
REMARK  status: ('A' for Active; 'I' for Inactive)
REMARK    1  A    between atoms: C_1  and  C_2
REMARK    2  A    between atoms: C_7  and  N_8
REMARK    3  A    between atoms: C_9  and  C_11
REMARK    4  A    between atoms: C_11  and  C_13
REMARK    5  A    between atoms: C_11  and  N_20
REMARK    6  A    between atoms: C_13  and  C_14
REMARK                            x       y       z     vdW  Elec       q    Type
REMARK                         _______ _______ _______ _____ _____    ______ ____
ROOT
ATOM      1  C   UNL     1      -2.785   2.979  -1.827  0.00  0.00    +0.174 C 
ENDROOT
BRANCH   1   2
ATOM      2  N   UNL     1      -1.641   2.382  -1.134  0.00  0.00    -0.229 N 
ATOM      3  C   UNL     1      -0.562   1.922  -1.780  0.00  0.00    +0.227 C 
ATOM      4  O   UNL     1      -0.401   1.941  -2.982  0.00  0.00    -0.275 OA
ATOM      5  C   UNL     1       0.424   1.373  -0.771  0.00  0.00    +0.095 C 
ATOM      6  C   UNL     1       0.623  -0.125  -1.040  0.00  0.00    +0.027 C 
ATOM      7  C   UNL     1      -0.733  -0.801  -0.871  0.00  0.00    -0.026 C 
ATOM      8  C   UNL     1      -1.324  -0.605   0.302  0.00  0.00    -0.026 C 
ATOM      9  C   UNL     1      -0.549   0.265   1.285  0.00  0.00    +0.027 C 
ATOM     10  C   UNL     1      -0.276   1.600   0.579  0.00  0.00    +0.095 C 
ATOM     11  C   UNL     1      -1.594   2.246   0.209  0.00  0.00    +0.227 C 
ATOM     12  O   UNL     1      -2.455   2.583   0.993  0.00  0.00    -0.275 OA
ATOM     13  C   UNL     1       0.824  -0.432   1.483  0.00  0.00    +0.001 C 
ATOM     14  C   UNL     1       1.515  -0.662   0.111  0.00  0.00    +0.001 C 
ATOM     15  C   UNL     1       2.079   0.386   1.072  0.00  0.00    +0.009 C 
ENDBRANCH   1   2
BRANCH   1  17
ATOM     16  N   UNL     1      -4.497   2.277  -3.469  0.00  0.00    -0.284 N 
ATOM     17  C   UNL     1      -3.420   1.951  -2.727  0.00  0.00    +0.239 C 
ATOM     18  O   UNL     1      -2.962   0.829  -2.784  0.00  0.00    -0.273 OA
ATOM     19  H   UNL     1      -4.910   3.149  -3.366  0.00  0.00    +0.155 HD
BRANCH  16  26
ATOM     20  C   UNL     1      -7.182   2.629  -4.342  0.00  0.00    +0.046 C 
ATOM     21  C   UNL     1      -6.325   1.493  -4.838  0.00  0.00    -0.028 A 
ATOM     22  C   UNL     1      -6.838   0.585  -5.745  0.00  0.00    +0.020 A 
ATOM     23  C   UNL     1      -6.052  -0.457  -6.202  0.00  0.00    +0.018 A 
ATOM     24  C   UNL     1      -4.750  -0.594  -5.753  0.00  0.00    +0.017 A 
ATOM     25  C   UNL     1      -4.231   0.314  -4.851  0.00  0.00    +0.024 A 
ATOM     26  C   UNL     1      -5.020   1.359  -4.386  0.00  0.00    +0.036 A 
ATOM     27 BR   UNL     1      -6.757  -1.698  -7.442  0.00  0.00    -0.050 Br
ENDBRANCH  16  26
ENDBRANCH   1  17
BRANCH   1  28
ATOM     28  C   UNL     1      -2.310   4.168  -2.666  0.00  0.00    +0.067 C 
BRANCH  28  29
ATOM     29  C   UNL     1      -1.772   5.242  -1.756  0.00  0.00    -0.045 A 
ATOM     30  C   UNL     1      -2.635   6.155  -1.179  0.00  0.00    +0.004 A 
ATOM     31  C   UNL     1      -2.142   7.138  -0.341  0.00  0.00    +0.000 A 
ATOM     32  C   UNL     1      -0.785   7.212  -0.087  0.00  0.00    +0.000 A 
ATOM     33  C   UNL     1       0.078   6.302  -0.668  0.00  0.00    +0.000 A 
ATOM     34  C   UNL     1      -0.415   5.317  -1.503  0.00  0.00    +0.004 A 
ENDBRANCH  28  29
ENDBRANCH   1  28
TORSDOF 5
