REMARK  Name = ZINC18322827
REMARK  8 active torsions:
REMARK  status: ('A' for Active; 'I' for Inactive)
REMARK    1  A    between atoms: C_1  and  C_2
REMARK    2  A    between atoms: C_2  and  C_3
REMARK    3  A    between atoms: C_2  and  C_4
REMARK    4  A    between atoms: C_2  and  C_5
REMARK    5  A    between atoms: C_12  and  C_16
REMARK    6  A    between atoms: N_18  and  N_19
REMARK    7  A    between atoms: N_27  and  C_30
REMARK    8  A    between atoms: C_30  and  C_31
REMARK                            x       y       z     vdW  Elec       q    Type
REMARK                         _______ _______ _______ _____ _____    ______ ____
ROOT
ATOM      1  N   UNL     1       8.198  -0.028  -5.127  0.00  0.00    -0.174 NA
ATOM      2  C   UNL     1       9.049  -0.662  -5.896  0.00  0.00    +0.153 C 
ATOM      3  C   UNL     1       8.855  -1.965  -6.574  0.00  0.00    +0.028 A 
ATOM      4  C   UNL     1       7.798  -2.867  -6.618  0.00  0.00    +0.012 A 
ATOM      5  C   UNL     1       7.918  -4.027  -7.358  0.00  0.00    +0.001 A 
ATOM      6  C   UNL     1       9.087  -4.289  -8.053  0.00  0.00    +0.002 A 
ATOM      7  C   UNL     1      10.141  -3.399  -8.016  0.00  0.00    +0.024 A 
ATOM      8  C   UNL     1      10.039  -2.226  -7.276  0.00  0.00    +0.046 A 
ATOM      9  N   UNL     1      10.934  -1.181  -7.074  0.00  0.00    -0.261 N 
ATOM     10  C   UNL     1      10.409  -0.232  -6.279  0.00  0.00    +0.272 C 
ATOM     11  O   UNL     1      10.959   0.798  -5.934  0.00  0.00    -0.268 OA
ENDROOT
BRANCH   1  14
ATOM     12  C   UNL     1       6.091   0.026  -4.019  0.00  0.00    +0.276 C 
ATOM     13  O   UNL     1       6.282   1.192  -3.744  0.00  0.00    -0.270 OA
ATOM     14  N   UNL     1       7.016  -0.660  -4.719  0.00  0.00    -0.203 N 
ATOM     15  H   UNL     1       6.864  -1.593  -4.939  0.00  0.00    +0.177 HD
BRANCH  12  23
ATOM     16  C   UNL     1       0.755   0.153  -1.236  0.00  0.00    -0.038 A 
ATOM     17  C   UNL     1       0.117  -0.779  -2.033  0.00  0.00    +0.008 A 
ATOM     18  C   UNL     1       0.795  -1.380  -3.076  0.00  0.00    +0.050 A 
ATOM     19  C   UNL     1       2.119  -1.049  -3.327  0.00  0.00    +0.162 A 
ATOM     20  C   UNL     1       2.759  -0.110  -2.527  0.00  0.00    +0.163 A 
ATOM     21  C   UNL     1       2.071   0.492  -1.484  0.00  0.00    +0.053 A 
ATOM     22  O   UNL     1       4.055   0.235  -2.760  0.00  0.00    -0.472 OA
ATOM     23  C   UNL     1       4.821  -0.654  -3.580  0.00  0.00    +0.297 C 
ATOM     24  C   UNL     1       3.978  -1.022  -4.809  0.00  0.00    +0.283 C 
ATOM     25  O   UNL     1       2.775  -1.652  -4.355  0.00  0.00    -0.484 OA
BRANCH  16  27
ATOM     26  C   UNL     1      -0.032   2.318  -0.319  0.00  0.00    +0.015 C 
ATOM     27  C   UNL     1       0.011   0.805  -0.099  0.00  0.00    -0.013 C 
ATOM     28  C   UNL     1       0.727   0.501   1.219  0.00  0.00    +0.015 C 
ATOM     29  C   UNL     1      -1.416   0.257  -0.042  0.00  0.00    +0.015 C 
ENDBRANCH  16  27
ENDBRANCH  12  23
ENDBRANCH   1  14
BRANCH   9  30
ATOM     30  C   UNL     1      12.275  -1.118  -7.658  0.00  0.00    +0.149 C 
BRANCH  30  31
ATOM     31  C   UNL     1      12.218  -0.383  -8.972  0.00  0.00    -0.022 A 
ATOM     32  C   UNL     1      11.016  -0.044  -9.514  0.00  0.00    +0.006 A 
ATOM     33  C   UNL     1      10.942   0.635 -10.728  0.00  0.00    +0.001 A 
ATOM     34  C   UNL     1      12.070   0.980 -11.408  0.00  0.00    +0.008 A 
ATOM     35  C   UNL     1      13.329   0.648 -10.879  0.00  0.00    -0.018 A 
ATOM     36  C   UNL     1      13.404  -0.038  -9.641  0.00  0.00    -0.013 A 
ATOM     37  C   UNL     1      14.663  -0.366  -9.110  0.00  0.00    +0.009 A 
ATOM     38  C   UNL     1      15.791  -0.015  -9.786  0.00  0.00    +0.001 A 
ATOM     39  C   UNL     1      15.718   0.665 -11.001  0.00  0.00    +0.001 A 
ATOM     40  C   UNL     1      14.516   0.987 -11.552  0.00  0.00    +0.008 A 
ENDBRANCH  30  31
ENDBRANCH   9  30
TORSDOF 5
