REMARK  Name = ZINC49104127
REMARK  7 active torsions:
REMARK  status: ('A' for Active; 'I' for Inactive)
REMARK    1  A    between atoms: C_1  and  C_2
REMARK    2  A    between atoms: C_2  and  C_3
REMARK    3  A    between atoms: C_3  and  C_4
REMARK    4  A    between atoms: C_4  and  C_6
REMARK    5  A    between atoms: C_4  and  N_18
REMARK    6  A    between atoms: C_10  and  C_17
REMARK    7  A    between atoms: C_13  and  C_16
REMARK                            x       y       z     vdW  Elec       q    Type
REMARK                         _______ _______ _______ _____ _____    ______ ____
ROOT
ATOM      1  C   UNL     1       0.762  -2.043   1.233  0.00  0.00    +0.160 C 
ENDROOT
BRANCH   1   2
ATOM      2  C   UNL     1       1.479  -2.580   2.445  0.00  0.00    +0.236 C 
ATOM      3  O   UNL     1       2.515  -3.196   2.312  0.00  0.00    -0.274 OA
ATOM      4  N   UNL     1       0.969  -2.375   3.675  0.00  0.00    -0.299 N 
ATOM      5  C   UNL     1      -0.340  -1.730   3.845  0.00  0.00    +0.111 C 
ATOM      6  C   UNL     1      -1.224  -2.630   4.715  0.00  0.00    +0.004 C 
ATOM      7  C   UNL     1      -0.498  -2.936   6.027  0.00  0.00    +0.009 C 
ATOM      8  C   UNL     1       0.805  -3.681   5.730  0.00  0.00    +0.004 C 
ATOM      9  C   UNL     1       1.709  -2.798   4.872  0.00  0.00    +0.111 C 
ATOM     10  C   UNL     1       1.513  -4.016   7.045  0.00  0.00    +0.009 C 
ATOM     11  C   UNL     1      -2.543  -1.915   5.014  0.00  0.00    +0.009 C 
ENDBRANCH   1   2
BRANCH   1  12
ATOM     12  N   UNL     1       1.160  -2.810   0.050  0.00  0.00    -0.288 N 
ATOM     13  C   UNL     1       0.336  -2.882  -1.015  0.00  0.00    +0.298 C 
ATOM     14  O   UNL     1      -0.737  -2.311  -0.993  0.00  0.00    -0.253 OA
ATOM     15  N   UNL     1       0.703  -3.588  -2.103  0.00  0.00    -0.313 N 
ATOM     16  H   UNL     1       2.016  -3.265   0.033  0.00  0.00    +0.151 HD
ATOM     17  H   UNL     1       1.559  -4.043  -2.120  0.00  0.00    +0.146 HD
ATOM     18  H   UNL     1       0.110  -3.640  -2.869  0.00  0.00    +0.146 HD
ENDBRANCH   1  12
BRANCH   1  19
ATOM     19  C   UNL     1       1.129  -0.571   1.034  0.00  0.00    +0.031 C 
BRANCH  19  21
ATOM     20  C   UNL     1       0.654   1.488  -0.301  0.00  0.00    +0.004 C 
ATOM     21  C   UNL     1       0.287   0.016  -0.102  0.00  0.00    -0.001 C 
ENDBRANCH  19  21
ENDBRANCH   1  19
TORSDOF 4
