REMARK  Name = ZINC53919600
REMARK  4 active torsions:
REMARK  status: ('A' for Active; 'I' for Inactive)
REMARK    1  A    between atoms: C_1  and  C_2
REMARK    2  A    between atoms: C_9  and  C_11
REMARK    3  A    between atoms: N_13  and  N_14
REMARK    4  A    between atoms: C_20  and  C_23
REMARK                            x       y       z     vdW  Elec       q    Type
REMARK                         _______ _______ _______ _____ _____    ______ ____
ROOT
ATOM      1  N   UNL     1       1.982  -7.562   3.417  0.00  0.00    -0.218 N 
ATOM      2  C   UNL     1       1.966  -8.845   3.005  0.00  0.00    +0.319 C 
ATOM      3  O   UNL     1       1.800  -9.103   1.828  0.00  0.00    -0.251 OA
ATOM      4  N   UNL     1       2.134  -9.841   3.896  0.00  0.00    -0.284 N 
ATOM      5  C   UNL     1       2.216  -9.554   5.334  0.00  0.00    +0.110 C 
ATOM      6  C   UNL     1       3.498 -10.181   5.890  0.00  0.00    +0.032 C 
ATOM      7  C   UNL     1       3.523 -11.672   5.545  0.00  0.00    +0.078 C 
ATOM      8  C   UNL     1       3.520 -11.846   4.025  0.00  0.00    +0.032 C 
ATOM      9  C   UNL     1       2.233 -11.237   3.448  0.00  0.00    +0.110 C 
ATOM     10  H   UNL     1       2.188  -7.352   4.342  0.00  0.00    +0.174 HD
ENDROOT
BRANCH   7  11
ATOM     11  C   UNL     1       4.766 -12.300   6.120  0.00  0.00    +0.214 C 
ATOM     12  O   UNL     1       5.555 -11.622   6.744  0.00  0.00    -0.276 OA
ATOM     13  N   UNL     1       5.002 -13.615   5.941  0.00  0.00    -0.329 N 
ATOM     14  H   UNL     1       4.371 -14.157   5.442  0.00  0.00    +0.145 HD
ATOM     15  H   UNL     1       5.802 -14.019   6.311  0.00  0.00    +0.145 HD
ENDBRANCH   7  11
BRANCH   1  18
ATOM     16  C   UNL     1       1.617  -5.257   2.944  0.00  0.00    +0.267 C 
ATOM     17  O   UNL     1       1.786  -5.003   4.122  0.00  0.00    -0.268 OA
ATOM     18  N   UNL     1       1.701  -6.531   2.511  0.00  0.00    -0.229 N 
ATOM     19  H   UNL     1       1.566  -6.734   1.572  0.00  0.00    +0.173 HD
BRANCH  16  27
ATOM     20  C   UNL     1      -0.017   1.528   0.016  0.00  0.00    +0.008 C 
ATOM     21  C   UNL     1       0.002  -0.002   0.008  0.00  0.00    -0.009 C 
ATOM     22  C   UNL     1       0.709  -0.496  -1.258  0.00  0.00    +0.009 C 
ATOM     23  C   UNL     1       0.485  -2.009  -1.390  0.00  0.00    +0.043 C 
ATOM     24  C   UNL     1       0.786  -2.651  -0.068  0.00  0.00    -0.006 A 
ATOM     25  C   UNL     1       0.911  -2.021   1.135  0.00  0.00    -0.036 A 
ATOM     26  C   UNL     1       1.195  -2.822   2.231  0.00  0.00    +0.024 A 
ATOM     27  C   UNL     1       1.323  -4.179   1.996  0.00  0.00    +0.076 A 
ATOM     28  S   UNL     1       1.037  -4.273   0.239  0.00  0.00    -0.088 S 
ATOM     29  C   UNL     1       0.743  -0.508   1.246  0.00  0.00    +0.039 C 
ENDBRANCH  16  27
ENDBRANCH   1  18
TORSDOF 3
