REMARK  Name = ZINC25443681
REMARK  8 active torsions:
REMARK  status: ('A' for Active; 'I' for Inactive)
REMARK    1  A    between atoms: C_1  and  N_2
REMARK    2  A    between atoms: N_2  and  C_3
REMARK    3  A    between atoms: N_2  and  C_4
REMARK    4  A    between atoms: C_4  and  C_11
REMARK    5  A    between atoms: C_11  and  N_12
REMARK    6  A    between atoms: C_13  and  C_15
REMARK    7  A    between atoms: N_20  and  S_22
REMARK    8  A    between atoms: S_22  and  C_25
REMARK                            x       y       z     vdW  Elec       q    Type
REMARK                         _______ _______ _______ _____ _____    ______ ____
ROOT
ATOM      1  N   UNL     1      -2.334  -4.074   3.716  0.00  0.00    -0.316 N 
ATOM      2  C   UNL     1      -1.893  -3.080   2.920  0.00  0.00    +0.217 C 
ATOM      3  O   UNL     1      -2.117  -1.925   3.211  0.00  0.00    -0.275 OA
ATOM      4  H   UNL     1      -2.131  -5.122   3.452  0.00  0.00    +0.149 HD
ENDROOT
BRANCH   2   5
ATOM      5  C   UNL     1      -1.122  -3.405   1.666  0.00  0.00    +0.091 C 
ATOM      6  C   UNL     1       0.151  -4.172   2.034  0.00  0.00    +0.015 C 
ATOM      7  C   UNL     1       0.918  -4.531   0.760  0.00  0.00    +0.018 C 
ATOM      8  C   UNL     1       1.319  -3.249   0.031  0.00  0.00    +0.109 C 
ATOM      9  N   UNL     1       0.119  -2.433  -0.197  0.00  0.00    -0.176 NA
ATOM     10  C   UNL     1      -0.741  -2.106   0.949  0.00  0.00    +0.122 C 
BRANCH   9  11
ATOM     11  S   UNL     1      -0.261  -1.898  -1.717  0.00  0.00    +0.061 S 
ATOM     12  O   UNL     1      -1.663  -1.664  -1.727  0.00  0.00    -0.153 OA
ATOM     13  O   UNL     1       0.369  -2.785  -2.630  0.00  0.00    -0.153 OA
BRANCH  11  14
ATOM     14  C   UNL     1       0.512  -0.328  -1.925  0.00  0.00    +0.106 A 
ATOM     15  C   UNL     1      -0.165   0.826  -1.578  0.00  0.00    +0.031 A 
ATOM     16  C   UNL     1       0.443   2.058  -1.735  0.00  0.00    +0.040 A 
ATOM     17  C   UNL     1       1.725   2.135  -2.252  0.00  0.00    +0.124 A 
ATOM     18  C   UNL     1       2.400   0.979  -2.605  0.00  0.00    +0.040 A 
ATOM     19  C   UNL     1       1.792  -0.252  -2.441  0.00  0.00    +0.031 A 
ATOM     20  F   UNL     1       2.318   3.339  -2.412  0.00  0.00    -0.205 F 
ENDBRANCH  11  14
ENDBRANCH   9  11
ENDBRANCH   2   5
BRANCH   1  21
ATOM     21  C   UNL     1      -3.084  -3.758   4.934  0.00  0.00    +0.092 C 
BRANCH  21  22
ATOM     22  C   UNL     1      -3.575  -5.054   5.582  0.00  0.00    -0.050 C 
ATOM     23  C   UNL     1      -4.950  -4.844   6.156  0.00  0.00    -0.010 C 
ATOM     24  C   UNL     1      -5.221  -3.370   6.512  0.00  0.00    -0.001 C 
ATOM     25  C   UNL     1      -4.015  -2.686   7.184  0.00  0.00    -0.000 C 
ATOM     26  C   UNL     1      -3.340  -3.573   8.195  0.00  0.00    -0.000 C 
ATOM     27  C   UNL     1      -2.173  -4.307   7.502  0.00  0.00    -0.001 C 
ATOM     28  C   UNL     1      -2.622  -5.454   6.727  0.00  0.00    -0.010 C 
BRANCH  22  30
ATOM     29  C   UNL     1      -3.978  -7.409   5.188  0.00  0.00    -0.096 C 
ATOM     30  N   UNL     1      -3.614  -6.124   4.576  0.00  0.00    +0.381 N 
ATOM     31  C   UNL     1      -4.532  -5.784   3.481  0.00  0.00    -0.096 C 
ATOM     32  H   UNL     1      -2.604  -6.226   4.152  0.00  0.00    -0.082 HD
ENDBRANCH  22  30
ENDBRANCH  21  22
ENDBRANCH   1  21
TORSDOF 6
