REMARK  Name = ZINC14540554
REMARK  10 active torsions:
REMARK  status: ('A' for Active; 'I' for Inactive)
REMARK    1  A    between atoms: C_1  and  O_2
REMARK    2  A    between atoms: O_2  and  C_3
REMARK    3  A    between atoms: C_7  and  C_9
REMARK    4  A    between atoms: C_9  and  N_10
REMARK    5  A    between atoms: C_14  and  C_17
REMARK    6  A    between atoms: C_26  and  C_27
REMARK    7  A    between atoms: C_26  and  N_66
REMARK    8  A    between atoms: C_30  and  O_34
REMARK    9  A    between atoms: C_31  and  O_33
REMARK   10  A    between atoms: O_34  and  C_35
REMARK                            x       y       z     vdW  Elec       q    Type
REMARK                         _______ _______ _______ _____ _____    ______ ____
ROOT
ATOM      1  N   UNL     1       4.062   5.662  -5.329  0.00  0.00    -0.307 N 
ATOM      2  C   UNL     1       3.459   5.483  -4.119  0.00  0.00    +0.022 A 
ATOM      3  C   UNL     1       2.142   5.740  -3.963  0.00  0.00    -0.044 A 
ATOM      4  C   UNL     1       1.382   6.187  -5.056  0.00  0.00    +0.017 A 
ATOM      5  C   UNL     1       1.992   6.364  -6.285  0.00  0.00    +0.047 A 
ATOM      6  C   UNL     1       3.377   6.088  -6.402  0.00  0.00    +0.260 A 
ATOM      7  O   UNL     1       3.943   6.237  -7.473  0.00  0.00    -0.267 OA
ATOM      8  C   UNL     1       1.439   5.565  -2.641  0.00  0.00    -0.041 C 
ATOM      9  C   UNL     1       3.606   5.238  -1.645  0.00  0.00    -0.072 C 
ATOM     10  C   UNL     1       4.311   4.984  -2.978  0.00  0.00    +0.035 C 
ATOM     11  N   UNL     1       2.235   4.702  -1.755  0.00  0.00    +0.385 N 
ATOM     12  H   UNL     1       2.275   3.756  -2.153  0.00  0.00    -0.081 HD
ENDROOT
BRANCH   5  13
ATOM     13  C   UNL     1       1.213   6.832  -7.455  0.00  0.00    -0.013 A 
ATOM     14  C   UNL     1       0.200   6.034  -7.986  0.00  0.00    +0.009 A 
ATOM     15  C   UNL     1      -0.525   6.478  -9.073  0.00  0.00    +0.001 A 
ATOM     16  C   UNL     1      -0.242   7.706  -9.642  0.00  0.00    +0.000 A 
ATOM     17  C   UNL     1       0.765   8.500  -9.123  0.00  0.00    +0.001 A 
ATOM     18  C   UNL     1       1.494   8.070  -8.033  0.00  0.00    +0.009 A 
ENDBRANCH   5  13
BRANCH   1  19
ATOM     19  C   UNL     1       5.495   5.384  -5.461  0.00  0.00    +0.160 C 
BRANCH  19  24
ATOM     20  C   UNL     1       6.112   1.656  -5.428  0.00  0.00    +0.120 A 
ATOM     21  C   UNL     1       6.047   1.355  -6.781  0.00  0.00    +0.045 A 
ATOM     22  C   UNL     1       5.804   2.358  -7.699  0.00  0.00    +0.004 A 
ATOM     23  C   UNL     1       5.625   3.660  -7.271  0.00  0.00    +0.005 A 
ATOM     24  C   UNL     1       5.689   3.963  -5.924  0.00  0.00    -0.024 A 
ATOM     25  C   UNL     1       5.938   2.964  -5.001  0.00  0.00    +0.051 A 
BRANCH  20  27
ATOM     26  C   UNL     1       6.528  -0.651  -5.033  0.00  0.00    +0.277 C 
ATOM     27  O   UNL     1       6.352   0.671  -4.522  0.00  0.00    -0.495 OA
ENDBRANCH  20  27
ENDBRANCH  19  24
ENDBRANCH   1  19
BRANCH  11  28
ATOM     28  C   UNL     1       1.607   4.634  -0.415  0.00  0.00    -0.042 C 
BRANCH  28  29
ATOM     29  C   UNL     1       0.292   3.906  -0.525  0.00  0.00    -0.060 A 
ATOM     30  C   UNL     1       0.251   2.532  -0.380  0.00  0.00    +0.005 A 
ATOM     31  C   UNL     1      -0.953   1.859  -0.481  0.00  0.00    +0.049 A 
ATOM     32  C   UNL     1      -2.120   2.562  -0.733  0.00  0.00    +0.161 A 
ATOM     33  C   UNL     1      -2.079   3.946  -0.874  0.00  0.00    +0.159 A 
ATOM     34  C   UNL     1      -0.870   4.614  -0.772  0.00  0.00    +0.051 A 
BRANCH  33  35
ATOM     35  O   UNL     1      -3.223   4.640  -1.116  0.00  0.00    -0.503 OA
ATOM     36  H   UNL     1      -3.428   4.745  -2.055  0.00  0.00    +0.292 HD
ENDBRANCH  33  35
BRANCH  32  37
ATOM     37  O   UNL     1      -3.304   1.901  -0.837  0.00  0.00    -0.491 OA
ATOM     38  C   UNL     1      -3.272   0.481  -0.676  0.00  0.00    +0.277 C 
ENDBRANCH  32  37
ENDBRANCH  28  29
ENDBRANCH  11  28
TORSDOF 8
