REMARK  Name = ZINC62140030
REMARK  5 active torsions:
REMARK  status: ('A' for Active; 'I' for Inactive)
REMARK    1  A    between atoms: C_5  and  C_7
REMARK    2  A    between atoms: C_7  and  C_9
REMARK    3  A    between atoms: C_7  and  O_19
REMARK    4  A    between atoms: C_9  and  C_10
REMARK    5  A    between atoms: C_13  and  N_16
REMARK                            x       y       z     vdW  Elec       q    Type
REMARK                         _______ _______ _______ _____ _____    ______ ____
ROOT
ATOM      1  C   UNL     1       1.229  -2.186  -0.022  0.00  0.00    +0.150 C 
ENDROOT
BRANCH   1   6
ATOM      2  C   UNL     1      -0.017   1.378   0.010  0.00  0.00    +0.000 A 
ATOM      3  C   UNL     1       1.171   2.086   0.002  0.00  0.00    +0.001 A 
ATOM      4  C   UNL     1       2.377   1.412  -0.013  0.00  0.00    +0.015 A 
ATOM      5  C   UNL     1       2.397   0.029  -0.021  0.00  0.00    +0.024 A 
ATOM      6  C   UNL     1       1.208  -0.679  -0.013  0.00  0.00    -0.005 A 
ATOM      7  C   UNL     1       0.002  -0.004   0.002  0.00  0.00    +0.007 A 
ATOM      8 BR   UNL     1       4.047  -0.894  -0.042  0.00  0.00    -0.050 Br
ENDBRANCH   1   6
BRANCH   1   9
ATOM      9  O   UNL     1       0.009  -2.675  -0.582  0.00  0.00    -0.387 OA
ATOM     10  H   UNL     1      -0.783  -2.404  -0.099  0.00  0.00    +0.210 HD
ENDBRANCH   1   9
BRANCH   1  11
ATOM     11  C   UNL     1       1.375  -2.702   1.411  0.00  0.00    +0.071 C 
BRANCH  11  12
ATOM     12  C   UNL     1       1.519  -4.202   1.392  0.00  0.00    -0.044 A 
ATOM     13  C   UNL     1       0.396  -5.005   1.458  0.00  0.00    +0.006 A 
ATOM     14  C   UNL     1       0.527  -6.381   1.440  0.00  0.00    +0.033 A 
ATOM     15  C   UNL     1       1.782  -6.954   1.357  0.00  0.00    +0.126 A 
ATOM     16  C   UNL     1       2.906  -6.152   1.290  0.00  0.00    +0.033 A 
ATOM     17  C   UNL     1       2.774  -4.776   1.303  0.00  0.00    +0.006 A 
BRANCH  15  18
ATOM     18  N   UNL     1       1.923  -8.428   1.339  0.00  0.00    +0.056 N 
ATOM     19  O   UNL     1       0.941  -9.130   1.398  0.00  0.00    -0.126 OA
ATOM     20  O   UNL     1       3.021  -8.929   1.266  0.00  0.00    -0.126 OA
ENDBRANCH  15  18
ENDBRANCH  11  12
ENDBRANCH   1  11
TORSDOF 5
