REMARK  Name = ZINC09972439
REMARK  8 active torsions:
REMARK  status: ('A' for Active; 'I' for Inactive)
REMARK    1  A    between atoms: C_1  and  C_2
REMARK    2  A    between atoms: C_2  and  C_3
REMARK    3  A    between atoms: C_2  and  C_4
REMARK    4  A    between atoms: C_4  and  C_5
REMARK    5  A    between atoms: C_5  and  C_32
REMARK    6  A    between atoms: C_10  and  C_12
REMARK    7  A    between atoms: C_17  and  O_18
REMARK    8  A    between atoms: N_23  and  C_26
REMARK                            x       y       z     vdW  Elec       q    Type
REMARK                         _______ _______ _______ _____ _____    ______ ____
ROOT
ATOM      1  C   UNL     1      -3.027   1.324  -0.038  0.00  0.00    +0.048 C 
ATOM      2  C   UNL     1      -3.451   1.411   1.444  0.00  0.00    +0.086 C 
ATOM      3  C   UNL     1      -2.186   1.000   2.244  0.00  0.00    +0.077 C 
ATOM      4  C   UNL     1      -1.117   0.703   1.171  0.00  0.00    -0.023 C 
ATOM      5  C   UNL     1      -1.804   2.257   2.993  0.00  0.00    +0.229 C 
ATOM      6  O   UNL     1      -0.861   2.363   3.748  0.00  0.00    -0.275 OA
ATOM      7  N   UNL     1      -2.686   3.232   2.675  0.00  0.00    -0.210 N 
ATOM      8  C   UNL     1      -3.647   2.862   1.820  0.00  0.00    +0.229 C 
ATOM      9  O   UNL     1      -4.535   3.578   1.412  0.00  0.00    -0.275 OA
ATOM     10  N   UNL     1      -1.569   1.461   0.006  0.00  0.00    +0.396 N 
ATOM     11  H   UNL     1      -1.308   2.450   0.102  0.00  0.00    -0.083 HD
ATOM     12  H   UNL     1      -1.151   1.079  -0.851  0.00  0.00    -0.083 HD
ENDROOT
BRANCH   4  13
ATOM     13  C   UNL     1       0.238   1.165   1.639  0.00  0.00    -0.016 A 
ATOM     14  C   UNL     1       0.712   2.408   1.265  0.00  0.00    +0.025 A 
ATOM     15  C   UNL     1       1.956   2.833   1.694  0.00  0.00    +0.043 A 
ATOM     16  C   UNL     1       2.731   2.015   2.497  0.00  0.00    +0.043 A 
ATOM     17  C   UNL     1       2.261   0.770   2.873  0.00  0.00    +0.084 A 
ATOM     18  C   UNL     1       1.010   0.345   2.449  0.00  0.00    +0.137 A 
ATOM     19 CL   UNL     1       3.232  -0.256   3.881  0.00  0.00    -0.080 Cl
ATOM     20 CL   UNL     1       2.548   4.396   1.223  0.00  0.00    -0.083 Cl
BRANCH  18  21
ATOM     21  O   UNL     1       0.543  -0.876   2.822  0.00  0.00    -0.505 OA
ATOM     22  H   UNL     1       0.778  -1.590   2.213  0.00  0.00    +0.292 HD
ENDBRANCH  18  21
ENDBRANCH   4  13
BRANCH   7  23
ATOM     23  C   UNL     1      -2.601   4.527   3.206  0.00  0.00    +0.044 A 
ATOM     24  C   UNL     1      -2.301   5.600   2.377  0.00  0.00    +0.024 A 
ATOM     25  C   UNL     1      -2.223   6.875   2.902  0.00  0.00    +0.002 A 
ATOM     26  C   UNL     1      -2.433   7.082   4.253  0.00  0.00    +0.000 A 
ATOM     27  C   UNL     1      -2.728   6.015   5.081  0.00  0.00    +0.002 A 
ATOM     28  C   UNL     1      -2.812   4.738   4.561  0.00  0.00    +0.024 A 
ENDBRANCH   7  23
BRANCH   1  29
ATOM     29  C   UNL     1      -3.665   2.434  -0.832  0.00  0.00    +0.346 C 
ATOM     30  O   UNL     1      -4.723   2.250  -1.386  0.00  0.00    -0.248 OA
ATOM     31  O   UNL     1      -3.057   3.627  -0.925  0.00  0.00    -0.248 OA
ENDBRANCH   1  29
BRANCH   1  32
ATOM     32  C   UNL     1      -3.411  -0.037  -0.623  0.00  0.00    +0.002 C 
BRANCH  32  34
ATOM     33  C   UNL     1      -1.518   0.010  -2.253  0.00  0.00    +0.007 C 
ATOM     34  C   UNL     1      -3.039  -0.077  -2.106  0.00  0.00    -0.018 C 
ATOM     35  C   UNL     1      -3.537  -1.387  -2.721  0.00  0.00    +0.007 C 
ENDBRANCH  32  34
ENDBRANCH   1  32
TORSDOF 6
