REMARK  Name = ZINC50807523
REMARK  4 active torsions:
REMARK  status: ('A' for Active; 'I' for Inactive)
REMARK    1  A    between atoms: C_3  and  S_21
REMARK    2  A    between atoms: C_6  and  C_7
REMARK    3  A    between atoms: S_21  and  N_24
REMARK    4  A    between atoms: N_24  and  C_25
REMARK                            x       y       z     vdW  Elec       q    Type
REMARK                         _______ _______ _______ _____ _____    ______ ____
ROOT
ATOM      1  C   UNL     1      -0.017   1.392   0.010  0.00  0.00    +0.013 A 
ATOM      2  C   UNL     1       1.170   2.095   0.002  0.00  0.00    +0.029 A 
ATOM      3  C   UNL     1       2.378   1.419  -0.013  0.00  0.00    +0.105 A 
ATOM      4  C   UNL     1       2.404   0.036  -0.021  0.00  0.00    +0.029 A 
ATOM      5  C   UNL     1       1.224  -0.679  -0.013  0.00  0.00    +0.013 A 
ATOM      6  C   UNL     1       0.002  -0.004   0.002  0.00  0.00    +0.017 A 
ENDROOT
BRANCH   6   7
ATOM      7  C   UNL     1      -1.265  -0.763   0.011  0.00  0.00    +0.142 A 
ATOM      8  N   UNL     1      -1.232  -2.131   0.009  0.00  0.00    -0.306 N 
ATOM      9  H   UNL     1      -0.375  -2.586   0.002  0.00  0.00    +0.170 HD
ATOM     10  C   UNL     1      -2.366  -2.856   0.017  0.00  0.00    +0.260 A 
ATOM     11  O   UNL     1      -2.322  -4.074   0.015  0.00  0.00    -0.267 OA
ATOM     12  C   UNL     1      -3.625  -2.172   0.027  0.00  0.00    +0.075 A 
ATOM     13  C   UNL     1      -4.973  -2.760   0.038  0.00  0.00    -0.023 A 
ATOM     14  C   UNL     1      -6.009  -1.903   0.045  0.00  0.00    -0.004 A 
ATOM     15  S   UNL     1      -5.270  -0.286   0.043  0.00  0.00    -0.073 S 
ATOM     16  C   UNL     1      -3.564  -0.771   0.029  0.00  0.00    +0.116 A 
ATOM     17  N   UNL     1      -2.410  -0.114   0.025  0.00  0.00    -0.222 NA
ATOM     18  C   UNL     1      -7.335  -2.616   0.050  0.00  0.00    +0.043 C 
ATOM     19  C   UNL     1      -7.001  -4.058  -0.391  0.00  0.00    +0.010 C 
ATOM     20  C   UNL     1      -5.528  -4.186   0.045  0.00  0.00    +0.037 C 
ENDBRANCH   6   7
BRANCH   3  21
ATOM     21  S   UNL     1       3.889   2.325  -0.023  0.00  0.00    +0.059 S 
ATOM     22  O   UNL     1       4.872   1.468  -0.588  0.00  0.00    -0.153 OA
ATOM     23  O   UNL     1       3.592   3.605  -0.565  0.00  0.00    -0.153 OA
BRANCH  21  24
ATOM     24  N   UNL     1       4.324   2.568   1.556  0.00  0.00    -0.187 NA
ATOM     25  H   UNL     1       4.351   3.468   1.919  0.00  0.00    +0.148 HD
BRANCH  24  26
ATOM     26  C   UNL     1       4.670   1.426   2.405  0.00  0.00    +0.077 C 
ATOM     27  C   UNL     1       4.307   1.513   3.889  0.00  0.00    +0.022 C 
ATOM     28  C   UNL     1       5.768   1.630   3.451  0.00  0.00    +0.022 C 
ENDBRANCH  24  26
ENDBRANCH  21  24
ENDBRANCH   3  21
TORSDOF 4
