REMARK  Name = ZINC39529220
REMARK  7 active torsions:
REMARK  status: ('A' for Active; 'I' for Inactive)
REMARK    1  A    between atoms: C_1  and  C_2
REMARK    2  A    between atoms: C_2  and  C_3
REMARK    3  A    between atoms: C_3  and  C_4
REMARK    4  A    between atoms: C_6  and  S_18
REMARK    5  A    between atoms: C_9  and  N_10
REMARK    6  A    between atoms: S_18  and  O_21
REMARK    7  A    between atoms: O_21  and  C_22
REMARK                            x       y       z     vdW  Elec       q    Type
REMARK                         _______ _______ _______ _____ _____    ______ ____
ROOT
ATOM      1  C   UNL     1      -1.413  -2.041   0.005  0.00  0.00    -0.024 A 
ATOM      2  C   UNL     1      -1.513  -2.727  -1.190  0.00  0.00    +0.036 A 
ATOM      3  C   UNL     1      -1.495  -4.109  -1.198  0.00  0.00    +0.128 A 
ATOM      4  C   UNL     1      -1.376  -4.810  -0.012  0.00  0.00    +0.032 A 
ATOM      5  C   UNL     1      -1.275  -4.130   1.186  0.00  0.00    +0.025 A 
ATOM      6  C   UNL     1      -1.287  -2.741   1.198  0.00  0.00    +0.033 A 
ENDROOT
BRANCH   6   7
ATOM      7  N   UNL     1      -1.180  -2.050   2.407  0.00  0.00    -0.326 N 
ATOM      8  C   UNL     1      -2.377  -1.699   3.185  0.00  0.00    +0.120 C 
ATOM      9  C   UNL     1      -2.322  -0.204   3.518  0.00  0.00    +0.101 C 
ATOM     10  N   UNL     1      -1.043   0.101   4.173  0.00  0.00    -0.302 NA
ATOM     11  C   UNL     1       0.091  -0.160   3.277  0.00  0.00    +0.135 C 
ATOM     12  C   UNL     1       0.135  -1.659   2.938  0.00  0.00    +0.134 C 
ATOM     13  I   UNL     1       1.931   0.409   4.259  0.00  0.00    -0.063 I 
ATOM     14  H   UNL     1      -1.027   1.052   4.509  0.00  0.00    +0.123 HD
ENDBRANCH   6   7
BRANCH   3  15
ATOM     15  S   UNL     1      -1.625  -4.981  -2.724  0.00  0.00    +0.151 S 
ATOM     16  O   UNL     1      -2.132  -6.271  -2.413  0.00  0.00    -0.131 OA
ATOM     17  O   UNL     1      -2.275  -4.107  -3.637  0.00  0.00    -0.131 OA
BRANCH  15  18
ATOM     18  O   UNL     1      -0.210  -5.184  -3.248  0.00  0.00    -0.342 OA
BRANCH  18  19
ATOM     19  C   UNL     1       0.489  -6.146  -2.592  0.00  0.00    +0.157 A 
ATOM     20  C   UNL     1       1.248  -5.816  -1.478  0.00  0.00    +0.048 A 
ATOM     21  C   UNL     1       1.958  -6.797  -0.813  0.00  0.00    +0.004 A 
ATOM     22  C   UNL     1       1.914  -8.106  -1.256  0.00  0.00    +0.000 A 
ATOM     23  C   UNL     1       1.159  -8.437  -2.367  0.00  0.00    +0.004 A 
ATOM     24  C   UNL     1       0.442  -7.461  -3.032  0.00  0.00    +0.048 A 
ENDBRANCH  18  19
ENDBRANCH  15  18
ENDBRANCH   3  15
BRANCH   1  25
ATOM     25  C   UNL     1      -1.433  -0.534   0.013  0.00  0.00    +0.037 C 
BRANCH  25  27
ATOM     26  C   UNL     1      -0.019   1.526   0.010  0.00  0.00    +0.004 C 
ATOM     27  C   UNL     1       0.002  -0.004   0.002  0.00  0.00    +0.001 C 
ENDBRANCH  25  27
ENDBRANCH   1  25
TORSDOF 6
