REMARK  Name = ZINC64215645
REMARK  8 active torsions:
REMARK  status: ('A' for Active; 'I' for Inactive)
REMARK    1  A    between atoms: C_1  and  C_2
REMARK    2  A    between atoms: C_2  and  C_4
REMARK    3  A    between atoms: C_2  and  N_26
REMARK    4  A    between atoms: N_6  and  C_7
REMARK    5  A    between atoms: C_7  and  C_8
REMARK    6  A    between atoms: C_8  and  C_10
REMARK    7  A    between atoms: C_8  and  C_17
REMARK    8  A    between atoms: N_29  and  C_30
REMARK                            x       y       z     vdW  Elec       q    Type
REMARK                         _______ _______ _______ _____ _____    ______ ____
ROOT
ATOM      1  C   UNL     1       0.904  -0.656  -3.663  0.00  0.00    +0.116 C 
ENDROOT
BRANCH   1   4
ATOM      2  C   UNL     1       0.701  -0.502  -1.239  0.00  0.00    +0.233 C 
ATOM      3  O   UNL     1       1.693  -1.192  -1.142  0.00  0.00    -0.274 OA
ATOM      4  N   UNL     1       0.224  -0.176  -2.457  0.00  0.00    -0.313 N 
ATOM      5  H   UNL     1      -0.570   0.377  -2.535  0.00  0.00    +0.149 HD
BRANCH   2   7
ATOM      6  C   UNL     1      -0.009   1.522   0.006  0.00  0.00    +0.038 C 
ATOM      7  C   UNL     1       0.002  -0.008   0.001  0.00  0.00    +0.157 C 
BRANCH   7   8
ATOM      8  N   UNL     1       0.710  -0.495   1.187  0.00  0.00    -0.288 N 
ATOM      9  C   UNL     1       0.052  -0.632   2.356  0.00  0.00    +0.304 C 
ATOM     10  O   UNL     1      -1.129  -0.351   2.425  0.00  0.00    -0.252 OA
ATOM     11  N   UNL     1       0.703  -1.080   3.447  0.00  0.00    -0.269 N 
ATOM     12  H   UNL     1       1.652  -0.719   1.132  0.00  0.00    +0.151 HD
ATOM     13  H   UNL     1       1.627  -1.367   3.377  0.00  0.00    +0.156 HD
BRANCH  11  14
ATOM     14  C   UNL     1       0.047  -1.130   4.682  0.00  0.00    +0.035 A 
ATOM     15  C   UNL     1       0.745  -0.864   5.853  0.00  0.00    +0.023 A 
ATOM     16  C   UNL     1       0.094  -0.914   7.070  0.00  0.00    +0.002 A 
ATOM     17  C   UNL     1      -1.251  -1.229   7.124  0.00  0.00    +0.000 A 
ATOM     18  C   UNL     1      -1.949  -1.496   5.960  0.00  0.00    +0.002 A 
ATOM     19  C   UNL     1      -1.306  -1.442   4.739  0.00  0.00    +0.023 A 
ENDBRANCH  11  14
ENDBRANCH   7   8
ENDBRANCH   2   7
ENDBRANCH   1   4
BRANCH   1  20
ATOM     20  C   UNL     1       0.164  -0.147  -4.902  0.00  0.00    +0.066 C 
BRANCH  20  21
ATOM     21  C   UNL     1       0.931  -0.536  -6.139  0.00  0.00    -0.033 C 
ATOM     22  C   UNL     1       1.454   0.296  -7.068  0.00  0.00    -0.000 A 
ATOM     23  C   UNL     1       1.464   1.758  -7.199  0.00  0.00    +0.010 A 
ATOM     24  C   UNL     1       2.082   2.317  -8.264  0.00  0.00    +0.001 A 
ATOM     25  C   UNL     1       2.711   1.537  -9.244  0.00  0.00    +0.002 A 
ATOM     26  C   UNL     1       2.743   0.188  -9.193  0.00  0.00    +0.026 A 
ATOM     27  C   UNL     1       2.125  -0.505  -8.116  0.00  0.00    +0.043 A 
ATOM     28  N   UNL     1       2.021  -1.784  -7.846  0.00  0.00    -0.380 N 
ATOM     29  C   UNL     1       1.276  -1.938  -6.591  0.00  0.00    +0.145 C 
ATOM     30  H   UNL     1       2.380  -2.507  -8.383  0.00  0.00    +0.160 HD
ENDBRANCH  20  21
BRANCH  20  31
ATOM     31  C   UNL     1      -1.213  -0.757  -4.951  0.00  0.00    -0.020 A 
ATOM     32  C   UNL     1      -1.359  -2.130  -5.010  0.00  0.00    +0.006 A 
ATOM     33  C   UNL     1      -2.622  -2.690  -5.055  0.00  0.00    +0.000 A 
ATOM     34  C   UNL     1      -3.740  -1.877  -5.041  0.00  0.00    +0.001 A 
ATOM     35  C   UNL     1      -3.595  -0.504  -4.982  0.00  0.00    +0.020 A 
ATOM     36  C   UNL     1      -2.331   0.057  -4.931  0.00  0.00    +0.045 A 
ATOM     37 CL   UNL     1      -2.149   1.781  -4.851  0.00  0.00    -0.083 Cl
ENDBRANCH  20  31
ENDBRANCH   1  20
TORSDOF 7
