REMARK  Name = ZINC20829772
REMARK  7 active torsions:
REMARK  status: ('A' for Active; 'I' for Inactive)
REMARK    1  A    between atoms: C_4  and  O_24
REMARK    2  A    between atoms: C_5  and  C_7
REMARK    3  A    between atoms: C_10  and  S_13
REMARK    4  A    between atoms: N_11  and  N_12
REMARK    5  A    between atoms: S_13  and  C_14
REMARK    6  A    between atoms: C_14  and  C_15
REMARK    7  A    between atoms: N_17  and  C_18
REMARK                            x       y       z     vdW  Elec       q    Type
REMARK                         _______ _______ _______ _____ _____    ______ ____
ROOT
ATOM      1  C   UNL     1       8.481   1.605   1.401  0.00  0.00    +0.185 A 
ATOM      2  N   UNL     1       7.825   2.568   0.797  0.00  0.00    -0.127 NA
ATOM      3  N   UNL     1       6.560   2.359   0.884  0.00  0.00    -0.121 NA
ATOM      4  C   UNL     1       6.330   1.254   1.557  0.00  0.00    +0.209 A 
ATOM      5  N   UNL     1       7.544   0.733   1.907  0.00  0.00    -0.224 N 
ENDROOT
BRANCH   1  10
ATOM      6  C   UNL     1      11.943   0.150   1.358  0.00  0.00    +0.001 A 
ATOM      7  C   UNL     1      12.703   1.245   1.733  0.00  0.00    +0.004 A 
ATOM      8  C   UNL     1      12.097   2.458   2.001  0.00  0.00    +0.046 A 
ATOM      9  C   UNL     1      10.722   2.586   1.890  0.00  0.00    +0.128 A 
ATOM     10  C   UNL     1       9.949   1.480   1.516  0.00  0.00    +0.062 A 
ATOM     11  C   UNL     1      10.573   0.261   1.249  0.00  0.00    +0.015 A 
BRANCH   9  12
ATOM     12  O   UNL     1      10.126   3.779   2.147  0.00  0.00    -0.506 OA
ATOM     13  H   UNL     1       9.034   3.879   2.058  0.00  0.00    +0.292 HD
ENDBRANCH   9  12
ENDBRANCH   1  10
BRANCH   5  14
ATOM     14  N   UNL     1       7.779  -0.413   2.612  0.00  0.00    -0.295 N 
ATOM     15  H   UNL     1       6.935  -1.026   2.962  0.00  0.00    +0.163 HD
ATOM     16  H   UNL     1       8.811  -0.724   2.829  0.00  0.00    +0.163 HD
ENDBRANCH   5  14
BRANCH   4  17
ATOM     17  S   UNL     1       4.751   0.567   1.932  0.00  0.00    -0.075 S 
BRANCH  17  18
ATOM     18  C   UNL     1       3.679   1.800   1.153  0.00  0.00    +0.173 C 
BRANCH  18  19
ATOM     19  C   UNL     1       2.238   1.409   1.351  0.00  0.00    +0.224 C 
ATOM     20  O   UNL     1       1.962   0.397   1.960  0.00  0.00    -0.275 OA
ATOM     21  N   UNL     1       1.255   2.185   0.853  0.00  0.00    -0.312 N 
ATOM     22  H   UNL     1       1.505   3.103   0.301  0.00  0.00    +0.149 HD
BRANCH  21  23
ATOM     23  C   UNL     1      -0.147   1.805   1.046  0.00  0.00    +0.073 C 
ATOM     24  C   UNL     1      -0.632   2.318   2.403  0.00  0.00    +0.022 C 
ATOM     25  C   UNL     1      -2.096   1.921   2.605  0.00  0.00    +0.002 C 
ATOM     26  C   UNL     1      -2.949   2.536   1.493  0.00  0.00    +0.000 C 
ATOM     27  C   UNL     1      -2.464   2.024   0.136  0.00  0.00    +0.002 C 
ATOM     28  C   UNL     1      -1.000   2.421  -0.066  0.00  0.00    +0.022 C 
ENDBRANCH  21  23
ENDBRANCH  18  19
ENDBRANCH  17  18
ENDBRANCH   4  17
TORSDOF 7
