REMARK  Name = ZINC01082121
REMARK  10 active torsions:
REMARK  status: ('A' for Active; 'I' for Inactive)
REMARK    1  A    between atoms: C_1  and  C_2
REMARK    2  A    between atoms: C_2  and  O_3
REMARK    3  A    between atoms: O_3  and  C_4
REMARK    4  A    between atoms: C_8  and  C_10
REMARK    5  A    between atoms: C_12  and  C_19
REMARK    6  A    between atoms: C_13  and  C_18
REMARK    7  A    between atoms: C_19  and  O_21
REMARK    8  A    between atoms: O_21  and  C_22
REMARK    9  A    between atoms: C_22  and  C_23
REMARK   10  A    between atoms: C_23  and  C_24
REMARK                            x       y       z     vdW  Elec       q    Type
REMARK                         _______ _______ _______ _____ _____    ______ ____
ROOT
ATOM      1  C   UNL     1       0.011   0.021  -0.242  0.00  0.00    +0.144 C 
ATOM      2  C   UNL     1       1.368  -0.653  -0.229  0.00  0.00    +0.078 C 
ATOM      3  C   UNL     1       2.450   0.118   0.013  0.00  0.00    +0.021 C 
ATOM      4  N   UNL     1       2.325   1.459   0.238  0.00  0.00    -0.273 N 
ATOM      5  C   UNL     1       1.152   2.105   0.239  0.00  0.00    +0.304 C 
ATOM      6  O   UNL     1       1.140   3.302   0.450  0.00  0.00    -0.252 OA
ATOM      7  N   UNL     1      -0.016   1.471   0.012  0.00  0.00    -0.288 N 
ATOM      8  C   UNL     1       3.819  -0.513   0.035  0.00  0.00    +0.061 C 
ATOM      9  H   UNL     1       3.130   1.972   0.407  0.00  0.00    +0.156 HD
ATOM     10  H   UNL     1      -0.854   1.960   0.013  0.00  0.00    +0.151 HD
ENDROOT
BRANCH   1  15
ATOM     11  C   UNL     1      -2.461  -2.320   1.397  0.00  0.00    +0.121 A 
ATOM     12  C   UNL     1      -2.430  -1.876   2.711  0.00  0.00    +0.045 A 
ATOM     13  C   UNL     1      -1.610  -0.822   3.063  0.00  0.00    +0.004 A 
ATOM     14  C   UNL     1      -0.817  -0.212   2.108  0.00  0.00    +0.006 A 
ATOM     15  C   UNL     1      -0.850  -0.649   0.797  0.00  0.00    -0.019 A 
ATOM     16  C   UNL     1      -1.669  -1.703   0.440  0.00  0.00    +0.051 A 
BRANCH  11  17
ATOM     17  O   UNL     1      -3.267  -3.358   1.048  0.00  0.00    -0.492 OA
BRANCH  17  19
ATOM     18  C   UNL     1      -4.890  -5.088   1.506  0.00  0.00    +0.048 C 
ATOM     19  C   UNL     1      -4.055  -3.945   2.085  0.00  0.00    +0.225 C 
ENDBRANCH  17  19
ENDBRANCH  11  17
ENDBRANCH   1  15
BRANCH   2  20
ATOM     20  C   UNL     1       1.497  -2.042  -0.464  0.00  0.00    +0.339 C 
ATOM     21  O   UNL     1       2.602  -2.543  -0.559  0.00  0.00    -0.245 OA
BRANCH  20  22
ATOM     22  O   UNL     1       0.395  -2.812  -0.581  0.00  0.00    -0.461 OA
BRANCH  22  23
ATOM     23  C   UNL     1       0.599  -4.206  -0.817  0.00  0.00    +0.237 C 
BRANCH  23  24
ATOM     24  C   UNL     1      -0.755  -4.910  -0.920  0.00  0.00    +0.076 C 
BRANCH  24  25
ATOM     25  C   UNL     1      -0.540  -6.380  -1.169  0.00  0.00    -0.044 A 
ATOM     26  C   UNL     1      -0.459  -6.858  -2.464  0.00  0.00    +0.004 A 
ATOM     27  C   UNL     1      -0.257  -8.206  -2.692  0.00  0.00    +0.000 A 
ATOM     28  C   UNL     1      -0.145  -9.078  -1.626  0.00  0.00    +0.000 A 
ATOM     29  C   UNL     1      -0.231  -8.602  -0.331  0.00  0.00    +0.000 A 
ATOM     30  C   UNL     1      -0.429  -7.253  -0.103  0.00  0.00    +0.004 A 
ENDBRANCH  24  25
ENDBRANCH  23  24
ENDBRANCH  22  23
ENDBRANCH  20  22
ENDBRANCH   2  20
TORSDOF 8
