REMARK  Name = ZINC00909360
REMARK  6 active torsions:
REMARK  status: ('A' for Active; 'I' for Inactive)
REMARK    1  A    between atoms: C_1  and  C_2
REMARK    2  A    between atoms: C_3  and  C_24
REMARK    3  A    between atoms: C_4  and  C_14
REMARK    4  A    between atoms: C_17  and  C_20
REMARK    5  A    between atoms: C_24  and  O_26
REMARK    6  A    between atoms: O_26  and  C_27
REMARK                            x       y       z     vdW  Elec       q    Type
REMARK                         _______ _______ _______ _____ _____    ______ ____
ROOT
ATOM      1  C   UNL     1      -6.092   3.358  -0.688  0.00  0.00    +0.061 C 
ATOM      2  C   UNL     1      -4.752   2.724  -0.959  0.00  0.00    +0.016 C 
ATOM      3  C   UNL     1      -4.122   2.968  -2.121  0.00  0.00    +0.065 C 
ATOM      4  C   UNL     1      -2.789   2.349  -2.428  0.00  0.00    +0.092 C 
ATOM      5  C   UNL     1      -2.126   1.843  -1.172  0.00  0.00    +0.024 C 
ATOM      6  C   UNL     1      -2.844   1.639  -0.047  0.00  0.00    +0.015 C 
ATOM      7  N   UNL     1      -4.186   1.906  -0.022  0.00  0.00    -0.321 N 
ATOM      8  C   UNL     1      -2.191   1.111   1.206  0.00  0.00    +0.051 C 
ATOM      9  C   UNL     1      -0.734   1.582   1.266  0.00  0.00    +0.014 C 
ATOM     10  C   UNL     1      -0.013   1.086   0.008  0.00  0.00    +0.080 C 
ATOM     11  C   UNL     1      -0.744   1.586  -1.208  0.00  0.00    +0.162 C 
ATOM     12  O   UNL     1      -0.129   1.772  -2.239  0.00  0.00    -0.292 OA
ATOM     13  H   UNL     1      -4.811   1.455   0.763  0.00  0.00    +0.152 HD
ENDROOT
BRANCH   4  14
ATOM     14  C   UNL     1      -2.986   1.199  -3.382  0.00  0.00    -0.035 A 
ATOM     15  C   UNL     1      -3.751   0.111  -3.005  0.00  0.00    +0.005 A 
ATOM     16  C   UNL     1      -3.935  -0.942  -3.882  0.00  0.00    +0.012 A 
ATOM     17  C   UNL     1      -3.346  -0.911  -5.132  0.00  0.00    +0.055 A 
ATOM     18  C   UNL     1      -2.577   0.175  -5.507  0.00  0.00    +0.012 A 
ATOM     19  C   UNL     1      -2.397   1.230  -4.633  0.00  0.00    +0.005 A 
BRANCH  17  20
ATOM     20  C   UNL     1      -3.542  -2.061  -6.086  0.00  0.00    +0.417 C 
ATOM     21  F   UNL     1      -2.530  -3.007  -5.889  0.00  0.00    -0.166 F 
ATOM     22  F   UNL     1      -4.787  -2.655  -5.851  0.00  0.00    -0.166 F 
ATOM     23  F   UNL     1      -3.491  -1.590  -7.402  0.00  0.00    -0.166 F 
ENDBRANCH  17  20
ENDBRANCH   4  14
BRANCH   3  24
ATOM     24  C   UNL     1      -4.725   3.823  -3.072  0.00  0.00    +0.338 C 
ATOM     25  O   UNL     1      -5.805   4.331  -2.834  0.00  0.00    -0.245 OA
BRANCH  24  26
ATOM     26  O   UNL     1      -4.104   4.076  -4.243  0.00  0.00    -0.458 OA
BRANCH  26  27
ATOM     27  C   UNL     1      -4.771   4.949  -5.156  0.00  0.00    +0.177 C 
ATOM     28  C   UNL     1      -5.673   4.128  -6.080  0.00  0.00    +0.044 C 
ATOM     29  C   UNL     1      -6.388   5.063  -7.058  0.00  0.00    +0.004 C 
ATOM     30  C   UNL     1      -5.350   5.815  -7.895  0.00  0.00    +0.000 C 
ATOM     31  C   UNL     1      -4.448   6.636  -6.971  0.00  0.00    +0.004 C 
ATOM     32  C   UNL     1      -3.734   5.701  -5.993  0.00  0.00    +0.044 C 
ENDBRANCH  26  27
ENDBRANCH  24  26
ENDBRANCH   3  24
TORSDOF 5
