REMARK  Name = ZINC67358281
REMARK  6 active torsions:
REMARK  status: ('A' for Active; 'I' for Inactive)
REMARK    1  A    between atoms: C_1  and  C_2
REMARK    2  A    between atoms: C_2  and  C_4
REMARK    3  A    between atoms: C_2  and  C_18
REMARK    4  A    between atoms: C_4  and  N_5
REMARK    5  A    between atoms: N_5  and  C_6
REMARK    6  A    between atoms: N_9  and  C_10
REMARK                            x       y       z     vdW  Elec       q    Type
REMARK                         _______ _______ _______ _____ _____    ______ ____
ROOT
ATOM      1  N   UNL     1      -2.082  -0.162   1.273  0.00  0.00    -0.288 N 
ATOM      2  C   UNL     1      -2.809   1.106   1.376  0.00  0.00    +0.133 C 
ATOM      3  C   UNL     1      -2.009  -0.986   2.337  0.00  0.00    +0.302 C 
ATOM      4  O   UNL     1      -1.405  -2.038   2.251  0.00  0.00    -0.253 OA
ATOM      5  N   UNL     1      -2.605  -0.644   3.496  0.00  0.00    -0.295 N 
ATOM      6  H   UNL     1      -3.087   0.196   3.565  0.00  0.00    +0.151 HD
ENDROOT
BRANCH   5   7
ATOM      7  C   UNL     1      -2.526  -1.539   4.653  0.00  0.00    +0.097 C 
ATOM      8  C   UNL     1      -3.660  -2.576   4.585  0.00  0.00    +0.046 C 
ATOM      9  C   UNL     1      -3.783  -3.312   5.941  0.00  0.00    +0.168 C 
ATOM     10  S   UNL     1      -3.170  -2.059   7.139  0.00  0.00    -0.029 S 
ATOM     11  O   UNL     1      -1.997  -2.557   7.769  0.00  0.00    -0.174 OA
ATOM     12  O   UNL     1      -4.256  -1.612   7.937  0.00  0.00    -0.174 OA
ATOM     13  C   UNL     1      -2.697  -0.720   5.964  0.00  0.00    +0.188 C 
ENDBRANCH   5   7
BRANCH   1  14
ATOM     14  C   UNL     1      -1.433  -0.534   0.013  0.00  0.00    +0.117 C 
BRANCH  14  16
ATOM     15  C   UNL     1      -0.019   1.526   0.010  0.00  0.00    +0.014 C 
ATOM     16  C   UNL     1       0.002  -0.004   0.002  0.00  0.00    +0.033 C 
BRANCH  16  17
ATOM     17  C   UNL     1       0.707  -0.490  -1.238  0.00  0.00    -0.043 A 
ATOM     18  C   UNL     1       0.222  -0.151  -2.487  0.00  0.00    +0.004 A 
ATOM     19  C   UNL     1       0.869  -0.597  -3.624  0.00  0.00    +0.000 A 
ATOM     20  C   UNL     1       2.002  -1.381  -3.513  0.00  0.00    +0.000 A 
ATOM     21  C   UNL     1       2.488  -1.720  -2.263  0.00  0.00    +0.000 A 
ATOM     22  C   UNL     1       1.843  -1.270  -1.126  0.00  0.00    +0.004 A 
ENDBRANCH  16  17
ENDBRANCH  14  16
ENDBRANCH   1  14
TORSDOF 4
