REMARK  Name = ZINC44983174
REMARK  5 active torsions:
REMARK  status: ('A' for Active; 'I' for Inactive)
REMARK    1  A    between atoms: C_1  and  C_2
REMARK    2  A    between atoms: C_7  and  C_9
REMARK    3  A    between atoms: C_7  and  N_21
REMARK    4  A    between atoms: C_11  and  C_14
REMARK    5  A    between atoms: C_17  and  C_20
REMARK                            x       y       z     vdW  Elec       q    Type
REMARK                         _______ _______ _______ _____ _____    ______ ____
ROOT
ATOM      1  C   UNL     1       1.468  -2.527  -0.007  0.00  0.00    +0.216 A 
ATOM      2  N   UNL     1       1.662  -3.773  -0.337  0.00  0.00    -0.197 NA
ATOM      3  C   UNL     1       2.321  -3.844  -1.499  0.00  0.00    +0.175 A 
ATOM      4  N   UNL     1       2.556  -2.636  -1.924  0.00  0.00    -0.061 NA
ATOM      5  O   UNL     1       1.999  -1.753  -0.962  0.00  0.00    -0.340 OA
ENDROOT
BRANCH   1  11
ATOM      6  C   UNL     1      -0.019   1.526   0.010  0.00  0.00    +0.007 C 
ATOM      7  C   UNL     1       0.002  -0.004   0.002  0.00  0.00    -0.015 C 
ATOM      8  C   UNL     1      -1.433  -0.534   0.013  0.00  0.00    +0.003 C 
ATOM      9  C   UNL     1      -1.413  -2.063   0.004  0.00  0.00    -0.001 C 
ATOM     10  C   UNL     1      -0.673  -2.570   1.244  0.00  0.00    -0.004 C 
ATOM     11  C   UNL     1       0.763  -2.041   1.233  0.00  0.00    +0.010 C 
ATOM     12  C   UNL     1       0.742  -0.511   1.242  0.00  0.00    -0.001 C 
BRANCH  11  13
ATOM     13  N   UNL     1       1.473  -2.527   2.423  0.00  0.00    +0.388 N 
ATOM     14  H   UNL     1       1.487  -3.536   2.418  0.00  0.00    -0.089 HD
ATOM     15  H   UNL     1       2.420  -2.178   2.416  0.00  0.00    -0.089 HD
ATOM     16  H   UNL     1       1.001  -2.202   3.253  0.00  0.00    -0.089 HD
ENDBRANCH  11  13
ENDBRANCH   1  11
BRANCH   3  17
ATOM     17  C   UNL     1       2.726  -5.114  -2.201  0.00  0.00    +0.060 C 
ATOM     18  C   UNL     1       4.248  -5.150  -2.352  0.00  0.00    +0.011 C 
ATOM     19  C   UNL     1       4.659  -6.440  -3.065  0.00  0.00    +0.004 C 
ATOM     20  C   UNL     1       4.008  -6.488  -4.449  0.00  0.00    -0.014 C 
ATOM     21  C   UNL     1       2.486  -6.452  -4.297  0.00  0.00    +0.004 C 
ATOM     22  C   UNL     1       2.074  -5.162  -3.584  0.00  0.00    +0.011 C 
ATOM     23  C   UNL     1       4.467  -5.283  -5.271  0.00  0.00    +0.007 C 
ENDBRANCH   3  17
TORSDOF 3
