REMARK  Name = ZINC20362936
REMARK  15 active torsions:
REMARK  status: ('A' for Active; 'I' for Inactive)
REMARK    1  A    between atoms: C_1  and  C_2
REMARK    2  A    between atoms: C_2  and  C_4
REMARK    3  A    between atoms: C_2  and  N_11
REMARK    4  A    between atoms: C_4  and  C_5
REMARK    5  A    between atoms: C_5  and  C_6
REMARK    6  A    between atoms: C_6  and  C_7
REMARK    7  A    between atoms: C_7  and  C_8
REMARK    8  A    between atoms: C_7  and  C_9
REMARK    9  A    between atoms: C_7  and  O_10
REMARK   10  A    between atoms: N_11  and  C_12
REMARK   11  A    between atoms: C_12  and  C_13
REMARK   12  A    between atoms: N_21  and  C_24
REMARK   13  A    between atoms: C_24  and  C_25
REMARK   14  A    between atoms: C_25  and  S_26
REMARK   15  A    between atoms: S_26  and  C_29
REMARK                            x       y       z     vdW  Elec       q    Type
REMARK                         _______ _______ _______ _____ _____    ______ ____
ROOT
ATOM      1  C   UNL     1       2.856  -1.036   2.199  0.00  0.00    +0.001 A 
ATOM      2  C   UNL     1       3.163  -2.352   2.315  0.00  0.00    +0.017 A 
ATOM      3  C   UNL     1       3.837  -2.808   3.531  0.00  0.00    -0.001 A 
ATOM      4  C   UNL     1       4.179  -4.153   3.707  0.00  0.00    +0.011 A 
ATOM      5  C   UNL     1       4.807  -4.548   4.854  0.00  0.00    +0.021 A 
ATOM      6  C   UNL     1       5.110  -3.625   5.847  0.00  0.00    +0.043 A 
ATOM      7  C   UNL     1       4.782  -2.293   5.694  0.00  0.00    +0.046 A 
ATOM      8  C   UNL     1       4.142  -1.869   4.535  0.00  0.00    +0.053 A 
ATOM      9  N   UNL     1       3.804  -0.545   4.356  0.00  0.00    -0.306 N 
ATOM     10  C   UNL     1       3.189  -0.135   3.232  0.00  0.00    +0.253 A 
ATOM     11  O   UNL     1       2.908   1.045   3.106  0.00  0.00    -0.267 OA
ATOM     12 CL   UNL     1       5.909  -4.152   7.296  0.00  0.00    -0.083 Cl
ENDROOT
BRANCH   1  13
ATOM     13  C   UNL     1       2.162  -0.532   0.959  0.00  0.00    -0.041 C 
BRANCH  13  14
ATOM     14  N   UNL     1       0.713  -0.491   1.192  0.00  0.00    +0.384 N 
ATOM     15  H   UNL     1       0.511   0.181   2.040  0.00  0.00    -0.085 HD
ATOM     16  H   UNL     1       0.365  -1.505   1.437  0.00  0.00    -0.085 HD
BRANCH  14  18
ATOM     17  C   UNL     1      -0.019   1.526   0.010  0.00  0.00    -0.014 C 
ATOM     18  C   UNL     1       0.002  -0.004   0.002  0.00  0.00    -0.075 C 
BRANCH  18  19
ATOM     19  C   UNL     1      -1.433  -0.534   0.013  0.00  0.00    -0.016 C 
BRANCH  19  20
ATOM     20  C   UNL     1      -1.416  -2.058  -0.121  0.00  0.00    +0.001 C 
BRANCH  20  21
ATOM     21  C   UNL     1      -2.851  -2.587  -0.110  0.00  0.00    +0.034 C 
BRANCH  21  22
ATOM     22  C   UNL     1      -2.833  -4.111  -0.244  0.00  0.00    +0.061 C 
ATOM     23  C   UNL     1      -2.057  -4.717   0.927  0.00  0.00    +0.041 C 
ATOM     24  C   UNL     1      -4.269  -4.641  -0.234  0.00  0.00    +0.041 C 
BRANCH  22  25
ATOM     25  O   UNL     1      -2.201  -4.474  -1.474  0.00  0.00    -0.389 OA
ATOM     26  H   UNL     1      -2.095  -5.535  -1.746  0.00  0.00    +0.210 HD
ENDBRANCH  22  25
ENDBRANCH  21  22
ENDBRANCH  20  21
ENDBRANCH  19  20
ENDBRANCH  18  19
ENDBRANCH  14  18
ENDBRANCH  13  14
ENDBRANCH   1  13
BRANCH   9  27
ATOM     27  C   UNL     1       4.123   0.430   5.402  0.00  0.00    +0.148 C 
BRANCH  27  28
ATOM     28  C   UNL     1       5.514   1.013   5.148  0.00  0.00    +0.193 C 
BRANCH  28  29
ATOM     29  S   UNL     1       5.909   2.220   6.444  0.00  0.00    -0.001 S 
ATOM     30  O   UNL     1       5.067   3.358   6.325  0.00  0.00    -0.169 OA
ATOM     31  O   UNL     1       6.068   1.562   7.693  0.00  0.00    -0.169 OA
BRANCH  29  32
ATOM     32  C   UNL     1       7.520   2.809   6.038  0.00  0.00    +0.088 A 
ATOM     33  C   UNL     1       8.637   2.173   6.546  0.00  0.00    +0.027 A 
ATOM     34  C   UNL     1       9.900   2.632   6.224  0.00  0.00    +0.002 A 
ATOM     35  C   UNL     1      10.046   3.733   5.402  0.00  0.00    +0.000 A 
ATOM     36  C   UNL     1       8.929   4.372   4.897  0.00  0.00    +0.002 A 
ATOM     37  C   UNL     1       7.666   3.910   5.215  0.00  0.00    +0.027 A 
ENDBRANCH  29  32
ENDBRANCH  28  29
ENDBRANCH  27  28
ENDBRANCH   9  27
TORSDOF 12
