REMARK  Name = ZINC38649947
REMARK  8 active torsions:
REMARK  status: ('A' for Active; 'I' for Inactive)
REMARK    1  A    between atoms: C_1  and  O_2
REMARK    2  A    between atoms: O_2  and  C_3
REMARK    3  A    between atoms: C_8  and  C_9
REMARK    4  A    between atoms: C_14  and  O_23
REMARK    5  A    between atoms: C_18  and  N_22
REMARK    6  A    between atoms: C_19  and  C_20
REMARK    7  A    between atoms: O_23  and  C_24
REMARK    8  A    between atoms: C_24  and  C_26
REMARK                            x       y       z     vdW  Elec       q    Type
REMARK                         _______ _______ _______ _____ _____    ______ ____
ROOT
ATOM      1  C   UNL     1       0.061  -2.788   0.014  0.00  0.00    +0.101 C 
ATOM      2  C   UNL     1       0.106  -3.666   1.236  0.00  0.00    +0.008 A 
ATOM      3  C   UNL     1       0.520  -3.132   2.443  0.00  0.00    +0.012 A 
ATOM      4  C   UNL     1       0.568  -3.923   3.574  0.00  0.00    +0.047 A 
ATOM      5  C   UNL     1       0.198  -5.259   3.503  0.00  0.00    +0.135 A 
ATOM      6  C   UNL     1      -0.218  -5.796   2.296  0.00  0.00    +0.093 A 
ATOM      7  C   UNL     1      -0.265  -5.000   1.159  0.00  0.00    +0.138 A 
ATOM      8  O   UNL     1      -0.675  -5.541  -0.015  0.00  0.00    -0.441 OA
ATOM      9  C   UNL     1      -0.370  -4.934  -1.175  0.00  0.00    +0.199 C 
ATOM     10  C   UNL     1      -0.015  -3.632  -1.227  0.00  0.00    +0.098 C 
ENDROOT
BRANCH   1  16
ATOM     11  C   UNL     1      -0.997  -0.516   0.096  0.00  0.00    +0.124 A 
ATOM     12  C   UNL     1      -2.114   0.304   0.156  0.00  0.00    +0.046 A 
ATOM     13  C   UNL     1      -3.377  -0.254   0.210  0.00  0.00    +0.004 A 
ATOM     14  C   UNL     1      -3.527  -1.629   0.205  0.00  0.00    +0.001 A 
ATOM     15  C   UNL     1      -2.415  -2.448   0.145  0.00  0.00    +0.008 A 
ATOM     16  C   UNL     1      -1.150  -1.894   0.085  0.00  0.00    +0.007 A 
BRANCH  11  18
ATOM     17  C   UNL     1       0.329   1.458   0.057  0.00  0.00    +0.277 C 
ATOM     18  O   UNL     1       0.246   0.031   0.042  0.00  0.00    -0.495 OA
ENDBRANCH  11  18
ENDBRANCH   1  16
BRANCH   9  19
ATOM     19  N   UNL     1      -0.422  -5.659  -2.339  0.00  0.00    -0.328 N 
ATOM     20  H   UNL     1      -0.677  -6.595  -2.317  0.00  0.00    +0.145 HD
ATOM     21  H   UNL     1      -0.205  -5.236  -3.184  0.00  0.00    +0.145 HD
ENDBRANCH   9  19
BRANCH  10  22
ATOM     22  C   UNL     1       0.296  -3.045  -2.495  0.00  0.00    +0.101 C 
ATOM     23  N   UNL     1       0.543  -2.579  -3.501  0.00  0.00    -0.191 NA
ENDBRANCH  10  22
BRANCH   5  24
ATOM     24  O   UNL     1       0.244  -6.039   4.615  0.00  0.00    -0.422 OA
BRANCH  24  25
ATOM     25  C   UNL     1      -0.647  -5.796   5.596  0.00  0.00    +0.344 C 
ATOM     26  O   UNL     1      -1.525  -4.973   5.428  0.00  0.00    -0.245 OA
BRANCH  25  27
ATOM     27  C   UNL     1      -0.556  -6.529   6.874  0.00  0.00    +0.059 A 
ATOM     28  C   UNL     1       0.455  -7.472   7.072  0.00  0.00    +0.016 A 
ATOM     29  C   UNL     1       0.534  -8.153   8.268  0.00  0.00    +0.016 A 
ATOM     30  C   UNL     1      -0.387  -7.905   9.272  0.00  0.00    +0.018 A 
ATOM     31  C   UNL     1      -1.393  -6.972   9.082  0.00  0.00    +0.016 A 
ATOM     32  C   UNL     1      -1.479  -6.279   7.893  0.00  0.00    +0.016 A 
ATOM     33 BR   UNL     1      -0.271  -8.845  10.909  0.00  0.00    -0.050 Br
ENDBRANCH  25  27
ENDBRANCH  24  25
ENDBRANCH   5  24
TORSDOF 7
