REMARK  Name = ZINC66844300
REMARK  9 active torsions:
REMARK  status: ('A' for Active; 'I' for Inactive)
REMARK    1  A    between atoms: C_1  and  C_2
REMARK    2  A    between atoms: C_2  and  C_4
REMARK    3  A    between atoms: C_2  and  N_15
REMARK    4  A    between atoms: N_6  and  C_7
REMARK    5  A    between atoms: C_7  and  C_13
REMARK    6  A    between atoms: N_15  and  C_16
REMARK    7  A    between atoms: N_15  and  C_17
REMARK    8  A    between atoms: C_17  and  C_18
REMARK    9  A    between atoms: N_20  and  C_21
REMARK                            x       y       z     vdW  Elec       q    Type
REMARK                         _______ _______ _______ _____ _____    ______ ____
ROOT
ATOM      1  N   UNL     1      -1.036  -0.481  -0.302  0.00  0.00    +0.391 N 
ATOM      2  C   UNL     1      -0.919  -1.943  -0.378  0.00  0.00    -0.094 C 
ATOM      3  H   UNL     1      -1.631  -0.231   0.473  0.00  0.00    -0.080 HD
ENDROOT
BRANCH   1   5
ATOM      4  C   UNL     1       0.194   1.633  -0.167  0.00  0.00    -0.004 C 
ATOM      5  C   UNL     1       0.296   0.107  -0.106  0.00  0.00    +0.016 C 
BRANCH   5   6
ATOM      6  C   UNL     1       0.835  -0.307   1.239  0.00  0.00    +0.200 C 
ATOM      7  O   UNL     1       0.096  -0.809   2.060  0.00  0.00    -0.278 OA
ATOM      8  N   UNL     1       2.137  -0.119   1.530  0.00  0.00    -0.299 N 
ATOM      9  H   UNL     1       2.728   0.283   0.874  0.00  0.00    +0.150 HD
BRANCH   8  10
ATOM     10  C   UNL     1       2.661  -0.521   2.838  0.00  0.00    +0.121 C 
ATOM     11  C   UNL     1       1.923   0.241   3.940  0.00  0.00    +0.041 C 
ATOM     12  C   UNL     1       2.470  -0.179   5.305  0.00  0.00    +0.003 C 
ATOM     13  C   UNL     1       3.964   0.142   5.377  0.00  0.00    +0.000 C 
ATOM     14  C   UNL     1       4.702  -0.621   4.275  0.00  0.00    +0.003 C 
ATOM     15  C   UNL     1       4.155  -0.201   2.909  0.00  0.00    +0.041 C 
BRANCH  10  16
ATOM     16  C   UNL     1       2.460  -1.968   3.023  0.00  0.00    +0.088 C 
ATOM     17  N   UNL     1       2.305  -3.084   3.166  0.00  0.00    -0.194 NA
ENDBRANCH  10  16
ENDBRANCH   8  10
ENDBRANCH   5   6
ENDBRANCH   1   5
BRANCH   1  18
ATOM     18  C   UNL     1      -1.618   0.030  -1.550  0.00  0.00    +0.020 C 
BRANCH  18  19
ATOM     19  C   UNL     1      -3.030  -0.476  -1.690  0.00  0.00    +0.201 C 
ATOM     20  O   UNL     1      -3.506  -1.191  -0.834  0.00  0.00    -0.278 OA
ATOM     21  N   UNL     1      -3.765  -0.133  -2.767  0.00  0.00    -0.287 N 
ATOM     22  H   UNL     1      -3.413   0.497  -3.414  0.00  0.00    +0.155 HD
BRANCH  21  23
ATOM     23  C   UNL     1      -5.038  -0.686  -2.950  0.00  0.00    +0.039 A 
ATOM     24  C   UNL     1      -5.490  -0.980  -4.229  0.00  0.00    +0.061 A 
ATOM     25  C   UNL     1      -6.749  -1.527  -4.408  0.00  0.00    +0.128 A 
ATOM     26  C   UNL     1      -7.557  -1.780  -3.312  0.00  0.00    +0.076 A 
ATOM     27  C   UNL     1      -7.107  -1.488  -2.035  0.00  0.00    +0.128 A 
ATOM     28  C   UNL     1      -5.847  -0.947  -1.852  0.00  0.00    +0.061 A 
ATOM     29  F   UNL     1      -7.897  -1.735  -0.968  0.00  0.00    -0.205 F 
ATOM     30  F   UNL     1      -7.189  -1.813  -5.652  0.00  0.00    -0.205 F 
ENDBRANCH  21  23
ENDBRANCH  18  19
ENDBRANCH   1  18
TORSDOF 7
