REMARK  Name = ZINC66790494
REMARK  8 active torsions:
REMARK  status: ('A' for Active; 'I' for Inactive)
REMARK    1  A    between atoms: C_1  and  C_2
REMARK    2  A    between atoms: N_4  and  C_5
REMARK    3  A    between atoms: C_5  and  C_7
REMARK    4  A    between atoms: C_5  and  C_18
REMARK    5  A    between atoms: C_7  and  C_8
REMARK    6  A    between atoms: N_20  and  N_21
REMARK    7  A    between atoms: C_22  and  C_24
REMARK    8  A    between atoms: C_24  and  C_25
REMARK                            x       y       z     vdW  Elec       q    Type
REMARK                         _______ _______ _______ _____ _____    ______ ____
ROOT
ATOM      1  C   UNL     1      -1.136  -2.159   0.001  0.00  0.00    +0.165 C 
ENDROOT
BRANCH   1   5
ATOM      2  C   UNL     1      -0.018   1.503   0.010  0.00  0.00    +0.109 C 
ATOM      3  C   UNL     1       0.002  -0.004   0.002  0.00  0.00    +0.211 C 
ATOM      4  O   UNL     1       1.060  -0.596  -0.011  0.00  0.00    -0.276 OA
ATOM      5  N   UNL     1      -1.156  -0.694   0.009  0.00  0.00    -0.304 N 
ATOM      6  H   UNL     1      -2.002  -0.220   0.020  0.00  0.00    +0.149 HD
ENDBRANCH   1   5
BRANCH   1   7
ATOM      7  C   UNL     1      -0.431  -2.645  -1.239  0.00  0.00    +0.250 C 
ATOM      8  O   UNL     1       0.315  -1.903  -1.842  0.00  0.00    -0.272 OA
ATOM      9  N   UNL     1      -0.628  -3.904  -1.677  0.00  0.00    -0.233 N 
ATOM     10  H   UNL     1      -1.225  -4.497  -1.194  0.00  0.00    +0.173 HD
BRANCH   9  11
ATOM     11  N   UNL     1       0.027  -4.356  -2.829  0.00  0.00    -0.234 N 
ATOM     12  C   UNL     1      -0.171  -5.615  -3.267  0.00  0.00    +0.229 C 
ATOM     13  O   UNL     1      -0.916  -6.357  -2.664  0.00  0.00    -0.274 OA
ATOM     14  H   UNL     1       0.624  -3.762  -3.312  0.00  0.00    +0.173 HD
BRANCH  12  15
ATOM     15  C   UNL     1       0.535  -6.101  -4.507  0.00  0.00    +0.101 C 
BRANCH  15  16
ATOM     16  C   UNL     1       0.139  -7.553  -4.783  0.00  0.00    -0.002 C 
ATOM     17  C   UNL     1       0.651  -8.445  -3.650  0.00  0.00    +0.004 C 
ATOM     18  C   UNL     1       0.255  -9.897  -3.926  0.00  0.00    +0.000 C 
ATOM     19  C   UNL     1       0.872 -10.350  -5.251  0.00  0.00    +0.000 C 
ATOM     20  C   UNL     1       0.360  -9.458  -6.384  0.00  0.00    +0.000 C 
ATOM     21  C   UNL     1       0.756  -8.006  -6.108  0.00  0.00    +0.004 C 
ENDBRANCH  15  16
ENDBRANCH  12  15
ENDBRANCH   9  11
ENDBRANCH   1   7
BRANCH   1  22
ATOM     22  C   UNL     1      -0.396  -2.665   1.241  0.00  0.00    +0.069 C 
BRANCH  22  23
ATOM     23  C   UNL     1      -1.168  -2.284   2.478  0.00  0.00    -0.020 A 
ATOM     24  C   UNL     1      -0.972  -1.195   3.237  0.00  0.00    +0.087 A 
ATOM     25  N   UNL     1      -1.862  -1.183   4.276  0.00  0.00    -0.360 N 
ATOM     26  H   UNL     1      -1.914  -0.496   4.958  0.00  0.00    +0.165 HD
ATOM     27  C   UNL     1      -2.674  -2.293   4.209  0.00  0.00    +0.047 A 
ATOM     28  C   UNL     1      -2.279  -3.028   3.076  0.00  0.00    +0.003 A 
ATOM     29  C   UNL     1      -2.938  -4.215   2.750  0.00  0.00    +0.010 A 
ATOM     30  C   UNL     1      -3.968  -4.655   3.533  0.00  0.00    +0.001 A 
ATOM     31  C   UNL     1      -4.364  -3.932   4.650  0.00  0.00    +0.002 A 
ATOM     32  C   UNL     1      -3.721  -2.763   4.994  0.00  0.00    +0.026 A 
ENDBRANCH  22  23
ENDBRANCH   1  22
TORSDOF 7
