REMARK  Name = ZINC04514797
REMARK  5 active torsions:
REMARK  status: ('A' for Active; 'I' for Inactive)
REMARK    1  A    between atoms: C_1  and  C_2
REMARK    2  A    between atoms: N_11  and  C_15
REMARK    3  A    between atoms: C_15  and  C_16
REMARK    4  A    between atoms: C_16  and  O_17
REMARK    5  A    between atoms: O_17  and  C_18
REMARK                            x       y       z     vdW  Elec       q    Type
REMARK                         _______ _______ _______ _____ _____    ______ ____
ROOT
ATOM      1  C   UNL     1       7.831  -4.201  -2.159  0.00  0.00    +0.010 C 
ATOM      2  C   UNL     1       6.553  -4.374  -2.982  0.00  0.00    +0.018 C 
ATOM      3  C   UNL     1       5.729  -5.529  -2.408  0.00  0.00    +0.006 C 
ATOM      4  C   UNL     1       4.442  -5.689  -3.219  0.00  0.00    +0.000 C 
ATOM      5  C   UNL     1       3.622  -4.400  -3.136  0.00  0.00    +0.003 C 
ATOM      6  C   UNL     1       4.438  -3.240  -3.714  0.00  0.00    +0.035 C 
ATOM      7  C   UNL     1       5.736  -3.088  -2.929  0.00  0.00    +0.115 C 
ATOM      8  C   UNL     1       5.450  -2.708  -1.495  0.00  0.00    +0.247 C 
ATOM      9  O   UNL     1       4.829  -3.351  -0.676  0.00  0.00    -0.273 OA
ATOM     10  N   UNL     1       6.029  -1.503  -1.319  0.00  0.00    -0.221 N 
ATOM     11  C   UNL     1       6.640  -1.082  -2.433  0.00  0.00    +0.309 C 
ATOM     12  O   UNL     1       7.236  -0.026  -2.519  0.00  0.00    -0.252 OA
ATOM     13  N   UNL     1       6.520  -1.960  -3.447  0.00  0.00    -0.285 N 
ATOM     14  H   UNL     1       6.881  -1.865  -4.343  0.00  0.00    +0.151 HD
ENDROOT
BRANCH  10  15
ATOM     15  C   UNL     1       5.999  -0.750  -0.062  0.00  0.00    +0.159 C 
BRANCH  15  16
ATOM     16  C   UNL     1       4.772   0.164  -0.044  0.00  0.00    +0.248 C 
BRANCH  16  17
ATOM     17  O   UNL     1       3.586  -0.632  -0.037  0.00  0.00    -0.490 OA
BRANCH  17  18
ATOM     18  C   UNL     1       2.399   0.030  -0.021  0.00  0.00    +0.121 A 
ATOM     19  C   UNL     1       1.207  -0.680  -0.014  0.00  0.00    +0.045 A 
ATOM     20  C   UNL     1       0.002  -0.004   0.002  0.00  0.00    +0.004 A 
ATOM     21  C   UNL     1      -0.017   1.378   0.010  0.00  0.00    +0.000 A 
ATOM     22  C   UNL     1       1.170   2.088   0.002  0.00  0.00    +0.004 A 
ATOM     23  C   UNL     1       2.377   1.417  -0.013  0.00  0.00    +0.045 A 
ENDBRANCH  17  18
ENDBRANCH  16  17
ENDBRANCH  15  16
ENDBRANCH  10  15
TORSDOF 4
