REMARK  Name = ZINC40345666
REMARK  14 active torsions:
REMARK  status: ('A' for Active; 'I' for Inactive)
REMARK    1  A    between atoms: C_1  and  C_2
REMARK    2  A    between atoms: C_2  and  C_3
REMARK    3  A    between atoms: C_2  and  C_4
REMARK    4  A    between atoms: C_4  and  C_5
REMARK    5  A    between atoms: C_5  and  O_6
REMARK    6  A    between atoms: O_6  and  C_7
REMARK    7  A    between atoms: C_10  and  C_13
REMARK    8  A    between atoms: C_16  and  C_32
REMARK    9  A    between atoms: N_23  and  C_24
REMARK   10  A    between atoms: C_24  and  C_25
REMARK   11  A    between atoms: C_25  and  C_26
REMARK   12  A    between atoms: C_26  and  N_27
REMARK   13  A    between atoms: C_35  and  O_38
REMARK   14  A    between atoms: O_38  and  C_39
REMARK                            x       y       z     vdW  Elec       q    Type
REMARK                         _______ _______ _______ _____ _____    ______ ____
ROOT
ATOM      1  C   UNL     1      -3.429  -8.125  -0.572  0.00  0.00    +0.141 C 
ATOM      2  C   UNL     1      -3.739  -8.721   0.774  0.00  0.00    +0.035 A 
ATOM      3  C   UNL     1      -3.338  -8.937   2.054  0.00  0.00    +0.072 A 
ATOM      4  N   UNL     1      -4.337  -9.640   2.664  0.00  0.00    -0.276 N 
ATOM      5  N   UNL     1      -5.295  -9.851   1.834  0.00  0.00    -0.168 NA
ATOM      6  H   UNL     1      -4.325  -9.937   3.588  0.00  0.00    +0.189 HD
ATOM      7  C   UNL     1      -5.012  -9.325   0.659  0.00  0.00    +0.153 A 
ATOM      8  C   UNL     1      -5.489  -9.114  -0.720  0.00  0.00    +0.268 C 
ATOM      9  O   UNL     1      -6.554  -9.509  -1.153  0.00  0.00    -0.268 OA
ATOM     10  N   UNL     1      -4.580  -8.425  -1.432  0.00  0.00    -0.285 N 
ENDROOT
BRANCH   1  14
ATOM     11  C   UNL     1      -2.919  -3.897  -0.222  0.00  0.00    +0.121 A 
ATOM     12  C   UNL     1      -1.810  -4.724  -0.333  0.00  0.00    +0.046 A 
ATOM     13  C   UNL     1      -1.978  -6.090  -0.445  0.00  0.00    +0.009 A 
ATOM     14  C   UNL     1      -3.249  -6.634  -0.448  0.00  0.00    -0.022 A 
ATOM     15  C   UNL     1      -4.356  -5.812  -0.338  0.00  0.00    +0.009 A 
ATOM     16  C   UNL     1      -4.193  -4.446  -0.220  0.00  0.00    +0.046 A 
BRANCH  11  17
ATOM     17  O   UNL     1      -2.756  -2.552  -0.111  0.00  0.00    -0.492 OA
BRANCH  17  18
ATOM     18  C   UNL     1      -1.416  -2.058  -0.121  0.00  0.00    +0.229 C 
BRANCH  18  19
ATOM     19  C   UNL     1      -1.433  -0.534   0.013  0.00  0.00    +0.044 C 
BRANCH  19  21
ATOM     20  C   UNL     1      -0.019   1.526   0.010  0.00  0.00    +0.007 C 
ATOM     21  C   UNL     1       0.002  -0.004   0.002  0.00  0.00    -0.014 C 
ATOM     22  C   UNL     1       0.742  -0.511   1.242  0.00  0.00    +0.007 C 
ENDBRANCH  19  21
ENDBRANCH  18  19
ENDBRANCH  17  18
ENDBRANCH  11  17
ENDBRANCH   1  14
BRANCH   3  23
ATOM     23  C   UNL     1      -2.065  -8.497   2.667  0.00  0.00    +0.000 A 
ATOM     24  C   UNL     1      -0.864  -8.657   1.976  0.00  0.00    +0.013 A 
ATOM     25  C   UNL     1       0.320  -8.245   2.550  0.00  0.00    +0.046 A 
ATOM     26  C   UNL     1       0.318  -7.672   3.815  0.00  0.00    +0.120 A 
ATOM     27  C   UNL     1      -0.876  -7.512   4.506  0.00  0.00    +0.046 A 
ATOM     28  C   UNL     1      -2.064  -7.915   3.935  0.00  0.00    +0.013 A 
BRANCH  26  29
ATOM     29  O   UNL     1       1.486  -7.268   4.378  0.00  0.00    -0.495 OA
ATOM     30  C   UNL     1       1.411  -6.686   5.681  0.00  0.00    +0.277 C 
ENDBRANCH  26  29
ENDBRANCH   3  23
BRANCH  10  31
ATOM     31  C   UNL     1      -4.715  -8.035  -2.837  0.00  0.00    +0.111 C 
BRANCH  31  32
ATOM     32  C   UNL     1      -4.139  -9.136  -3.730  0.00  0.00    +0.040 C 
BRANCH  32  33
ATOM     33  C   UNL     1      -4.281  -8.729  -5.198  0.00  0.00    +0.124 C 
BRANCH  33  34
ATOM     34  N   UNL     1      -3.730  -9.783  -6.053  0.00  0.00    -0.338 N 
ATOM     35  C   UNL     1      -2.434  -9.886  -6.482  0.00  0.00    +0.104 A 
ATOM     36  C   UNL     1      -2.362 -10.997  -7.240  0.00  0.00    +0.101 A 
ATOM     37  N   UNL     1      -3.580 -11.557  -7.272  0.00  0.00    -0.352 N 
ATOM     38  C   UNL     1      -4.403 -10.838  -6.559  0.00  0.00    +0.173 A 
ATOM     39  H   UNL     1      -3.811 -12.371  -7.747  0.00  0.00    +0.166 HD
ENDBRANCH  33  34
ENDBRANCH  32  33
ENDBRANCH  31  32
ENDBRANCH  10  31
TORSDOF 11
