REMARK  Name = ZINC51995777
REMARK  8 active torsions:
REMARK  status: ('A' for Active; 'I' for Inactive)
REMARK    1  A    between atoms: C_1  and  C_2
REMARK    2  A    between atoms: C_2  and  C_3
REMARK    3  A    between atoms: C_2  and  C_4
REMARK    4  A    between atoms: C_2  and  C_5
REMARK    5  A    between atoms: N_7  and  C_8
REMARK    6  A    between atoms: C_8  and  C_9
REMARK    7  A    between atoms: N_11  and  C_12
REMARK    8  A    between atoms: C_18  and  O_20
REMARK                            x       y       z     vdW  Elec       q    Type
REMARK                         _______ _______ _______ _____ _____    ______ ____
ROOT
ATOM      1  C   UNL     1       1.553  -3.792  -2.673  0.00  0.00    +0.230 C 
ATOM      2  O   UNL     1       1.044  -4.410  -1.762  0.00  0.00    -0.274 OA
ATOM      3  N   UNL     1       2.136  -4.452  -3.693  0.00  0.00    -0.309 N 
ATOM      4  H   UNL     1       2.542  -3.957  -4.422  0.00  0.00    +0.149 HD
ENDROOT
BRANCH   3   5
ATOM      5  C   UNL     1       2.155  -5.917  -3.701  0.00  0.00    +0.101 C 
ATOM      6  C   UNL     1       3.352  -6.415  -2.888  0.00  0.00    +0.025 C 
ATOM      7  C   UNL     1       4.646  -5.884  -3.507  0.00  0.00    +0.002 C 
ATOM      8  C   UNL     1       4.765  -6.385  -4.948  0.00  0.00    +0.003 C 
ATOM      9  C   UNL     1       3.569  -5.886  -5.761  0.00  0.00    +0.033 C 
ATOM     10  C   UNL     1       2.274  -6.417  -5.142  0.00  0.00    +0.135 C 
BRANCH  10  11
ATOM     11  O   UNL     1       1.157  -5.952  -5.902  0.00  0.00    -0.390 OA
ATOM     12  H   UNL     1       1.167  -6.232  -6.827  0.00  0.00    +0.210 HD
ENDBRANCH  10  11
ENDBRANCH   3   5
BRANCH   1  13
ATOM     13  C   UNL     1       1.532  -2.285  -2.665  0.00  0.00    +0.200 C 
BRANCH  13  16
ATOM     14  C   UNL     1       0.707  -0.490  -1.238  0.00  0.00    +0.219 C 
ATOM     15  O   UNL     1       1.150   0.308  -2.036  0.00  0.00    -0.275 OA
ATOM     16  N   UNL     1       0.847  -1.812  -1.460  0.00  0.00    -0.306 N 
ATOM     17  H   UNL     1       0.493  -2.451  -0.821  0.00  0.00    +0.149 HD
BRANCH  14  19
ATOM     18  C   UNL     1      -0.019   1.526   0.010  0.00  0.00    +0.020 C 
ATOM     19  C   UNL     1       0.002  -0.004   0.002  0.00  0.00    +0.039 C 
ATOM     20  C   UNL     1       0.742  -0.511   1.242  0.00  0.00    +0.020 C 
ATOM     21  C   UNL     1      -1.433  -0.534   0.013  0.00  0.00    +0.020 C 
ENDBRANCH  14  19
ENDBRANCH  13  16
ENDBRANCH   1  13
TORSDOF 5
