REMARK  Name = ZINC40545350
REMARK  5 active torsions:
REMARK  status: ('A' for Active; 'I' for Inactive)
REMARK    1  A    between atoms: C_1  and  C_2
REMARK    2  A    between atoms: C_7  and  C_8
REMARK    3  A    between atoms: C_13  and  C_21
REMARK    4  A    between atoms: C_15  and  N_20
REMARK    5  A    between atoms: C_16  and  C_17
REMARK                            x       y       z     vdW  Elec       q    Type
REMARK                         _______ _______ _______ _____ _____    ______ ____
ROOT
ATOM      1  C   UNL     1       0.140   1.733  -1.129  0.00  0.00    +0.044 C 
ATOM      2  C   UNL     1       0.159   0.242  -0.908  0.00  0.00    -0.046 A 
ATOM      3  C   UNL     1       0.074  -0.617  -1.987  0.00  0.00    +0.030 A 
ATOM      4  C   UNL     1       0.092  -1.990  -1.785  0.00  0.00    +0.073 A 
ATOM      5  C   UNL     1       0.195  -2.503  -0.496  0.00  0.00    +0.145 A 
ATOM      6  C   UNL     1       0.279  -1.631   0.582  0.00  0.00    +0.051 A 
ATOM      7  C   UNL     1       0.267  -0.265   0.373  0.00  0.00    -0.044 A 
ATOM      8  C   UNL     1       0.365   0.674   1.547  0.00  0.00    +0.044 C 
ATOM      9  O   UNL     1       0.195  -3.863  -0.531  0.00  0.00    -0.458 OA
ATOM     10  C   UNL     1       0.093  -4.284  -1.893  0.00  0.00    +0.235 C 
ATOM     11  N   UNL     1       0.022  -3.056  -2.694  0.00  0.00    -0.297 N 
ATOM     12  C   UNL     1       1.306  -5.081  -2.282  0.00  0.00    +0.087 C 
ATOM     13  C   UNL     1       1.248  -6.383  -2.427  0.00  0.00    +0.106 C 
ATOM     14  O   UNL     1       0.109  -7.080  -2.237  0.00  0.00    -0.446 OA
ATOM     15  C   UNL     1      -1.077  -6.447  -2.252  0.00  0.00    +0.198 C 
ATOM     16  C   UNL     1      -1.155  -5.099  -2.091  0.00  0.00    +0.137 C 
ATOM     17  C   UNL     1       2.499  -7.126  -2.820  0.00  0.00    +0.086 C 
ATOM     18  H   UNL     1      -0.057  -2.994  -3.659  0.00  0.00    +0.151 HD
ENDROOT
BRANCH  16  19
ATOM     19  C   UNL     1      -2.409  -4.464  -2.111  0.00  0.00    +0.248 C 
ATOM     20  O   UNL     1      -2.944  -4.140  -1.065  0.00  0.00    -0.270 OA
ATOM     21  N   UNL     1      -3.019  -4.215  -3.287  0.00  0.00    -0.325 N 
ATOM     22  H   UNL     1      -2.628  -4.537  -4.114  0.00  0.00    +0.145 HD
ATOM     23  H   UNL     1      -3.849  -3.712  -3.305  0.00  0.00    +0.145 HD
ENDBRANCH  16  19
BRANCH  15  24
ATOM     24  N   UNL     1      -2.226  -7.171  -2.433  0.00  0.00    -0.329 N 
ATOM     25  H   UNL     1      -2.175  -8.120  -2.627  0.00  0.00    +0.145 HD
ATOM     26  H   UNL     1      -3.090  -6.735  -2.365  0.00  0.00    +0.145 HD
ENDBRANCH  15  24
TORSDOF 2
