REMARK  Name = ZINC63375566
REMARK  7 active torsions:
REMARK  status: ('A' for Active; 'I' for Inactive)
REMARK    1  A    between atoms: C_1  and  C_2
REMARK    2  A    between atoms: C_2  and  C_3
REMARK    3  A    between atoms: C_3  and  C_4
REMARK    4  A    between atoms: C_4  and  N_5
REMARK    5  A    between atoms: C_6  and  C_8
REMARK    6  A    between atoms: C_13  and  N_14
REMARK    7  A    between atoms: C_30  and  C_35
REMARK                            x       y       z     vdW  Elec       q    Type
REMARK                         _______ _______ _______ _____ _____    ______ ____
ROOT
ATOM      1  N   UNL     1       1.894  -6.598  -3.227  0.00  0.00    -0.192 N 
ATOM      2  C   UNL     1       0.649  -7.115  -3.283  0.00  0.00    +0.248 C 
ATOM      3  O   UNL     1      -0.217  -6.850  -4.089  0.00  0.00    -0.273 OA
ATOM      4  C   UNL     1       0.559  -8.093  -2.132  0.00  0.00    +0.169 C 
ATOM      5  C   UNL     1      -0.578  -7.679  -1.182  0.00  0.00    +0.065 C 
ATOM      6  C   UNL     1      -0.240  -8.262   0.170  0.00  0.00    -0.034 C 
ATOM      7  C   UNL     1      -0.814  -8.091   1.356  0.00  0.00    -0.001 A 
ATOM      8  C   UNL     1      -2.023  -7.355   1.760  0.00  0.00    +0.010 A 
ATOM      9  C   UNL     1      -2.321  -7.374   3.086  0.00  0.00    +0.001 A 
ATOM     10  C   UNL     1      -1.545  -8.043   4.038  0.00  0.00    +0.002 A 
ATOM     11  C   UNL     1      -0.422  -8.749   3.755  0.00  0.00    +0.026 A 
ATOM     12  C   UNL     1      -0.011  -8.808   2.392  0.00  0.00    +0.043 A 
ATOM     13  N   UNL     1       0.998  -9.417   1.843  0.00  0.00    -0.375 N 
ATOM     14  C   UNL     1       0.932  -9.210   0.394  0.00  0.00    +0.131 C 
ATOM     15  C   UNL     1       2.189  -8.504  -0.131  0.00  0.00    +0.135 C 
ATOM     16  N   UNL     1       1.851  -7.917  -1.437  0.00  0.00    -0.264 N 
ATOM     17  C   UNL     1       2.586  -7.088  -2.189  0.00  0.00    +0.317 C 
ATOM     18  O   UNL     1       3.745  -6.808  -1.955  0.00  0.00    -0.252 OA
ATOM     19  H   UNL     1       1.679  -9.922   2.313  0.00  0.00    +0.160 HD
ENDROOT
BRANCH   1  25
ATOM     20  C   UNL     1       2.254  -4.298  -3.906  0.00  0.00    +0.059 A 
ATOM     21  C   UNL     1       2.771  -3.382  -4.825  0.00  0.00    +0.015 A 
ATOM     22  C   UNL     1       3.415  -3.832  -5.957  0.00  0.00    +0.001 A 
ATOM     23  C   UNL     1       3.554  -5.191  -6.189  0.00  0.00    +0.002 A 
ATOM     24  C   UNL     1       3.048  -6.108  -5.289  0.00  0.00    +0.025 A 
ATOM     25  C   UNL     1       2.401  -5.672  -4.141  0.00  0.00    +0.058 A 
BRANCH  20  27
ATOM     26  N   UNL     1       1.425  -2.500  -2.470  0.00  0.00    -0.311 N 
ATOM     27  C   UNL     1       1.564  -3.822  -2.692  0.00  0.00    +0.246 C 
ATOM     28  O   UNL     1       1.120  -4.622  -1.892  0.00  0.00    -0.270 OA
ATOM     29  H   UNL     1       1.779  -1.861  -3.109  0.00  0.00    +0.149 HD
BRANCH  26  30
ATOM     30  C   UNL     1       0.739  -2.027  -1.265  0.00  0.00    +0.104 C 
BRANCH  30  31
ATOM     31  C   UNL     1       0.718  -0.497  -1.257  0.00  0.00    +0.018 C 
BRANCH  31  33
ATOM     32  C   UNL     1      -0.019   1.526   0.010  0.00  0.00    +0.004 C 
ATOM     33  C   UNL     1       0.002  -0.004   0.002  0.00  0.00    -0.002 C 
ENDBRANCH  31  33
ENDBRANCH  30  31
ENDBRANCH  26  30
ENDBRANCH  20  27
ENDBRANCH   1  25
BRANCH  15  34
ATOM     34  C   UNL     1       2.619  -7.433   0.839  0.00  0.00    -0.025 A 
ATOM     35  C   UNL     1       1.977  -6.209   0.845  0.00  0.00    +0.005 A 
ATOM     36  C   UNL     1       2.372  -5.226   1.734  0.00  0.00    +0.000 A 
ATOM     37  C   UNL     1       3.408  -5.469   2.617  0.00  0.00    +0.000 A 
ATOM     38  C   UNL     1       4.049  -6.693   2.611  0.00  0.00    +0.000 A 
ATOM     39  C   UNL     1       3.652  -7.677   1.724  0.00  0.00    +0.005 A 
ENDBRANCH  15  34
TORSDOF 6
