REMARK  Name = ZINC39710313
REMARK  12 active torsions:
REMARK  status: ('A' for Active; 'I' for Inactive)
REMARK    1  A    between atoms: C_1  and  C_2
REMARK    2  A    between atoms: C_9  and  C_14
REMARK    3  A    between atoms: C_14  and  C_16
REMARK    4  A    between atoms: C_14  and  N_26
REMARK    5  A    between atoms: N_21  and  C_22
REMARK    6  A    between atoms: C_22  and  C_23
REMARK    7  A    between atoms: C_22  and  C_24
REMARK    8  A    between atoms: C_22  and  C_25
REMARK    9  A    between atoms: N_26  and  C_27
REMARK   10  A    between atoms: N_26  and  C_34
REMARK   11  A    between atoms: C_27  and  C_28
REMARK   12  A    between atoms: C_34  and  C_35
REMARK                            x       y       z     vdW  Elec       q    Type
REMARK                         _______ _______ _______ _____ _____    ______ ____
ROOT
ATOM      1  C   UNL     1       0.970  -4.644   2.550  0.00  0.00    -0.009 C 
ENDROOT
BRANCH   1  10
ATOM      2  C   UNL     1      -4.749  -3.426   6.652  0.00  0.00    +0.044 C 
ATOM      3  C   UNL     1      -3.866  -3.160   5.460  0.00  0.00    -0.050 A 
ATOM      4  C   UNL     1      -3.913  -1.910   4.842  0.00  0.00    +0.005 A 
ATOM      5  C   UNL     1      -3.147  -1.597   3.764  0.00  0.00    +0.024 A 
ATOM      6  C   UNL     1      -2.258  -2.542   3.220  0.00  0.00    +0.040 A 
ATOM      7  N   UNL     1      -1.512  -2.223   2.163  0.00  0.00    -0.285 N 
ATOM      8  C   UNL     1      -0.658  -3.063   1.602  0.00  0.00    +0.223 C 
ATOM      9  O   UNL     1      -0.003  -2.715   0.638  0.00  0.00    -0.275 OA
ATOM     10  C   UNL     1      -0.499  -4.458   2.164  0.00  0.00    +0.088 C 
ATOM     11  C   UNL     1      -1.346  -4.826   3.367  0.00  0.00    -0.006 C 
ATOM     12  C   UNL     1      -2.189  -3.871   3.853  0.00  0.00    -0.007 A 
ATOM     13  C   UNL     1      -3.038  -4.139   5.014  0.00  0.00    +0.012 A 
ATOM     14  H   UNL     1      -1.598  -1.333   1.787  0.00  0.00    +0.155 HD
ENDBRANCH   1  10
BRANCH   1  15
ATOM     15  C   UNL     1       1.856  -4.373   1.333  0.00  0.00    +0.205 C 
ATOM     16  N   UNL     1       1.483  -5.257   0.221  0.00  0.00    -0.152 NA
ATOM     17  N   UNL     1       2.450  -5.965  -0.069  0.00  0.00    -0.070 NA
ATOM     18  N   UNL     1       3.565  -5.710   0.729  0.00  0.00    -0.179 N 
ATOM     19  N   UNL     1       3.261  -4.720   1.630  0.00  0.00    -0.183 NA
ATOM     20  H   UNL     1       4.421  -6.162   0.659  0.00  0.00    +0.191 HD
BRANCH  19  21
ATOM     21  C   UNL     1       4.140  -3.556   1.453  0.00  0.00    +0.035 C 
ATOM     22  C   UNL     1       3.638  -2.401   2.323  0.00  0.00    +0.029 C 
ATOM     23  C   UNL     1       5.565  -3.925   1.869  0.00  0.00    +0.029 C 
ATOM     24  C   UNL     1       4.131  -3.130  -0.016  0.00  0.00    +0.029 C 
ENDBRANCH  19  21
ENDBRANCH   1  15
BRANCH   1  25
ATOM     25  N   UNL     1       1.183  -6.021   3.015  0.00  0.00    +0.390 N 
ATOM     26  H   UNL     1       0.429  -6.290   3.630  0.00  0.00    -0.080 HD
BRANCH  25  27
ATOM     27  C   UNL     1       2.458  -6.102   3.739  0.00  0.00    -0.040 C 
BRANCH  27  28
ATOM     28  C   UNL     1       2.326  -5.402   5.068  0.00  0.00    -0.046 A 
ATOM     29  C   UNL     1       2.493  -4.029   5.158  0.00  0.00    +0.005 A 
ATOM     30  C   UNL     1       2.362  -3.428   6.401  0.00  0.00    +0.020 A 
ATOM     31  C   UNL     1       2.072  -4.213   7.501  0.00  0.00    +0.111 A 
ATOM     32  N   UNL     1       1.921  -5.517   7.378  0.00  0.00    -0.263 NA
ATOM     33  C   UNL     1       2.032  -6.121   6.211  0.00  0.00    +0.112 A 
ENDBRANCH  27  28
ENDBRANCH  25  27
BRANCH  25  34
ATOM     34  C   UNL     1       1.219  -6.928   1.859  0.00  0.00    -0.040 C 
BRANCH  34  35
ATOM     35  C   UNL     1       0.955  -8.338   2.319  0.00  0.00    -0.046 A 
ATOM     36  C   UNL     1       2.008  -9.214   2.503  0.00  0.00    +0.003 A 
ATOM     37  C   UNL     1       1.766 -10.508   2.925  0.00  0.00    +0.000 A 
ATOM     38  C   UNL     1       0.471 -10.927   3.163  0.00  0.00    +0.001 A 
ATOM     39  C   UNL     1      -0.584 -10.053   2.979  0.00  0.00    +0.020 A 
ATOM     40  C   UNL     1      -0.342  -8.755   2.562  0.00  0.00    +0.042 A 
ATOM     41 CL   UNL     1      -1.665  -7.654   2.338  0.00  0.00    -0.083 Cl
ENDBRANCH  34  35
ENDBRANCH  25  34
ENDBRANCH   1  25
TORSDOF 8
