REMARK  Name = ZINC34836340
REMARK  7 active torsions:
REMARK  status: ('A' for Active; 'I' for Inactive)
REMARK    1  A    between atoms: C_6  and  C_7
REMARK    2  A    between atoms: C_18  and  C_23
REMARK    3  A    between atoms: C_23  and  O_25
REMARK    4  A    between atoms: O_25  and  C_26
REMARK    5  A    between atoms: C_26  and  C_27
REMARK    6  A    between atoms: C_27  and  C_29
REMARK    7  A    between atoms: C_32  and  N_35
REMARK                            x       y       z     vdW  Elec       q    Type
REMARK                         _______ _______ _______ _____ _____    ______ ____
ROOT
ATOM      1  C   UNL     1      -1.293  -0.775   0.011  0.00  0.00    +0.105 C 
ATOM      2  C   UNL     1      -1.671  -1.181  -1.402  0.00  0.00    +0.029 C 
ATOM      3  C   UNL     1      -1.758  -0.066  -2.453  0.00  0.00    +0.033 C 
ATOM      4  C   UNL     1      -1.399  -0.821  -3.734  0.00  0.00    -0.030 C 
ATOM      5  C   UNL     1      -0.649  -1.877  -3.443  0.00  0.00    -0.023 C 
ATOM      6  C   UNL     1      -0.425  -1.929  -1.966  0.00  0.00    +0.049 C 
ATOM      7  C   UNL     1      -0.282  -3.196  -1.216  0.00  0.00    -0.019 A 
ATOM      8  C   UNL     1       0.171  -4.352  -1.802  0.00  0.00    +0.021 A 
ATOM      9  C   UNL     1       0.300  -5.519  -1.043  0.00  0.00    +0.059 A 
ATOM     10  C   UNL     1      -0.034  -5.501   0.315  0.00  0.00    +0.017 A 
ATOM     11  C   UNL     1      -0.488  -4.352   0.894  0.00  0.00    +0.024 A 
ATOM     12  C   UNL     1      -0.627  -3.186   0.144  0.00  0.00    +0.031 A 
ATOM     13  N   UNL     1      -1.130  -2.038   0.762  0.00  0.00    -0.336 N 
ATOM     14  H   UNL     1      -1.377  -2.069   1.700  0.00  0.00    +0.147 HD
ENDROOT
BRANCH   1  20
ATOM     15  C   UNL     1      -0.013   1.370  -0.146  0.00  0.00    +0.007 A 
ATOM     16  C   UNL     1       1.174   2.078  -0.154  0.00  0.00    +0.020 A 
ATOM     17  C   UNL     1       2.378   1.411  -0.013  0.00  0.00    +0.041 A 
ATOM     18  C   UNL     1       2.392   0.035   0.135  0.00  0.00    +0.020 A 
ATOM     19  C   UNL     1       1.204  -0.671   0.143  0.00  0.00    +0.007 A 
ATOM     20  C   UNL     1       0.002  -0.004   0.002  0.00  0.00    -0.027 A 
ATOM     21 CL   UNL     1       3.870   2.299  -0.023  0.00  0.00    -0.084 Cl
ENDBRANCH   1  20
BRANCH   9  22
ATOM     22  C   UNL     1       0.784  -6.761  -1.670  0.00  0.00    +0.340 C 
ATOM     23  O   UNL     1       1.073  -6.774  -2.850  0.00  0.00    -0.245 OA
BRANCH  22  24
ATOM     24  O   UNL     1       0.907  -7.884  -0.935  0.00  0.00    -0.453 OA
BRANCH  24  25
ATOM     25  C   UNL     1       1.382  -9.052  -1.608  0.00  0.00    +0.311 C 
BRANCH  25  26
ATOM     26  C   UNL     1       1.453 -10.199  -0.634  0.00  0.00    +0.200 C 
ATOM     27  O   UNL     1       1.129 -10.033   0.523  0.00  0.00    -0.288 OA
BRANCH  26  28
ATOM     28  C   UNL     1       1.917 -11.521  -1.086  0.00  0.00    +0.021 A 
ATOM     29  C   UNL     1       2.297 -11.714  -2.418  0.00  0.00    +0.014 A 
ATOM     30  C   UNL     1       2.729 -12.956  -2.834  0.00  0.00    +0.033 A 
ATOM     31  C   UNL     1       2.788 -14.009  -1.937  0.00  0.00    +0.126 A 
ATOM     32  C   UNL     1       2.413 -13.825  -0.618  0.00  0.00    +0.033 A 
ATOM     33  C   UNL     1       1.984 -12.588  -0.185  0.00  0.00    +0.014 A 
BRANCH  31  34
ATOM     34  N   UNL     1       3.252 -15.338  -2.392  0.00  0.00    +0.056 N 
ATOM     35  O   UNL     1       3.580 -15.502  -3.544  0.00  0.00    -0.126 OA
ATOM     36  O   UNL     1       3.305 -16.260  -1.612  0.00  0.00    -0.126 OA
ENDBRANCH  31  34
ENDBRANCH  26  28
ENDBRANCH  25  26
ENDBRANCH  24  25
ENDBRANCH  22  24
ENDBRANCH   9  22
TORSDOF 7
