REMARK  Name = ZINC58304045
REMARK  6 active torsions:
REMARK  status: ('A' for Active; 'I' for Inactive)
REMARK    1  A    between atoms: C_1  and  C_2
REMARK    2  A    between atoms: C_5  and  S_7
REMARK    3  A    between atoms: S_7  and  C_8
REMARK    4  A    between atoms: C_11  and  N_22
REMARK    5  A    between atoms: C_13  and  S_14
REMARK    6  A    between atoms: S_14  and  N_17
REMARK                            x       y       z     vdW  Elec       q    Type
REMARK                         _______ _______ _______ _____ _____    ______ ____
ROOT
ATOM      1  C   UNL     1       0.005  -4.774   1.846  0.00  0.00    +0.041 A 
ATOM      2  C   UNL     1       0.056  -4.997   0.475  0.00  0.00    +0.019 A 
ATOM      3  C   UNL     1       0.014  -6.288  -0.014  0.00  0.00    +0.034 A 
ATOM      4  C   UNL     1      -0.078  -7.357   0.859  0.00  0.00    +0.128 A 
ATOM      5  C   UNL     1      -0.129  -7.138   2.223  0.00  0.00    +0.062 A 
ATOM      6  C   UNL     1      -0.082  -5.850   2.720  0.00  0.00    +0.121 A 
ENDROOT
BRANCH   6   7
ATOM      7  S   UNL     1      -0.139  -5.572   4.459  0.00  0.00    +0.062 S 
ATOM      8  O   UNL     1      -1.128  -4.576   4.679  0.00  0.00    -0.153 OA
ATOM      9  O   UNL     1      -0.198  -6.853   5.073  0.00  0.00    -0.153 OA
BRANCH   7  10
ATOM     10  N   UNL     1       1.312  -4.904   4.896  0.00  0.00    -0.177 NA
ATOM     11  C   UNL     1       2.510  -5.651   5.305  0.00  0.00    +0.109 C 
ATOM     12  C   UNL     1       3.603  -4.615   5.642  0.00  0.00    +0.018 C 
ATOM     13  C   UNL     1       2.784  -3.333   5.948  0.00  0.00    +0.018 C 
ATOM     14  C   UNL     1       1.617  -3.463   4.933  0.00  0.00    +0.109 C 
ENDBRANCH   7  10
ENDBRANCH   6   7
BRANCH   4  15
ATOM     15  N   UNL     1      -0.123  -8.740   0.331  0.00  0.00    +0.056 N 
ATOM     16  O   UNL     1      -0.079  -8.933  -0.862  0.00  0.00    -0.126 OA
ATOM     17  O   UNL     1      -0.204  -9.675   1.092  0.00  0.00    -0.126 OA
ENDBRANCH   4  15
BRANCH   1  18
ATOM     18  S   UNL     1       0.058  -3.128   2.474  0.00  0.00    -0.061 S 
BRANCH  18  23
ATOM     19  C   UNL     1      -3.649   0.549   1.963  0.00  0.00    +0.066 C 
ATOM     20  C   UNL     1      -3.083  -0.816   1.663  0.00  0.00    +0.047 A 
ATOM     21  C   UNL     1      -3.735  -1.690   0.859  0.00  0.00    +0.070 A 
ATOM     22  S   UNL     1      -2.607  -3.074   0.889  0.00  0.00    -0.069 S 
ATOM     23  C   UNL     1      -1.445  -2.406   1.906  0.00  0.00    +0.139 A 
ATOM     24  N   UNL     1      -1.929  -1.210   2.169  0.00  0.00    -0.238 NA
ENDBRANCH  18  23
ENDBRANCH   1  18
TORSDOF 5
