REMARK  Name = ZINC12559408
REMARK  10 active torsions:
REMARK  status: ('A' for Active; 'I' for Inactive)
REMARK    1  A    between atoms: C_1  and  C_2
REMARK    2  A    between atoms: C_2  and  C_3
REMARK    3  A    between atoms: C_8  and  O_19
REMARK    4  A    between atoms: C_9  and  C_18
REMARK    5  A    between atoms: C_12  and  C_15
REMARK    6  A    between atoms: C_13  and  O_14
REMARK    7  A    between atoms: C_15  and  N_49
REMARK    8  A    between atoms: C_16  and  N_49
REMARK    9  A    between atoms: C_17  and  N_49
REMARK   10  A    between atoms: O_19  and  C_20
REMARK                            x       y       z     vdW  Elec       q    Type
REMARK                         _______ _______ _______ _____ _____    ______ ____
ROOT
ATOM      1  C   UNL     1      -1.120  -2.112   0.001  0.00  0.00    -0.005 A 
ATOM      2  C   UNL     1      -1.179  -0.747   0.009  0.00  0.00    +0.022 A 
ATOM      3  C   UNL     1       0.002  -0.004   0.002  0.00  0.00    +0.068 A 
ATOM      4  C   UNL     1      -0.018   1.469   0.010  0.00  0.00    +0.235 A 
ATOM      5  O   UNL     1      -1.068   2.090   0.018  0.00  0.00    -0.283 OA
ATOM      6  C   UNL     1       1.239   2.137   0.002  0.00  0.00    +0.213 A 
ATOM      7  C   UNL     1       2.377   1.414  -0.011  0.00  0.00    +0.148 A 
ATOM      8  O   UNL     1       2.384   0.075  -0.019  0.00  0.00    -0.456 OA
ATOM      9  C   UNL     1       1.249  -0.654  -0.013  0.00  0.00    +0.144 A 
ATOM     10  C   UNL     1       1.292  -2.041  -0.022  0.00  0.00    +0.021 A 
ATOM     11  C   UNL     1       0.111  -2.764  -0.015  0.00  0.00    +0.125 A 
ATOM     12  C   UNL     1       3.696   2.143  -0.019  0.00  0.00    +0.090 C 
ENDROOT
BRANCH   1  14
ATOM     13  C   UNL     1      -2.744  -3.303   1.447  0.00  0.00    +0.009 C 
ATOM     14  C   UNL     1      -2.394  -2.917   0.008  0.00  0.00    +0.035 C 
ENDBRANCH   1  14
BRANCH  11  15
ATOM     15  O   UNL     1       0.153  -4.121  -0.023  0.00  0.00    -0.506 OA
ATOM     16  H   UNL     1       0.157  -4.509  -0.908  0.00  0.00    +0.292 HD
ENDBRANCH  11  15
BRANCH  10  17
ATOM     17  C   UNL     1       2.618  -2.757  -0.040  0.00  0.00    -0.036 C 
BRANCH  17  20
ATOM     18  C   UNL     1       3.316  -1.709  -2.107  0.00  0.00    -0.096 C 
ATOM     19  C   UNL     1       4.196  -3.879  -1.493  0.00  0.00    -0.096 C 
ATOM     20  N   UNL     1       3.013  -2.994  -1.444  0.00  0.00    +0.379 N 
ATOM     21  H   UNL     1       2.235  -3.449  -1.937  0.00  0.00    -0.082 HD
ENDBRANCH  17  20
ENDBRANCH  10  17
BRANCH   6  22
ATOM     22  O   UNL     1       1.292   3.498   0.009  0.00  0.00    -0.449 OA
BRANCH  22  23
ATOM     23  C   UNL     1       1.329   4.128   1.212  0.00  0.00    +0.129 A 
ATOM     24  C   UNL     1       1.306   3.389   2.385  0.00  0.00    +0.047 A 
ATOM     25  C   UNL     1       1.348   4.032   3.607  0.00  0.00    +0.018 A 
ATOM     26  C   UNL     1       1.402   5.413   3.661  0.00  0.00    +0.014 A 
ATOM     27  C   UNL     1       1.419   6.153   2.492  0.00  0.00    +0.018 A 
ATOM     28  C   UNL     1       1.383   5.514   1.268  0.00  0.00    +0.047 A 
ATOM     29  I   UNL     1       1.458   6.386   5.515  0.00  0.00    -0.044 I 
ENDBRANCH  22  23
ENDBRANCH   6  22
TORSDOF 6
