REMARK  Name = ZINC66836732
REMARK  11 active torsions:
REMARK  status: ('A' for Active; 'I' for Inactive)
REMARK    1  A    between atoms: C_1  and  C_2
REMARK    2  A    between atoms: C_2  and  C_4
REMARK    3  A    between atoms: C_2  and  N_14
REMARK    4  A    between atoms: N_9  and  C_10
REMARK    5  A    between atoms: C_10  and  C_11
REMARK    6  A    between atoms: C_11  and  C_12
REMARK    7  A    between atoms: C_11  and  C_13
REMARK    8  A    between atoms: N_14  and  C_15
REMARK    9  A    between atoms: N_14  and  C_16
REMARK   10  A    between atoms: C_16  and  C_17
REMARK   11  A    between atoms: N_19  and  C_20
REMARK                            x       y       z     vdW  Elec       q    Type
REMARK                         _______ _______ _______ _____ _____    ______ ____
ROOT
ATOM      1  N   UNL     1      -0.708  -1.147   0.742  0.00  0.00    +0.391 N 
ATOM      2  C   UNL     1      -0.044  -2.314   1.338  0.00  0.00    -0.094 C 
ATOM      3  H   UNL     1      -1.293  -1.447  -0.023  0.00  0.00    -0.080 HD
ENDROOT
BRANCH   1   5
ATOM      4  C   UNL     1      -0.384   1.052  -0.286  0.00  0.00    -0.004 C 
ATOM      5  C   UNL     1       0.305  -0.207   0.245  0.00  0.00    +0.017 C 
BRANCH   5   6
ATOM      6  C   UNL     1       1.091  -0.856  -0.865  0.00  0.00    +0.207 C 
ATOM      7  O   UNL     1       0.590  -1.743  -1.523  0.00  0.00    -0.277 OA
ATOM      8  N   UNL     1       2.349  -0.451  -1.126  0.00  0.00    -0.242 N 
ATOM      9  C   UNL     1       3.052  -1.032  -2.119  0.00  0.00    +0.306 C 
ATOM     10  O   UNL     1       2.550  -1.921  -2.779  0.00  0.00    -0.252 OA
ATOM     11  N   UNL     1       4.311  -0.627  -2.380  0.00  0.00    -0.299 N 
ATOM     12  H   UNL     1       2.750   0.258  -0.599  0.00  0.00    +0.159 HD
ATOM     13  H   UNL     1       4.711   0.082  -1.853  0.00  0.00    +0.150 HD
BRANCH  11  14
ATOM     14  C   UNL     1       5.074  -1.258  -3.459  0.00  0.00    +0.108 C 
BRANCH  14  15
ATOM     15  C   UNL     1       6.462  -0.619  -3.543  0.00  0.00    -0.000 C 
ATOM     16  C   UNL     1       7.243  -0.923  -2.264  0.00  0.00    +0.009 C 
ATOM     17  C   UNL     1       7.214  -1.190  -4.747  0.00  0.00    +0.009 C 
ENDBRANCH  14  15
ENDBRANCH  11  14
ENDBRANCH   5   6
ENDBRANCH   1   5
BRANCH   1  18
ATOM     18  C   UNL     1      -1.535  -0.483   1.759  0.00  0.00    +0.020 C 
BRANCH  18  19
ATOM     19  C   UNL     1      -2.650  -1.405   2.180  0.00  0.00    +0.201 C 
ATOM     20  O   UNL     1      -2.747  -2.506   1.683  0.00  0.00    -0.278 OA
ATOM     21  N   UNL     1      -3.540  -1.005   3.110  0.00  0.00    -0.287 N 
ATOM     22  H   UNL     1      -3.427  -0.150   3.554  0.00  0.00    +0.155 HD
BRANCH  21  23
ATOM     23  C   UNL     1      -4.628  -1.823   3.434  0.00  0.00    +0.039 A 
ATOM     24  C   UNL     1      -5.146  -1.813   4.723  0.00  0.00    +0.061 A 
ATOM     25  C   UNL     1      -6.221  -2.622   5.042  0.00  0.00    +0.128 A 
ATOM     26  C   UNL     1      -6.782  -3.442   4.077  0.00  0.00    +0.076 A 
ATOM     27  C   UNL     1      -6.267  -3.454   2.791  0.00  0.00    +0.128 A 
ATOM     28  C   UNL     1      -5.196  -2.641   2.467  0.00  0.00    +0.061 A 
ATOM     29  F   UNL     1      -6.816  -4.255   1.852  0.00  0.00    -0.205 F 
ATOM     30  F   UNL     1      -6.725  -2.613   6.295  0.00  0.00    -0.205 F 
ENDBRANCH  21  23
ENDBRANCH  18  19
ENDBRANCH   1  18
TORSDOF 7
