REMARK  Name = ZINC13712854
REMARK  12 active torsions:
REMARK  status: ('A' for Active; 'I' for Inactive)
REMARK    1  A    between atoms: C_1  and  C_2
REMARK    2  A    between atoms: C_2  and  C_3
REMARK    3  A    between atoms: C_3  and  C_4
REMARK    4  A    between atoms: C_4  and  C_5
REMARK    5  A    between atoms: C_5  and  N_6
REMARK    6  A    between atoms: C_10  and  C_11
REMARK    7  A    between atoms: C_12  and  N_23
REMARK    8  A    between atoms: C_17  and  C_22
REMARK    9  A    between atoms: N_23  and  C_24
REMARK   10  A    between atoms: C_24  and  C_25
REMARK   11  A    between atoms: C_25  and  C_26
REMARK   12  A    between atoms: C_25  and  C_27
REMARK                            x       y       z     vdW  Elec       q    Type
REMARK                         _______ _______ _______ _____ _____    ______ ____
ROOT
ATOM      1  C   UNL     1      -0.955   1.569   3.439  0.00  0.00    +0.081 A 
ATOM      2  C   UNL     1      -0.567   1.040   2.186  0.00  0.00    +0.134 A 
ATOM      3  N   UNL     1       0.444   0.185   2.123  0.00  0.00    -0.214 NA
ATOM      4  C   UNL     1       1.107  -0.196   3.216  0.00  0.00    +0.142 A 
ATOM      5  C   UNL     1       2.171  -1.106   3.087  0.00  0.00    +0.047 A 
ATOM      6  C   UNL     1       2.855  -1.502   4.199  0.00  0.00    +0.008 A 
ATOM      7  C   UNL     1       2.487  -0.997   5.453  0.00  0.00    -0.034 A 
ATOM      8  C   UNL     1       1.462  -0.123   5.558  0.00  0.00    +0.099 A 
ATOM      9  N   UNL     1       0.771   0.279   4.453  0.00  0.00    -0.267 N 
ATOM     10  C   UNL     1      -0.249   1.153   4.593  0.00  0.00    +0.267 A 
ATOM     11  O   UNL     1      -0.552   1.581   5.693  0.00  0.00    -0.267 OA
ATOM     12  C   UNL     1       3.237  -1.428   6.687  0.00  0.00    +0.045 C 
ENDROOT
BRANCH   1  17
ATOM     13  N   UNL     1      -2.739   5.689   1.906  0.00  0.00    -0.255 N 
ATOM     14  C   UNL     1      -3.006   4.645   2.670  0.00  0.00    +0.258 C 
ATOM     15  O   UNL     1      -4.080   4.539   3.235  0.00  0.00    -0.269 OA
ATOM     16  C   UNL     1      -2.001   3.646   2.815  0.00  0.00    +0.077 C 
ATOM     17  C   UNL     1      -2.027   2.488   3.538  0.00  0.00    +0.037 C 
ATOM     18  S   UNL     1      -0.695   4.325   1.801  0.00  0.00    -0.061 S 
ATOM     19  C   UNL     1      -1.546   5.806   1.280  0.00  0.00    +0.121 C 
ATOM     20  S   UNL     1      -0.991   7.059   0.253  0.00  0.00    -0.027 S 
BRANCH  13  21
ATOM     21  C   UNL     1      -3.750   6.735   1.734  0.00  0.00    +0.115 C 
BRANCH  21  22
ATOM     22  C   UNL     1      -3.571   7.801   2.817  0.00  0.00    +0.019 C 
BRANCH  22  23
ATOM     23  C   UNL     1      -4.627   8.893   2.638  0.00  0.00    +0.001 C 
BRANCH  23  25
ATOM     24  C   UNL     1      -5.505  11.050   3.542  0.00  0.00    +0.004 C 
ATOM     25  C   UNL     1      -4.448   9.958   3.722  0.00  0.00    -0.003 C 
ENDBRANCH  23  25
ENDBRANCH  22  23
ENDBRANCH  21  22
ENDBRANCH  13  21
ENDBRANCH   1  17
BRANCH   2  26
ATOM     26  N   UNL     1      -1.231   1.414   1.039  0.00  0.00    -0.328 N 
ATOM     27  H   UNL     1      -1.970   2.040   1.089  0.00  0.00    +0.147 HD
BRANCH  26  28
ATOM     28  C   UNL     1      -0.820   0.867  -0.257  0.00  0.00    +0.106 C 
BRANCH  28  29
ATOM     29  C   UNL     1      -1.714   1.440  -1.359  0.00  0.00    -0.000 C 
ATOM     30  C   UNL     1      -1.207   0.968  -2.723  0.00  0.00    +0.009 C 
ATOM     31  C   UNL     1      -3.151   0.958  -1.153  0.00  0.00    +0.009 C 
ENDBRANCH  28  29
ENDBRANCH  26  28
ENDBRANCH   2  26
TORSDOF 8
