REMARK  Name = ZINC39484431
REMARK  9 active torsions:
REMARK  status: ('A' for Active; 'I' for Inactive)
REMARK    1  A    between atoms: C_1  and  C_2
REMARK    2  A    between atoms: C_2  and  C_3
REMARK    3  A    between atoms: C_2  and  C_4
REMARK    4  A    between atoms: C_4  and  C_5
REMARK    5  A    between atoms: C_5  and  C_7
REMARK    6  A    between atoms: C_9  and  C_31
REMARK    7  A    between atoms: C_19  and  C_21
REMARK    8  A    between atoms: C_26  and  O_27
REMARK    9  A    between atoms: C_35  and  O_37
REMARK                            x       y       z     vdW  Elec       q    Type
REMARK                         _______ _______ _______ _____ _____    ______ ____
ROOT
ATOM      1  C   UNL     1      -2.667  -2.733  -0.104  0.00  0.00    +0.082 C 
ATOM      2  C   UNL     1      -2.399  -4.018  -0.883  0.00  0.00    +0.061 C 
ATOM      3  C   UNL     1      -3.608  -4.913  -0.890  0.00  0.00    -0.025 A 
ATOM      4  C   UNL     1      -3.738  -5.856  -1.891  0.00  0.00    +0.054 A 
ATOM      5  C   UNL     1      -4.839  -6.701  -1.924  0.00  0.00    +0.167 A 
ATOM      6  C   UNL     1      -5.829  -6.603  -0.944  0.00  0.00    +0.167 A 
ATOM      7  C   UNL     1      -5.710  -5.664   0.060  0.00  0.00    +0.061 A 
ATOM      8  C   UNL     1      -4.599  -4.812   0.090  0.00  0.00    +0.025 A 
ATOM      9  C   UNL     1      -4.482  -3.804   1.158  0.00  0.00    +0.172 C 
ATOM     10  O   UNL     1      -5.415  -3.558   1.893  0.00  0.00    -0.291 OA
ATOM     11  C   UNL     1      -3.158  -3.085   1.306  0.00  0.00    +0.105 C 
ATOM     12  O   UNL     1      -6.792  -7.535  -1.202  0.00  0.00    -0.453 OA
ATOM     13  C   UNL     1      -6.589  -7.926  -2.573  0.00  0.00    +0.466 C 
ATOM     14  O   UNL     1      -5.186  -7.694  -2.792  0.00  0.00    -0.453 OA
ENDROOT
BRANCH  11  15
ATOM     15  C   UNL     1      -2.159  -3.987   1.985  0.00  0.00    +0.005 A 
ATOM     16  C   UNL     1      -1.977  -5.280   1.534  0.00  0.00    +0.008 A 
ATOM     17  C   UNL     1      -1.062  -6.108   2.158  0.00  0.00    +0.001 A 
ATOM     18  C   UNL     1      -0.326  -5.644   3.233  0.00  0.00    +0.004 A 
ATOM     19  C   UNL     1      -0.505  -4.352   3.688  0.00  0.00    +0.046 A 
ATOM     20  C   UNL     1      -1.419  -3.517   3.060  0.00  0.00    +0.121 A 
BRANCH  20  21
ATOM     21  O   UNL     1      -1.593  -2.244   3.502  0.00  0.00    -0.506 OA
ATOM     22  H   UNL     1      -2.272  -2.153   4.184  0.00  0.00    +0.292 HD
ENDBRANCH  20  21
ENDBRANCH  11  15
BRANCH   2  23
ATOM     23  C   UNL     1      -2.037  -3.668  -2.304  0.00  0.00    -0.036 A 
ATOM     24  C   UNL     1      -2.931  -2.968  -3.092  0.00  0.00    +0.004 A 
ATOM     25  C   UNL     1      -2.602  -2.645  -4.395  0.00  0.00    +0.004 A 
ATOM     26  C   UNL     1      -1.378  -3.023  -4.913  0.00  0.00    +0.045 A 
ATOM     27  C   UNL     1      -0.479  -3.725  -4.125  0.00  0.00    +0.117 A 
ATOM     28  C   UNL     1      -0.809  -4.042  -2.815  0.00  0.00    +0.049 A 
BRANCH  27  29
ATOM     29  O   UNL     1       0.726  -4.098  -4.632  0.00  0.00    -0.507 OA
ATOM     30  H   UNL     1       1.426  -3.444  -4.502  0.00  0.00    +0.292 HD
ENDBRANCH  27  29
ENDBRANCH   2  23
BRANCH   1  31
ATOM     31  C   UNL     1      -1.396  -1.929  -0.008  0.00  0.00    +0.139 C 
ATOM     32  O   UNL     1      -0.325  -2.481  -0.085  0.00  0.00    -0.297 OA
BRANCH  31  33
ATOM     33  C   UNL     1      -1.461  -0.436   0.184  0.00  0.00    +0.077 C 
BRANCH  33  35
ATOM     34  C   UNL     1      -0.108   1.660   0.319  0.00  0.00    +0.007 C 
ATOM     35  C   UNL     1      -0.042   0.133   0.249  0.00  0.00    -0.010 C 
ATOM     36  C   UNL     1       0.666  -0.405   1.494  0.00  0.00    +0.007 C 
ENDBRANCH  33  35
ENDBRANCH  31  33
ENDBRANCH   1  31
TORSDOF 7
