REMARK  Name = ZINC01993126
REMARK  9 active torsions:
REMARK  status: ('A' for Active; 'I' for Inactive)
REMARK    1  A    between atoms: C_1  and  C_2
REMARK    2  A    between atoms: C_2  and  O_3
REMARK    3  A    between atoms: O_3  and  C_4
REMARK    4  A    between atoms: N_11  and  C_12
REMARK    5  A    between atoms: C_15  and  S_18
REMARK    6  A    between atoms: S_18  and  N_21
REMARK    7  A    between atoms: C_23  and  C_25
REMARK    8  A    between atoms: C_28  and  O_31
REMARK    9  A    between atoms: O_31  and  C_32
REMARK                            x       y       z     vdW  Elec       q    Type
REMARK                         _______ _______ _______ _____ _____    ______ ____
ROOT
ATOM      1  C   UNL     1      -9.040  -4.990  -0.044  0.00  0.00    +0.121 A 
ATOM      2  C   UNL     1      -9.574  -5.347  -1.278  0.00  0.00    +0.049 A 
ATOM      3  C   UNL     1      -9.044  -4.838  -2.445  0.00  0.00    +0.050 A 
ATOM      4  C   UNL     1      -7.968  -3.962  -2.396  0.00  0.00    +0.138 A 
ATOM      5  C   UNL     1      -7.428  -3.603  -1.152  0.00  0.00    +0.044 A 
ATOM      6  C   UNL     1      -7.967  -4.119   0.023  0.00  0.00    +0.059 A 
ATOM      7  C   UNL     1      -6.282  -2.668  -1.125  0.00  0.00    +0.054 A 
ATOM      8  N   UNL     1      -5.728  -2.290   0.017  0.00  0.00    -0.354 N 
ATOM      9  C   UNL     1      -5.803  -2.188  -2.373  0.00  0.00    +0.073 A 
ATOM     10  C   UNL     1      -6.397  -2.603  -3.521  0.00  0.00    +0.138 A 
ATOM     11  O   UNL     1      -7.438  -3.454  -3.530  0.00  0.00    -0.455 OA
ATOM     12  H   UNL     1      -6.060  -2.740   0.964  0.00  0.00    +0.166 HD
ENDROOT
BRANCH   8  13
ATOM     13  C   UNL     1      -4.746  -1.343   0.018  0.00  0.00    +0.040 A 
ATOM     14  C   UNL     1      -3.401  -1.726   0.001  0.00  0.00    +0.027 A 
ATOM     15  C   UNL     1      -2.413  -0.763   0.002  0.00  0.00    +0.030 A 
ATOM     16  C   UNL     1      -2.751   0.579   0.020  0.00  0.00    +0.105 A 
ATOM     17  C   UNL     1      -4.080   0.965   0.043  0.00  0.00    +0.030 A 
ATOM     18  C   UNL     1      -5.078   0.015   0.036  0.00  0.00    +0.027 A 
BRANCH  16  19
ATOM     19  S   UNL     1      -1.482   1.801   0.022  0.00  0.00    +0.056 S 
ATOM     20  O   UNL     1      -0.320   1.180   0.555  0.00  0.00    -0.153 OA
ATOM     21  O   UNL     1      -2.049   2.974   0.591  0.00  0.00    -0.153 OA
BRANCH  19  22
ATOM     22  N   UNL     1      -1.145   2.159  -1.560  0.00  0.00    -0.204 NA
ATOM     23  H   UNL     1      -0.354   2.922  -1.602  0.00  0.00    +0.144 HD
ATOM     24  H   UNL     1      -2.051   2.543  -2.050  0.00  0.00    +0.144 HD
ENDBRANCH  19  22
ENDBRANCH  16  19
ENDBRANCH   8  13
BRANCH  10  25
ATOM     25  C   UNL     1      -5.883  -2.098  -4.808  0.00  0.00    +0.018 A 
ATOM     26  C   UNL     1      -4.806  -1.207  -4.831  0.00  0.00    +0.015 A 
ATOM     27  C   UNL     1      -4.326  -0.741  -6.035  0.00  0.00    +0.046 A 
ATOM     28  C   UNL     1      -4.918  -1.147  -7.225  0.00  0.00    +0.120 A 
ATOM     29  C   UNL     1      -5.992  -2.028  -7.206  0.00  0.00    +0.046 A 
ATOM     30  C   UNL     1      -6.475  -2.503  -6.007  0.00  0.00    +0.015 A 
BRANCH  28  31
ATOM     31  O   UNL     1      -4.445  -0.681  -8.410  0.00  0.00    -0.495 OA
ATOM     32  C   UNL     1      -3.339   0.222  -8.357  0.00  0.00    +0.277 C 
ENDBRANCH  28  31
ENDBRANCH  10  25
BRANCH   1  33
ATOM     33  O   UNL     1      -9.572  -5.500   1.099  0.00  0.00    -0.492 OA
BRANCH  33  35
ATOM     34  C   UNL     1     -11.138  -6.859   2.340  0.00  0.00    +0.048 C 
ATOM     35  C   UNL     1     -10.678  -6.394   0.957  0.00  0.00    +0.225 C 
ENDBRANCH  33  35
ENDBRANCH   1  33
TORSDOF 7
