REMARK  Name = ZINC39326686
REMARK  11 active torsions:
REMARK  status: ('A' for Active; 'I' for Inactive)
REMARK    1  A    between atoms: C_1  and  C_2
REMARK    2  A    between atoms: C_7  and  C_8
REMARK    3  A    between atoms: C_11  and  C_14
REMARK    4  A    between atoms: C_14  and  O_16
REMARK    5  A    between atoms: O_16  and  C_17
REMARK    6  A    between atoms: C_21  and  C_29
REMARK    7  A    between atoms: C_23  and  C_27
REMARK    8  A    between atoms: C_24  and  N_26
REMARK    9  A    between atoms: C_32  and  C_35
REMARK   10  A    between atoms: C_35  and  O_37
REMARK   11  A    between atoms: O_37  and  C_38
REMARK                            x       y       z     vdW  Elec       q    Type
REMARK                         _______ _______ _______ _____ _____    ______ ____
ROOT
ATOM      1  C   UNL     1       0.203   1.653  -0.677  0.00  0.00    +0.109 C 
ATOM      2  C   UNL     1       0.256   0.148  -0.621  0.00  0.00    +0.213 C 
ATOM      3  O   UNL     1       1.312  -0.428  -0.770  0.00  0.00    -0.276 OA
ATOM      4  N   UNL     1      -0.872  -0.558  -0.405  0.00  0.00    -0.293 N 
ATOM      5  C   UNL     1      -2.172   0.116  -0.226  0.00  0.00    +0.147 C 
ATOM      6  C   UNL     1      -3.091  -0.453  -1.286  0.00  0.00    +0.013 C 
ATOM      7  C   UNL     1      -3.983   0.332  -1.919  0.00  0.00    +0.016 C 
ATOM      8  C   UNL     1      -2.986  -1.889  -1.607  0.00  0.00    +0.136 C 
ATOM      9  C   UNL     1      -1.952  -2.615  -1.182  0.00  0.00    +0.003 C 
ATOM     10  C   UNL     1      -0.850  -2.021  -0.345  0.00  0.00    +0.143 C 
ATOM     11  C   UNL     1      -1.851  -4.081  -1.535  0.00  0.00    +0.095 C 
ATOM     12  C   UNL     1      -3.192  -4.614  -1.951  0.00  0.00    +0.098 C 
ATOM     13  C   UNL     1      -4.180  -3.768  -2.336  0.00  0.00    +0.199 C 
ATOM     14  O   UNL     1      -3.979  -2.441  -2.353  0.00  0.00    -0.441 OA
ENDROOT
BRANCH   7  15
ATOM     15  C   UNL     1      -4.190   1.718  -1.472  0.00  0.00    -0.025 A 
ATOM     16  C   UNL     1      -4.522   2.712  -2.401  0.00  0.00    +0.009 A 
ATOM     17  C   UNL     1      -4.715   3.998  -1.986  0.00  0.00    +0.015 A 
ATOM     18  C   UNL     1      -4.580   4.323  -0.632  0.00  0.00    +0.059 A 
ATOM     19  C   UNL     1      -4.249   3.332   0.297  0.00  0.00    +0.015 A 
ATOM     20  C   UNL     1      -4.062   2.044  -0.116  0.00  0.00    +0.009 A 
BRANCH  18  21
ATOM     21  C   UNL     1      -4.788   5.713  -0.184  0.00  0.00    +0.339 C 
ATOM     22  O   UNL     1      -5.076   6.575  -0.991  0.00  0.00    -0.245 OA
BRANCH  21  23
ATOM     23  O   UNL     1      -4.659   6.027   1.120  0.00  0.00    -0.464 OA
ATOM     24  C   UNL     1      -4.875   7.392   1.483  0.00  0.00    +0.280 C 
ENDBRANCH  21  23
ENDBRANCH  18  21
ENDBRANCH   7  15
BRANCH  11  25
ATOM     25  C   UNL     1      -0.876  -4.253  -2.671  0.00  0.00    -0.035 A 
ATOM     26  C   UNL     1      -1.110  -3.624  -3.881  0.00  0.00    +0.005 A 
ATOM     27  C   UNL     1      -0.222  -3.777  -4.925  0.00  0.00    +0.015 A 
ATOM     28  C   UNL     1       0.915  -4.570  -4.759  0.00  0.00    +0.059 A 
ATOM     29  C   UNL     1       1.145  -5.202  -3.536  0.00  0.00    +0.015 A 
ATOM     30  C   UNL     1       0.252  -5.036  -2.498  0.00  0.00    +0.005 A 
BRANCH  28  31
ATOM     31  C   UNL     1       1.871  -4.740  -5.873  0.00  0.00    +0.339 C 
ATOM     32  O   UNL     1       1.668  -4.189  -6.936  0.00  0.00    -0.245 OA
BRANCH  31  33
ATOM     33  O   UNL     1       2.967  -5.505  -5.710  0.00  0.00    -0.464 OA
ATOM     34  C   UNL     1       3.848  -5.625  -6.829  0.00  0.00    +0.280 C 
ENDBRANCH  31  33
ENDBRANCH  28  31
ENDBRANCH  11  25
BRANCH  13  35
ATOM     35  N   UNL     1      -5.399  -4.275  -2.712  0.00  0.00    -0.328 N 
ATOM     36  H   UNL     1      -5.551  -5.233  -2.700  0.00  0.00    +0.145 HD
ATOM     37  H   UNL     1      -6.110  -3.675  -2.988  0.00  0.00    +0.145 HD
ENDBRANCH  13  35
BRANCH  12  38
ATOM     38  C   UNL     1      -3.429  -6.026  -1.942  0.00  0.00    +0.101 C 
ATOM     39  N   UNL     1      -3.617  -7.147  -1.934  0.00  0.00    -0.191 NA
ENDBRANCH  12  38
TORSDOF 8
