REMARK  Name = ZINC48324300
REMARK  6 active torsions:
REMARK  status: ('A' for Active; 'I' for Inactive)
REMARK    1  A    between atoms: C_4  and  S_22
REMARK    2  A    between atoms: C_5  and  N_7
REMARK    3  A    between atoms: N_7  and  C_8
REMARK    4  A    between atoms: C_8  and  C_9
REMARK    5  A    between atoms: C_12  and  N_15
REMARK    6  A    between atoms: S_22  and  C_25
REMARK                            x       y       z     vdW  Elec       q    Type
REMARK                         _______ _______ _______ _____ _____    ______ ____
ROOT
ATOM      1  N   UNL     1       1.238  -2.077  -0.002  0.00  0.00    -0.338 N 
ATOM      2  H   UNL     1       2.086  -2.549  -0.003  0.00  0.00    +0.146 HD
ENDROOT
BRANCH   1   7
ATOM      3  C   UNL     1      -0.017   1.377   0.021  0.00  0.00    +0.002 A 
ATOM      4  C   UNL     1       1.171   2.086   0.031  0.00  0.00    +0.002 A 
ATOM      5  C   UNL     1       2.380   1.415   0.030  0.00  0.00    +0.029 A 
ATOM      6  C   UNL     1       2.406   0.035   0.019  0.00  0.00    +0.118 A 
ATOM      7  C   UNL     1       1.216  -0.681   0.009  0.00  0.00    +0.053 A 
ATOM      8  C   UNL     1       0.002  -0.004   0.010  0.00  0.00    +0.025 A 
BRANCH   6   9
ATOM      9  S   UNL     1       3.948  -0.819   0.016  0.00  0.00    +0.093 S 
ATOM     10  O   UNL     1       3.850  -1.742  -1.060  0.00  0.00    -0.161 OA
ATOM     11  O   UNL     1       4.930   0.208   0.003  0.00  0.00    -0.161 OA
BRANCH   9  12
ATOM     12  C   UNL     1       3.992  -1.705   1.598  0.00  0.00    +0.526 C 
ATOM     13  F   UNL     1       2.911  -2.591   1.667  0.00  0.00    -0.150 F 
ATOM     14  F   UNL     1       5.189  -2.423   1.697  0.00  0.00    -0.150 F 
ATOM     15  F   UNL     1       3.911  -0.787   2.650  0.00  0.00    -0.150 F 
ENDBRANCH   9  12
ENDBRANCH   6   9
ENDBRANCH   1   7
BRANCH   1  16
ATOM     16  C   UNL     1      -0.019  -2.830  -0.012  0.00  0.00    +0.137 C 
BRANCH  16  17
ATOM     17  C   UNL     1       0.281  -4.307  -0.023  0.00  0.00    -0.030 A 
ATOM     18  C   UNL     1       0.427  -4.973  -1.227  0.00  0.00    +0.007 A 
ATOM     19  C   UNL     1       0.702  -6.326  -1.240  0.00  0.00    +0.023 A 
ATOM     20  C   UNL     1       0.830  -7.019  -0.043  0.00  0.00    +0.030 A 
ATOM     21  C   UNL     1       0.682  -6.348   1.164  0.00  0.00    +0.023 A 
ATOM     22  C   UNL     1       0.414  -4.993   1.170  0.00  0.00    +0.007 A 
BRANCH  20  23
ATOM     23  N   UNL     1       1.107  -8.388  -0.053  0.00  0.00    -0.320 N 
ATOM     24  C   UNL     1       1.367  -9.126   1.194  0.00  0.00    +0.124 C 
ATOM     25  C   UNL     1       0.291 -10.203   1.345  0.00  0.00    +0.123 C 
ATOM     26  N   UNL     1       0.108 -10.930   0.096  0.00  0.00    -0.313 N 
ATOM     27  C   UNL     1       0.446 -10.464  -1.107  0.00  0.00    +0.230 C 
ATOM     28  O   UNL     1       0.172 -11.130  -2.083  0.00  0.00    -0.274 OA
ATOM     29  C   UNL     1       1.145  -9.152  -1.309  0.00  0.00    +0.200 C 
ATOM     30  H   UNL     1      -0.286 -11.815   0.143  0.00  0.00    +0.149 HD
ENDBRANCH  20  23
ENDBRANCH  16  17
ENDBRANCH   1  16
TORSDOF 6
