REMARK  Name = ZINC51678274
REMARK  6 active torsions:
REMARK  status: ('A' for Active; 'I' for Inactive)
REMARK    1  A    between atoms: C_1  and  C_2
REMARK    2  A    between atoms: C_2  and  C_3
REMARK    3  A    between atoms: C_2  and  C_4
REMARK    4  A    between atoms: C_4  and  C_6
REMARK    5  A    between atoms: C_4  and  N_16
REMARK    6  A    between atoms: C_23  and  C_26
REMARK                            x       y       z     vdW  Elec       q    Type
REMARK                         _______ _______ _______ _____ _____    ______ ____
ROOT
ATOM      1  N   UNL     1      -2.138  -0.047  -1.175  0.00  0.00    -0.292 N 
ATOM      2  C   UNL     1      -2.727   1.166  -1.160  0.00  0.00    +0.303 C 
ATOM      3  O   UNL     1      -2.749   1.818  -0.134  0.00  0.00    -0.253 OA
ATOM      4  N   UNL     1      -3.291   1.655  -2.282  0.00  0.00    -0.280 N 
ATOM      5  C   UNL     1      -3.833   3.022  -2.323  0.00  0.00    +0.137 C 
ATOM      6  C   UNL     1      -5.258   2.961  -2.885  0.00  0.00    +0.180 C 
ATOM      7  O   UNL     1      -5.246   2.245  -4.123  0.00  0.00    -0.364 OA
ATOM      8  C   UNL     1      -4.830   0.882  -4.006  0.00  0.00    +0.221 C 
ATOM      9  C   UNL     1      -3.378   0.839  -3.504  0.00  0.00    +0.150 C 
ATOM     10  H   UNL     1      -2.187  -0.600  -1.970  0.00  0.00    +0.151 HD
ENDROOT
BRANCH   8  11
ATOM     11  C   UNL     1      -4.915   0.213  -5.354  0.00  0.00    +0.241 C 
ATOM     12  O   UNL     1      -5.207   0.862  -6.336  0.00  0.00    -0.273 OA
ATOM     13  N   UNL     1      -4.667  -1.107  -5.468  0.00  0.00    -0.327 N 
ATOM     14  H   UNL     1      -4.434  -1.626  -4.683  0.00  0.00    +0.145 HD
ATOM     15  H   UNL     1      -4.722  -1.538  -6.336  0.00  0.00    +0.145 HD
ENDBRANCH   8  11
BRANCH   1  16
ATOM     16  C   UNL     1      -1.425  -0.529   0.010  0.00  0.00    +0.107 C 
BRANCH  16  17
ATOM     17  C   UNL     1      -1.400  -2.036   0.003  0.00  0.00    -0.023 A 
ATOM     18  C   UNL     1      -1.190  -2.717  -1.182  0.00  0.00    +0.009 A 
ATOM     19  C   UNL     1      -1.167  -4.098  -1.194  0.00  0.00    +0.050 A 
ATOM     20  C   UNL     1      -1.356  -4.806  -0.016  0.00  0.00    +0.162 A 
ATOM     21  C   UNL     1      -1.565  -4.122   1.176  0.00  0.00    +0.162 A 
ATOM     22  C   UNL     1      -1.582  -2.735   1.181  0.00  0.00    +0.055 A 
ATOM     23  O   UNL     1      -1.745  -4.796   2.344  0.00  0.00    -0.485 OA
ATOM     24  C   UNL     1      -2.087  -6.183   2.241  0.00  0.00    +0.270 C 
ATOM     25  C   UNL     1      -1.153  -6.833   1.211  0.00  0.00    +0.270 C 
ATOM     26  O   UNL     1      -1.336  -6.167  -0.043  0.00  0.00    -0.485 OA
ENDBRANCH  16  17
BRANCH  16  28
ATOM     27  C   UNL     1      -0.017   1.534   0.003  0.00  0.00    +0.009 C 
ATOM     28  C   UNL     1       0.009   0.005  -0.005  0.00  0.00    +0.008 C 
ATOM     29  C   UNL     1       0.754  -0.499   1.233  0.00  0.00    +0.009 C 
ENDBRANCH  16  28
ENDBRANCH   1  16
TORSDOF 4
