REMARK  Name = ZINC60265236
REMARK  7 active torsions:
REMARK  status: ('A' for Active; 'I' for Inactive)
REMARK    1  A    between atoms: C_1  and  C_2
REMARK    2  A    between atoms: C_5  and  C_7
REMARK    3  A    between atoms: N_9  and  C_10
REMARK    4  A    between atoms: C_16  and  C_18
REMARK    5  A    between atoms: C_18  and  C_20
REMARK    6  A    between atoms: C_18  and  S_26
REMARK    7  A    between atoms: S_26  and  C_27
REMARK                            x       y       z     vdW  Elec       q    Type
REMARK                         _______ _______ _______ _____ _____    ______ ____
ROOT
ATOM      1  C   UNL     1       2.984  -5.457  -0.043  0.00  0.00    +0.076 C 
ATOM      2  C   UNL     1       3.072  -5.985   1.391  0.00  0.00    +0.041 C 
ATOM      3  C   UNL     1       3.637  -7.409   1.373  0.00  0.00    +0.109 C 
ATOM      4  N   UNL     1       4.918  -7.400   0.654  0.00  0.00    -0.300 N 
ATOM      5  C   UNL     1       4.964  -6.831  -0.700  0.00  0.00    +0.109 C 
ATOM      6  C   UNL     1       4.384  -5.414  -0.659  0.00  0.00    +0.041 C 
ATOM      7  C   UNL     1       6.029  -7.905   1.225  0.00  0.00    +0.233 C 
ATOM      8  O   UNL     1       5.978  -8.371   2.344  0.00  0.00    -0.274 OA
ENDROOT
BRANCH   1  11
ATOM      9  C   UNL     1       1.076  -3.942  -0.025  0.00  0.00    +0.251 C 
ATOM     10  O   UNL     1       0.342  -4.913  -0.028  0.00  0.00    -0.270 OA
ATOM     11  N   UNL     1       2.413  -4.108  -0.033  0.00  0.00    -0.308 N 
ATOM     12  H   UNL     1       2.998  -3.334  -0.031  0.00  0.00    +0.149 HD
BRANCH   9  17
ATOM     13  C   UNL     1      -0.018   1.503   0.010  0.00  0.00    +0.051 C 
ATOM     14  C   UNL     1       0.002  -0.004   0.002  0.00  0.00    -0.013 A 
ATOM     15  C   UNL     1      -1.056  -0.852   0.002  0.00  0.00    +0.011 A 
ATOM     16  C   UNL     1      -0.827  -2.207  -0.007  0.00  0.00    +0.021 A 
ATOM     17  C   UNL     1       0.505  -2.592  -0.015  0.00  0.00    +0.074 A 
ATOM     18  S   UNL     1       1.341  -1.018  -0.017  0.00  0.00    -0.089 S 
ENDBRANCH   9  17
ENDBRANCH   1  11
BRANCH   7  19
ATOM     19  C   UNL     1       7.336  -7.889   0.474  0.00  0.00    +0.167 C 
BRANCH  19  20
ATOM     20  C   UNL     1       7.366  -9.033  -0.506  0.00  0.00    -0.025 A 
ATOM     21  C   UNL     1       7.251 -10.334  -0.053  0.00  0.00    +0.005 A 
ATOM     22  C   UNL     1       7.279 -11.384  -0.952  0.00  0.00    +0.000 A 
ATOM     23  C   UNL     1       7.420 -11.132  -2.304  0.00  0.00    +0.000 A 
ATOM     24  C   UNL     1       7.534  -9.831  -2.757  0.00  0.00    +0.000 A 
ATOM     25  C   UNL     1       7.502  -8.781  -1.858  0.00  0.00    +0.005 A 
ENDBRANCH  19  20
BRANCH  19  26
ATOM     26  S   UNL     1       8.709  -8.061   1.647  0.00  0.00    -0.108 S 
BRANCH  26  27
ATOM     27  C   UNL     1      10.149  -7.877   0.647  0.00  0.00    +0.009 A 
ATOM     28  C   UNL     1      10.024  -7.650  -0.718  0.00  0.00    +0.015 A 
ATOM     29  C   UNL     1      11.154  -7.506  -1.498  0.00  0.00    +0.001 A 
ATOM     30  C   UNL     1      12.409  -7.588  -0.922  0.00  0.00    +0.000 A 
ATOM     31  C   UNL     1      12.537  -7.815   0.436  0.00  0.00    +0.001 A 
ATOM     32  C   UNL     1      11.411  -7.953   1.223  0.00  0.00    +0.015 A 
ENDBRANCH  26  27
ENDBRANCH  19  26
ENDBRANCH   7  19
TORSDOF 6
