REMARK  Name = ZINC42410836
REMARK  4 active torsions:
REMARK  status: ('A' for Active; 'I' for Inactive)
REMARK    1  A    between atoms: C_3  and  O_10
REMARK    2  A    between atoms: C_4  and  N_9
REMARK    3  A    between atoms: C_6  and  C_7
REMARK    4  A    between atoms: O_10  and  C_11
REMARK                            x       y       z     vdW  Elec       q    Type
REMARK                         _______ _______ _______ _____ _____    ______ ____
ROOT
ATOM      1  C   UNL     1      -0.041   1.524  -0.106  0.00  0.00    +0.022 A 
ATOM      2  C   UNL     1       1.169   2.186  -0.105  0.00  0.00    +0.049 A 
ATOM      3  C   UNL     1       2.355   1.470  -0.021  0.00  0.00    +0.151 A 
ATOM      4  C   UNL     1       2.328   0.077   0.063  0.00  0.00    +0.069 A 
ATOM      5  C   UNL     1       1.118  -0.592   0.062  0.00  0.00    +0.045 A 
ATOM      6  C   UNL     1      -0.076   0.131  -0.022  0.00  0.00    +0.054 A 
ENDROOT
BRANCH   4   7
ATOM      7  N   UNL     1       3.526  -0.642   0.147  0.00  0.00    -0.355 N 
ATOM      8  H   UNL     1       4.375  -0.172   0.147  0.00  0.00    +0.142 HD
ATOM      9  H   UNL     1       3.507  -1.610   0.205  0.00  0.00    +0.142 HD
ENDBRANCH   4   7
BRANCH   6  10
ATOM     10  C   UNL     1      -1.332  -0.557  -0.024  0.00  0.00    +0.099 C 
ATOM     11  N   UNL     1      -2.328  -1.103  -0.024  0.00  0.00    -0.191 NA
ENDBRANCH   6  10
BRANCH   3  12
ATOM     12  O   UNL     1       3.544   2.127  -0.020  0.00  0.00    -0.436 OA
BRANCH  12  13
ATOM     13  C   UNL     1       4.186   2.284  -1.205  0.00  0.00    +0.221 A 
ATOM     14  C   UNL     1       5.432   2.898  -1.237  0.00  0.00    +0.069 A 
ATOM     15  C   UNL     1       6.076   3.052  -2.452  0.00  0.00    +0.022 A 
ATOM     16  C   UNL     1       5.448   2.583  -3.599  0.00  0.00    +0.036 A 
ATOM     17  C   UNL     1       4.208   1.982  -3.493  0.00  0.00    +0.130 A 
ATOM     18  N   UNL     1       3.622   1.845  -2.318  0.00  0.00    -0.220 NA
ATOM     19 BR   UNL     1       6.280   2.766  -5.287  0.00  0.00    -0.049 Br
ENDBRANCH  12  13
ENDBRANCH   3  12
TORSDOF 4
