REMARK  Name = ZINC35636020
REMARK  11 active torsions:
REMARK  status: ('A' for Active; 'I' for Inactive)
REMARK    1  A    between atoms: C_1  and  C_2
REMARK    2  A    between atoms: C_2  and  N_3
REMARK    3  A    between atoms: C_6  and  C_11
REMARK    4  A    between atoms: N_20  and  C_22
REMARK    5  A    between atoms: C_22  and  C_24
REMARK    6  A    between atoms: C_22  and  C_31
REMARK    7  A    between atoms: C_24  and  C_25
REMARK    8  A    between atoms: N_33  and  C_34
REMARK    9  A    between atoms: C_34  and  C_35
REMARK   10  A    between atoms: C_35  and  C_36
REMARK   11  A    between atoms: C_35  and  C_37
REMARK                            x       y       z     vdW  Elec       q    Type
REMARK                         _______ _______ _______ _____ _____    ______ ____
ROOT
ATOM      1  N   UNL     1       0.688  -0.476  -1.203  0.00  0.00    -0.257 N 
ATOM      2  C   UNL     1      -0.057  -0.690  -2.328  0.00  0.00    +0.042 C 
ATOM      3  C   UNL     1       0.512  -1.125  -3.471  0.00  0.00    +0.058 C 
ATOM      4  C   UNL     1       2.007  -1.367  -3.465  0.00  0.00    +0.142 C 
ATOM      5  N   UNL     1       2.720  -1.107  -2.203  0.00  0.00    -0.288 N 
ATOM      6  C   UNL     1       2.012  -0.670  -1.144  0.00  0.00    +0.307 C 
ATOM      7  O   UNL     1       2.592  -0.448  -0.099  0.00  0.00    -0.252 OA
ATOM      8  C   UNL     1      -0.463  -1.267  -4.480  0.00  0.00    +0.247 C 
ATOM      9  O   UNL     1      -0.229  -1.644  -5.614  0.00  0.00    -0.270 OA
ATOM     10  N   UNL     1      -1.684  -0.932  -4.027  0.00  0.00    -0.280 N 
ATOM     11  C   UNL     1      -1.533  -0.536  -2.619  0.00  0.00    +0.160 C 
ATOM     12  H   UNL     1       3.679  -1.244  -2.137  0.00  0.00    +0.151 HD
ENDROOT
BRANCH   4  13
ATOM     13  C   UNL     1       2.623  -0.500  -4.533  0.00  0.00    -0.022 A 
ATOM     14  C   UNL     1       2.860   0.838  -4.284  0.00  0.00    +0.007 A 
ATOM     15  C   UNL     1       3.425   1.634  -5.263  0.00  0.00    +0.020 A 
ATOM     16  C   UNL     1       3.752   1.090  -6.493  0.00  0.00    +0.041 A 
ATOM     17  C   UNL     1       3.514  -0.250  -6.741  0.00  0.00    +0.020 A 
ATOM     18  C   UNL     1       2.955  -1.046  -5.760  0.00  0.00    +0.007 A 
ATOM     19 CL   UNL     1       4.461   2.089  -7.723  0.00  0.00    -0.084 Cl
ENDBRANCH   4  13
BRANCH   1  21
ATOM     20  C   UNL     1      -0.019   1.526   0.010  0.00  0.00    +0.025 C 
ATOM     21  C   UNL     1       0.002  -0.004   0.002  0.00  0.00    +0.111 C 
ENDBRANCH   1  21
BRANCH  10  22
ATOM     22  C   UNL     1      -2.932  -0.957  -4.793  0.00  0.00    +0.167 C 
BRANCH  22  23
ATOM     23  C   UNL     1      -3.196  -2.359  -5.280  0.00  0.00    +0.234 C 
ATOM     24  O   UNL     1      -2.417  -3.250  -5.012  0.00  0.00    -0.274 OA
ATOM     25  N   UNL     1      -4.296  -2.623  -6.012  0.00  0.00    -0.314 N 
ATOM     26  H   UNL     1      -4.918  -1.910  -6.226  0.00  0.00    +0.149 HD
BRANCH  25  27
ATOM     27  C   UNL     1      -4.552  -3.986  -6.484  0.00  0.00    +0.107 C 
BRANCH  27  28
ATOM     28  C   UNL     1      -5.855  -4.012  -7.285  0.00  0.00    -0.000 C 
ATOM     29  C   UNL     1      -6.059  -5.405  -7.883  0.00  0.00    +0.009 C 
ATOM     30  C   UNL     1      -7.028  -3.677  -6.361  0.00  0.00    +0.009 C 
ENDBRANCH  27  28
ENDBRANCH  25  27
ENDBRANCH  22  23
BRANCH  22  31
ATOM     31  C   UNL     1      -2.813  -0.015  -5.993  0.00  0.00    +0.067 C 
BRANCH  31  32
ATOM     32  C   UNL     1      -2.672   1.404  -5.506  0.00  0.00    -0.045 A 
ATOM     33  C   UNL     1      -3.798   2.178  -5.298  0.00  0.00    +0.004 A 
ATOM     34  C   UNL     1      -3.670   3.480  -4.851  0.00  0.00    +0.000 A 
ATOM     35  C   UNL     1      -2.414   4.007  -4.612  0.00  0.00    +0.000 A 
ATOM     36  C   UNL     1      -1.288   3.233  -4.819  0.00  0.00    +0.000 A 
ATOM     37  C   UNL     1      -1.417   1.930  -5.262  0.00  0.00    +0.004 A 
ENDBRANCH  31  32
ENDBRANCH  22  31
ENDBRANCH  10  22
TORSDOF 8
