REMARK  Name = ZINC35968564
REMARK  10 active torsions:
REMARK  status: ('A' for Active; 'I' for Inactive)
REMARK    1  A    between atoms: C_1  and  C_2
REMARK    2  A    between atoms: C_2  and  C_3
REMARK    3  A    between atoms: C_2  and  C_4
REMARK    4  A    between atoms: C_4  and  C_5
REMARK    5  A    between atoms: C_5  and  C_7
REMARK    6  A    between atoms: C_5  and  N_17
REMARK    7  A    between atoms: N_9  and  C_10
REMARK    8  A    between atoms: C_23  and  C_32
REMARK    9  A    between atoms: N_28  and  C_29
REMARK   10  A    between atoms: C_29  and  C_30
REMARK                            x       y       z     vdW  Elec       q    Type
REMARK                         _______ _______ _______ _____ _____    ______ ____
ROOT
ATOM      1  N   UNL     1      -0.875  -2.429  -1.431  0.00  0.00    -0.281 N 
ATOM      2  C   UNL     1       0.314  -3.255  -1.687  0.00  0.00    +0.160 C 
ATOM      3  C   UNL     1       0.424  -3.322  -3.194  0.00  0.00    +0.043 C 
ATOM      4  C   UNL     1      -0.607  -2.601  -3.682  0.00  0.00    +0.058 C 
ATOM      5  C   UNL     1      -1.380  -2.075  -2.627  0.00  0.00    +0.247 C 
ATOM      6  O   UNL     1      -2.374  -1.389  -2.779  0.00  0.00    -0.270 OA
ATOM      7  C   UNL     1      -0.743  -2.497  -5.188  0.00  0.00    +0.142 C 
ATOM      8  N   UNL     1       0.269  -3.195  -5.998  0.00  0.00    -0.288 N 
ATOM      9  C   UNL     1       1.242  -3.877  -5.363  0.00  0.00    +0.307 C 
ATOM     10  O   UNL     1       2.082  -4.456  -6.024  0.00  0.00    -0.252 OA
ATOM     11  N   UNL     1       1.315  -3.936  -4.027  0.00  0.00    -0.253 N 
ATOM     12  H   UNL     1       0.235  -3.165  -6.968  0.00  0.00    +0.151 HD
ENDROOT
BRANCH   7  13
ATOM     13  C   UNL     1      -0.706  -1.036  -5.557  0.00  0.00    -0.022 A 
ATOM     14  C   UNL     1       0.505  -0.375  -5.641  0.00  0.00    +0.007 A 
ATOM     15  C   UNL     1       0.540   0.965  -5.980  0.00  0.00    +0.020 A 
ATOM     16  C   UNL     1      -0.638   1.644  -6.235  0.00  0.00    +0.041 A 
ATOM     17  C   UNL     1      -1.850   0.982  -6.150  0.00  0.00    +0.020 A 
ATOM     18  C   UNL     1      -1.883  -0.359  -5.817  0.00  0.00    +0.007 A 
ATOM     19 CL   UNL     1      -0.595   3.327  -6.660  0.00  0.00    -0.084 Cl
ENDBRANCH   7  13
BRANCH   1  20
ATOM     20  C   UNL     1      -1.413  -2.063  -0.118  0.00  0.00    +0.163 C 
BRANCH  20  21
ATOM     21  C   UNL     1      -2.820  -2.588   0.012  0.00  0.00    +0.238 C 
ATOM     22  O   UNL     1      -3.323  -3.207  -0.902  0.00  0.00    -0.273 OA
ATOM     23  N   UNL     1      -3.518  -2.371   1.144  0.00  0.00    -0.284 N 
ATOM     24  H   UNL     1      -3.094  -1.935   1.899  0.00  0.00    +0.155 HD
BRANCH  23  25
ATOM     25  C   UNL     1      -4.857  -2.773   1.229  0.00  0.00    +0.034 A 
ATOM     26  C   UNL     1      -5.769  -2.008   1.944  0.00  0.00    +0.026 A 
ATOM     27  C   UNL     1      -7.088  -2.407   2.027  0.00  0.00    +0.040 A 
ATOM     28  C   UNL     1      -7.502  -3.569   1.398  0.00  0.00    +0.124 A 
ATOM     29  C   UNL     1      -6.594  -4.334   0.684  0.00  0.00    +0.040 A 
ATOM     30  C   UNL     1      -5.275  -3.935   0.594  0.00  0.00    +0.026 A 
ATOM     31  F   UNL     1      -8.793  -3.958   1.481  0.00  0.00    -0.205 F 
ENDBRANCH  23  25
ENDBRANCH  20  21
BRANCH  20  32
ATOM     32  C   UNL     1      -1.423  -0.540   0.023  0.00  0.00    +0.035 C 
BRANCH  32  34
ATOM     33  C   UNL     1       0.003   1.512   0.031  0.00  0.00    +0.007 C 
ATOM     34  C   UNL     1       0.016  -0.018   0.015  0.00  0.00    -0.015 C 
ATOM     35  C   UNL     1       0.752  -0.535   1.253  0.00  0.00    +0.007 C 
ENDBRANCH  32  34
ENDBRANCH  20  32
ENDBRANCH   1  20
BRANCH  11  36
ATOM     36  C   UNL     1       2.410  -4.702  -3.426  0.00  0.00    +0.141 C 
BRANCH  36  37
ATOM     37  C   UNL     1       1.974  -6.131  -3.228  0.00  0.00    -0.015 C 
ATOM     38  C   UNL     1       2.682  -7.108  -3.736  0.00  0.00    +0.005 C 
ENDBRANCH  36  37
ENDBRANCH  11  36
TORSDOF 8
