REMARK  Name = ZINC63204718
REMARK  11 active torsions:
REMARK  status: ('A' for Active; 'I' for Inactive)
REMARK    1  A    between atoms: C_1  and  C_2
REMARK    2  A    between atoms: C_6  and  S_8
REMARK    3  A    between atoms: S_8  and  N_11
REMARK    4  A    between atoms: N_11  and  C_12
REMARK    5  A    between atoms: C_12  and  C_14
REMARK    6  A    between atoms: C_12  and  C_24
REMARK    7  A    between atoms: C_14  and  C_15
REMARK    8  A    between atoms: C_24  and  O_26
REMARK    9  A    between atoms: O_26  and  C_27
REMARK   10  A    between atoms: C_27  and  C_28
REMARK   11  A    between atoms: C_28  and  C_30
REMARK                            x       y       z     vdW  Elec       q    Type
REMARK                         _______ _______ _______ _____ _____    ______ ____
ROOT
ATOM      1  C   UNL     1       2.489  -2.047   3.444  0.00  0.00    +0.189 C 
ENDROOT
BRANCH   1   2
ATOM      2  N   UNL     1       1.644  -3.200   3.123  0.00  0.00    -0.176 NA
ATOM      3  H   UNL     1       2.014  -4.096   3.154  0.00  0.00    +0.149 HD
BRANCH   2   4
ATOM      4  S   UNL     1       0.057  -2.973   2.709  0.00  0.00    +0.059 S 
ATOM      5  O   UNL     1      -0.500  -2.110   3.691  0.00  0.00    -0.153 OA
ATOM      6  O   UNL     1      -0.479  -4.260   2.433  0.00  0.00    -0.153 OA
BRANCH   4  12
ATOM      7  C   UNL     1      -0.018   1.503   0.010  0.00  0.00    +0.044 C 
ATOM      8  C   UNL     1       0.002  -0.004   0.002  0.00  0.00    -0.049 A 
ATOM      9  C   UNL     1       0.006  -0.689  -1.199  0.00  0.00    +0.003 A 
ATOM     10  C   UNL     1       0.025  -2.071  -1.207  0.00  0.00    +0.002 A 
ATOM     11  C   UNL     1       0.040  -2.768  -0.013  0.00  0.00    +0.028 A 
ATOM     12  C   UNL     1       0.037  -2.084   1.188  0.00  0.00    +0.106 A 
ATOM     13  C   UNL     1       0.023  -0.702   1.195  0.00  0.00    +0.032 A 
ENDBRANCH   4  12
ENDBRANCH   2   4
ENDBRANCH   1   2
BRANCH   1  14
ATOM     14  C   UNL     1       3.893  -2.303   2.959  0.00  0.00    +0.327 C 
ATOM     15  O   UNL     1       4.260  -3.433   2.740  0.00  0.00    -0.249 OA
BRANCH  14  16
ATOM     16  O   UNL     1       4.735  -1.275   2.771  0.00  0.00    -0.455 OA
BRANCH  16  17
ATOM     17  C   UNL     1       6.051  -1.591   2.310  0.00  0.00    +0.311 C 
BRANCH  17  18
ATOM     18  C   UNL     1       6.848  -0.321   2.158  0.00  0.00    +0.200 C 
ATOM     19  O   UNL     1       6.340   0.749   2.418  0.00  0.00    -0.288 OA
BRANCH  18  20
ATOM     20  C   UNL     1       8.242  -0.379   1.694  0.00  0.00    +0.024 A 
ATOM     21  C   UNL     1       8.829  -1.612   1.387  0.00  0.00    +0.014 A 
ATOM     22  C   UNL     1      10.135  -1.661   0.952  0.00  0.00    +0.042 A 
ATOM     23  C   UNL     1      10.869  -0.492   0.818  0.00  0.00    +0.158 A 
ATOM     24  C   UNL     1      10.294   0.735   1.121  0.00  0.00    +0.159 A 
ATOM     25  C   UNL     1       8.984   0.798   1.551  0.00  0.00    +0.052 A 
ATOM     26  F   UNL     1      11.015   1.870   0.988  0.00  0.00    -0.202 F 
ATOM     27  F   UNL     1      12.150  -0.547   0.391  0.00  0.00    -0.202 F 
ENDBRANCH  18  20
ENDBRANCH  17  18
ENDBRANCH  16  17
ENDBRANCH  14  16
ENDBRANCH   1  14
BRANCH   1  28
ATOM     28  C   UNL     1       2.504  -1.831   4.959  0.00  0.00    +0.065 C 
BRANCH  28  29
ATOM     29  C   UNL     1       1.121  -1.454   5.426  0.00  0.00    -0.039 C 
ATOM     30  C   UNL     1       0.176  -2.285   5.922  0.00  0.00    -0.001 A 
ATOM     31  C   UNL     1       0.153  -3.733   6.165  0.00  0.00    +0.010 A 
ATOM     32  C   UNL     1      -0.964  -4.293   6.683  0.00  0.00    +0.001 A 
ATOM     33  C   UNL     1      -2.097  -3.528   6.992  0.00  0.00    +0.002 A 
ATOM     34  C   UNL     1      -2.151  -2.193   6.796  0.00  0.00    +0.026 A 
ATOM     35  C   UNL     1      -1.033  -1.500   6.258  0.00  0.00    +0.043 A 
ATOM     36  N   UNL     1      -0.843  -0.233   5.979  0.00  0.00    -0.380 N 
ATOM     37  C   UNL     1       0.512  -0.070   5.441  0.00  0.00    +0.144 C 
ATOM     38  H   UNL     1      -1.489   0.479   6.111  0.00  0.00    +0.160 HD
ENDBRANCH  28  29
ENDBRANCH   1  28
TORSDOF 10
