REMARK  Name = ZINC03132164
REMARK  6 active torsions:
REMARK  status: ('A' for Active; 'I' for Inactive)
REMARK    1  A    between atoms: C_1  and  C_2
REMARK    2  A    between atoms: C_5  and  S_8
REMARK    3  A    between atoms: S_8  and  N_11
REMARK    4  A    between atoms: N_11  and  N_12
REMARK    5  A    between atoms: C_16  and  C_19
REMARK    6  A    between atoms: C_16  and  C_20
REMARK                            x       y       z     vdW  Elec       q    Type
REMARK                         _______ _______ _______ _____ _____    ______ ____
ROOT
ATOM      1  N   UNL     1      -4.674   2.785   1.280  0.00  0.00    -0.136 N 
ATOM      2  H   UNL     1      -4.184   2.725   2.114  0.00  0.00    +0.197 HD
ENDROOT
BRANCH   1   3
ATOM      3  N   UNL     1      -3.991   2.711   0.059  0.00  0.00    -0.167 NA
ATOM      4  C   UNL     1      -2.690   2.560   0.044  0.00  0.00    +0.083 C 
ATOM      5  C   UNL     1      -1.943   2.478  -1.230  0.00  0.00    +0.026 C 
ATOM      6  C   UNL     1      -0.708   2.004  -1.228  0.00  0.00    -0.014 C 
ATOM      7  C   UNL     1      -0.019   1.526   0.010  0.00  0.00    +0.002 C 
ATOM      8  C   UNL     1      -0.684   1.991   1.267  0.00  0.00    -0.014 C 
ATOM      9  C   UNL     1      -1.917   2.465   1.301  0.00  0.00    +0.026 C 
ATOM     10  C   UNL     1       0.002  -0.004   0.002  0.00  0.00    +0.019 C 
ATOM     11  C   UNL     1       1.423   2.037  -0.001  0.00  0.00    +0.019 C 
ENDBRANCH   1   3
BRANCH   1  12
ATOM     12  S   UNL     1      -6.319   2.976   1.298  0.00  0.00    +0.086 S 
ATOM     13  O   UNL     1      -6.725   2.871   2.656  0.00  0.00    -0.149 OA
ATOM     14  O   UNL     1      -6.604   4.120   0.504  0.00  0.00    -0.149 OA
BRANCH  12  19
ATOM     15  C   UNL     1      -8.698  -1.760  -1.584  0.00  0.00    +0.044 C 
ATOM     16  C   UNL     1      -8.104  -0.577  -0.864  0.00  0.00    -0.050 A 
ATOM     17  C   UNL     1      -7.889  -0.635   0.500  0.00  0.00    +0.005 A 
ATOM     18  C   UNL     1      -7.344   0.450   1.160  0.00  0.00    +0.029 A 
ATOM     19  C   UNL     1      -7.013   1.593   0.456  0.00  0.00    +0.110 A 
ATOM     20  C   UNL     1      -7.233   1.653  -0.907  0.00  0.00    +0.029 A 
ATOM     21  C   UNL     1      -7.774   0.566  -1.568  0.00  0.00    +0.005 A 
ENDBRANCH  12  19
ENDBRANCH   1  12
TORSDOF 3
