REMARK  Name = ZINC20931042
REMARK  5 active torsions:
REMARK  status: ('A' for Active; 'I' for Inactive)
REMARK    1  A    between atoms: C_10  and  C_13
REMARK    2  A    between atoms: C_13  and  C_14
REMARK    3  A    between atoms: N_16  and  C_17
REMARK    4  A    between atoms: C_17  and  C_18
REMARK    5  A    between atoms: C_18  and  N_24
REMARK                            x       y       z     vdW  Elec       q    Type
REMARK                         _______ _______ _______ _____ _____    ______ ____
ROOT
ATOM      1  C   UNL     1      -2.837   0.559   1.494  0.00  0.00    +0.217 C 
ATOM      2  O   UNL     1      -2.752   1.451   0.677  0.00  0.00    -0.276 OA
ATOM      3  N   UNL     1      -2.191  -0.606   1.291  0.00  0.00    -0.316 N 
ATOM      4  H   UNL     1      -2.265  -1.413   2.035  0.00  0.00    +0.149 HD
ENDROOT
BRANCH   1   5
ATOM      5  C   UNL     1      -3.661   0.756   2.741  0.00  0.00    +0.150 C 
BRANCH   5  15
ATOM      6  C   UNL     1      -1.442   3.734   6.457  0.00  0.00    +0.002 A 
ATOM      7  C   UNL     1      -0.715   3.905   5.293  0.00  0.00    +0.004 A 
ATOM      8  C   UNL     1      -1.312   3.696   4.063  0.00  0.00    +0.047 A 
ATOM      9  C   UNL     1      -2.641   3.314   3.996  0.00  0.00    +0.143 A 
ATOM     10  C   UNL     1      -3.369   3.130   5.170  0.00  0.00    +0.076 A 
ATOM     11  C   UNL     1      -2.768   3.346   6.399  0.00  0.00    +0.027 A 
ATOM     12  N   UNL     1      -4.709   2.724   5.093  0.00  0.00    -0.280 N 
ATOM     13  C   UNL     1      -5.204   2.307   3.909  0.00  0.00    +0.259 C 
ATOM     14  O   UNL     1      -6.386   2.056   3.798  0.00  0.00    -0.271 OA
ATOM     15  C   UNL     1      -4.283   2.154   2.725  0.00  0.00    +0.268 C 
ATOM     16  O   UNL     1      -3.247   3.136   2.792  0.00  0.00    -0.477 OA
ATOM     17  H   UNL     1      -5.343   2.747   5.992  0.00  0.00    +0.155 HD
ENDBRANCH   5  15
ENDBRANCH   1   5
BRANCH   3  18
ATOM     18  C   UNL     1      -1.391  -0.798   0.079  0.00  0.00    +0.092 C 
BRANCH  18  19
ATOM     19  C   UNL     1      -0.845  -2.227   0.050  0.00  0.00    -0.050 C 
ATOM     20  C   UNL     1       0.100  -2.387  -1.143  0.00  0.00    -0.010 C 
ATOM     21  C   UNL     1      -0.663  -2.106  -2.439  0.00  0.00    -0.001 C 
ATOM     22  C   UNL     1      -1.825  -3.093  -2.572  0.00  0.00    -0.000 C 
ATOM     23  C   UNL     1      -2.769  -2.932  -1.379  0.00  0.00    -0.001 C 
ATOM     24  C   UNL     1      -2.006  -3.214  -0.083  0.00  0.00    -0.010 C 
BRANCH  19  25
ATOM     25  N   UNL     1      -0.112  -2.497   1.294  0.00  0.00    +0.384 N 
ATOM     26  C   UNL     1       0.969  -1.523   1.490  0.00  0.00    -0.078 C 
ATOM     27  C   UNL     1       1.614  -1.744   2.860  0.00  0.00    -0.019 C 
ATOM     28  C   UNL     1       2.167  -3.170   2.934  0.00  0.00    -0.004 C 
ATOM     29  C   UNL     1       1.031  -4.164   2.678  0.00  0.00    -0.019 C 
ATOM     30  C   UNL     1       0.402  -3.872   1.314  0.00  0.00    -0.078 C 
ATOM     31  H   UNL     1      -0.816  -2.390   2.132  0.00  0.00    -0.081 HD
ENDBRANCH  19  25
ENDBRANCH  18  19
ENDBRANCH   3  18
TORSDOF 5
