REMARK  Name = ZINC14475864
REMARK  8 active torsions:
REMARK  status: ('A' for Active; 'I' for Inactive)
REMARK    1  A    between atoms: C_1  and  C_2
REMARK    2  A    between atoms: C_4  and  C_38
REMARK    3  A    between atoms: C_6  and  N_8
REMARK    4  A    between atoms: N_8  and  S_9
REMARK    5  A    between atoms: S_9  and  C_12
REMARK    6  A    between atoms: C_25  and  C_28
REMARK    7  A    between atoms: C_30  and  N_35
REMARK    8  A    between atoms: C_33  and  O_34
REMARK                            x       y       z     vdW  Elec       q    Type
REMARK                         _______ _______ _______ _____ _____    ______ ____
ROOT
ATOM      1  C   UNL     1       0.394  -0.645   4.071  0.00  0.00    +0.109 A 
ATOM      2  C   UNL     1       0.735   0.494   3.365  0.00  0.00    +0.030 A 
ATOM      3  C   UNL     1       0.232   1.719   3.754  0.00  0.00    +0.025 A 
ATOM      4  C   UNL     1      -0.618   1.808   4.853  0.00  0.00    +0.031 A 
ATOM      5  C   UNL     1      -0.968   0.668   5.553  0.00  0.00    -0.018 A 
ATOM      6  C   UNL     1      -0.457  -0.559   5.155  0.00  0.00    +0.034 A 
ATOM      7  C   UNL     1      -1.909   0.702   6.724  0.00  0.00    +0.049 C 
ATOM      8  C   UNL     1      -2.986  -0.344   6.486  0.00  0.00    -0.023 C 
ATOM      9  C   UNL     1      -4.090   0.218   6.068  0.00  0.00    -0.030 C 
ATOM     10  C   UNL     1      -3.930   1.721   5.973  0.00  0.00    +0.033 C 
ATOM     11  C   UNL     1      -2.670   2.020   6.845  0.00  0.00    +0.029 C 
ATOM     12  C   UNL     1      -1.931   3.249   6.407  0.00  0.00    +0.108 C 
ATOM     13  N   UNL     1      -1.099   3.056   5.235  0.00  0.00    -0.336 N 
ATOM     14  H   UNL     1      -0.848   3.832   4.709  0.00  0.00    +0.147 HD
ENDROOT
BRANCH  12  15
ATOM     15  C   UNL     1      -2.939   4.319   6.075  0.00  0.00    +0.017 A 
ATOM     16  C   UNL     1      -3.363   4.490   4.772  0.00  0.00    +0.041 A 
ATOM     17  C   UNL     1      -4.288   5.471   4.467  0.00  0.00    +0.127 A 
ATOM     18  C   UNL     1      -4.792   6.284   5.466  0.00  0.00    +0.036 A 
ATOM     19  C   UNL     1      -4.371   6.117   6.772  0.00  0.00    +0.048 A 
ATOM     20  C   UNL     1      -3.447   5.129   7.080  0.00  0.00    +0.122 A 
BRANCH  17  21
ATOM     21  N   UNL     1      -4.740   5.653   3.070  0.00  0.00    +0.056 N 
ATOM     22  O   UNL     1      -4.300   4.943   2.195  0.00  0.00    -0.126 OA
ATOM     23  O   UNL     1      -5.549   6.511   2.802  0.00  0.00    -0.126 OA
ENDBRANCH  17  21
BRANCH  20  24
ATOM     24  O   UNL     1      -3.036   4.960   8.364  0.00  0.00    -0.506 OA
ATOM     25  H   UNL     1      -2.261   5.487   8.602  0.00  0.00    +0.292 HD
ENDBRANCH  20  24
ENDBRANCH  12  15
BRANCH   1  26
ATOM     26  S   UNL     1       1.040  -2.209   3.582  0.00  0.00    +0.072 S 
ATOM     27  O   UNL     1       0.887  -3.078   4.696  0.00  0.00    -0.150 OA
ATOM     28  O   UNL     1       2.302  -1.957   2.980  0.00  0.00    -0.150 OA
BRANCH  26  29
ATOM     29  N   UNL     1       0.054  -2.794   2.387  0.00  0.00    -0.216 N 
ATOM     30  H   UNL     1       0.412  -2.960   1.501  0.00  0.00    +0.174 HD
BRANCH  29  36
ATOM     31  C   UNL     1      -3.381  -4.736   5.317  0.00  0.00    +0.044 C 
ATOM     32  C   UNL     1      -2.987  -3.989   4.069  0.00  0.00    -0.048 A 
ATOM     33  C   UNL     1      -3.961  -3.556   3.187  0.00  0.00    +0.006 A 
ATOM     34  C   UNL     1      -3.604  -2.871   2.040  0.00  0.00    -0.048 A 
ATOM     35  C   UNL     1      -2.273  -2.617   1.772  0.00  0.00    +0.028 A 
ATOM     36  C   UNL     1      -1.293  -3.050   2.656  0.00  0.00    +0.049 A 
ATOM     37  C   UNL     1      -1.655  -3.733   3.809  0.00  0.00    +0.028 A 
ATOM     38  C   UNL     1      -4.668  -2.402   1.082  0.00  0.00    +0.044 C 
ENDBRANCH  29  36
ENDBRANCH  26  29
ENDBRANCH   1  26
TORSDOF 6
