REMARK  Name = ZINC35405231
REMARK  14 active torsions:
REMARK  status: ('A' for Active; 'I' for Inactive)
REMARK    1  A    between atoms: C_1  and  C_2
REMARK    2  A    between atoms: C_2  and  C_3
REMARK    3  A    between atoms: C_3  and  C_5
REMARK    4  A    between atoms: C_3  and  C_6
REMARK    5  A    between atoms: C_6  and  N_7
REMARK    6  A    between atoms: N_7  and  C_8
REMARK    7  A    between atoms: C_8  and  C_9
REMARK    8  A    between atoms: N_11  and  C_12
REMARK    9  A    between atoms: N_11  and  C_22
REMARK   10  A    between atoms: C_12  and  C_13
REMARK   11  A    between atoms: C_22  and  C_23
REMARK   12  A    between atoms: C_24  and  C_28
REMARK   13  A    between atoms: N_31  and  C_32
REMARK   14  A    between atoms: C_37  and  C_38
REMARK                            x       y       z     vdW  Elec       q    Type
REMARK                         _______ _______ _______ _____ _____    ______ ____
ROOT
ATOM      1  C   UNL     1       2.605  -3.617  -1.076  0.00  0.00    +0.234 C 
ATOM      2  O   UNL     1       1.725  -4.349  -0.674  0.00  0.00    -0.274 OA
ATOM      3  N   UNL     1       3.895  -3.913  -0.824  0.00  0.00    -0.291 N 
ENDROOT
BRANCH   1   4
ATOM      4  C   UNL     1       2.255  -2.377  -1.858  0.00  0.00    +0.205 C 
BRANCH   4   5
ATOM      5  N   UNL     1       0.800  -2.280  -1.996  0.00  0.00    -0.276 N 
ATOM      6  C   UNL     1       0.184  -2.846  -3.053  0.00  0.00    +0.307 C 
ATOM      7  O   UNL     1       0.837  -3.437  -3.891  0.00  0.00    -0.252 OA
ATOM      8  N   UNL     1      -1.155  -2.758  -3.179  0.00  0.00    -0.269 N 
ATOM      9  H   UNL     1      -1.669  -2.236  -2.544  0.00  0.00    +0.156 HD
BRANCH   8  10
ATOM     10  C   UNL     1      -1.803  -3.419  -4.229  0.00  0.00    +0.038 A 
ATOM     11  C   UNL     1      -1.120  -3.692  -5.407  0.00  0.00    +0.023 A 
ATOM     12  C   UNL     1      -1.763  -4.345  -6.440  0.00  0.00    +0.002 A 
ATOM     13  C   UNL     1      -3.086  -4.726  -6.303  0.00  0.00    +0.000 A 
ATOM     14  C   UNL     1      -3.768  -4.455  -5.132  0.00  0.00    +0.005 A 
ATOM     15  C   UNL     1      -3.129  -3.807  -4.092  0.00  0.00    -0.029 A 
ATOM     16  C   UNL     1      -3.872  -3.518  -2.813  0.00  0.00    +0.045 C 
ENDBRANCH   8  10
BRANCH   5  17
ATOM     17  C   UNL     1       0.014  -1.569  -0.985  0.00  0.00    +0.113 C 
BRANCH  17  18
ATOM     18  C   UNL     1      -0.108  -0.095  -1.378  0.00  0.00    +0.003 C 
ATOM     19  C   UNL     1      -0.913   0.022  -2.674  0.00  0.00    +0.009 C 
BRANCH  18  21
ATOM     20  C   UNL     1      -0.832   2.166  -0.599  0.00  0.00    +0.004 C 
ATOM     21  C   UNL     1      -0.821   0.673  -0.263  0.00  0.00    +0.001 C 
ENDBRANCH  18  21
ENDBRANCH  17  18
ENDBRANCH   5  17
ENDBRANCH   4   5
ENDBRANCH   1   4
BRANCH   3  22
ATOM     22  C   UNL     1       4.235  -5.119  -0.065  0.00  0.00    +0.143 C 
BRANCH  22  23
ATOM     23  C   UNL     1       4.314  -6.297  -1.002  0.00  0.00    -0.026 A 
ATOM     24  C   UNL     1       3.183  -7.051  -1.259  0.00  0.00    +0.009 A 
ATOM     25  C   UNL     1       3.250  -8.132  -2.118  0.00  0.00    +0.050 A 
ATOM     26  C   UNL     1       4.452  -8.463  -2.722  0.00  0.00    +0.166 A 
ATOM     27  C   UNL     1       5.590  -7.705  -2.463  0.00  0.00    +0.167 A 
ATOM     28  C   UNL     1       5.514  -6.619  -1.606  0.00  0.00    +0.054 A 
ATOM     29  O   UNL     1       6.634  -8.228  -3.171  0.00  0.00    -0.453 OA
ATOM     30  C   UNL     1       6.218  -9.555  -3.545  0.00  0.00    +0.466 C 
ATOM     31  O   UNL     1       4.782  -9.462  -3.592  0.00  0.00    -0.453 OA
ENDBRANCH  22  23
ENDBRANCH   3  22
BRANCH   3  32
ATOM     32  C   UNL     1       4.958  -3.030  -1.310  0.00  0.00    +0.150 C 
BRANCH  32  33
ATOM     33  C   UNL     1       5.339  -2.058  -0.223  0.00  0.00    +0.010 A 
ATOM     34  C   UNL     1       6.366  -2.125   0.660  0.00  0.00    -0.039 A 
ATOM     35  C   UNL     1       6.526  -1.106   1.580  0.00  0.00    +0.011 A 
ATOM     36  C   UNL     1       5.651  -0.071   1.573  0.00  0.00    +0.046 A 
ATOM     37  S   UNL     1       4.560  -0.518   0.232  0.00  0.00    -0.100 S 
ATOM     38  C   UNL     1       7.319  -3.292   0.638  0.00  0.00    +0.044 C 
ENDBRANCH  32  33
ENDBRANCH   3  32
TORSDOF 10
