REMARK  Name = ZINC35641959
REMARK  10 active torsions:
REMARK  status: ('A' for Active; 'I' for Inactive)
REMARK    1  A    between atoms: C_1  and  C_2
REMARK    2  A    between atoms: C_2  and  O_3
REMARK    3  A    between atoms: O_3  and  C_4
REMARK    4  A    between atoms: C_4  and  C_6
REMARK    5  A    between atoms: C_7  and  C_25
REMARK    6  A    between atoms: N_8  and  C_22
REMARK    7  A    between atoms: C_12  and  C_14
REMARK    8  A    between atoms: C_22  and  C_23
REMARK    9  A    between atoms: C_25  and  N_26
REMARK   10  A    between atoms: C_32  and  C_34
REMARK                            x       y       z     vdW  Elec       q    Type
REMARK                         _______ _______ _______ _____ _____    ______ ____
ROOT
ATOM      1  C   UNL     1       1.085  -2.497  -2.480  0.00  0.00    +0.080 C 
ATOM      2  C   UNL     1       1.513  -3.774  -2.580  0.00  0.00    +0.041 C 
ATOM      3  N   UNL     1       2.343  -4.162  -3.592  0.00  0.00    -0.254 N 
ATOM      4  C   UNL     1       2.791  -3.334  -4.544  0.00  0.00    +0.307 C 
ATOM      5  O   UNL     1       3.528  -3.772  -5.406  0.00  0.00    -0.252 OA
ATOM      6  N   UNL     1       2.451  -2.030  -4.578  0.00  0.00    -0.288 N 
ATOM      7  C   UNL     1       1.553  -1.512  -3.532  0.00  0.00    +0.144 C 
ATOM      8  H   UNL     1       2.788  -1.447  -5.277  0.00  0.00    +0.151 HD
ENDROOT
BRANCH   7   9
ATOM      9  C   UNL     1       0.334  -0.936  -4.204  0.00  0.00    -0.021 A 
ATOM     10  C   UNL     1      -0.321  -1.657  -5.185  0.00  0.00    +0.007 A 
ATOM     11  C   UNL     1      -1.439  -1.129  -5.802  0.00  0.00    +0.022 A 
ATOM     12  C   UNL     1      -1.904   0.122  -5.438  0.00  0.00    +0.059 A 
ATOM     13  C   UNL     1      -1.249   0.844  -4.455  0.00  0.00    +0.060 A 
ATOM     14  C   UNL     1      -0.133   0.312  -3.835  0.00  0.00    +0.027 A 
ATOM     15 CL   UNL     1      -1.831   2.414  -3.998  0.00  0.00    -0.082 Cl
ATOM     16 CL   UNL     1      -3.309   0.785  -6.213  0.00  0.00    -0.082 Cl
ENDBRANCH   7   9
BRANCH   1  17
ATOM     17  C   UNL     1       0.225  -2.094  -1.432  0.00  0.00    +0.339 C 
ATOM     18  O   UNL     1      -0.160  -2.908  -0.613  0.00  0.00    -0.245 OA
BRANCH  17  19
ATOM     19  O   UNL     1      -0.169  -0.807  -1.340  0.00  0.00    -0.462 OA
BRANCH  19  21
ATOM     20  C   UNL     1      -1.374   1.022  -0.317  0.00  0.00    +0.048 C 
ATOM     21  C   UNL     1      -1.038  -0.470  -0.257  0.00  0.00    +0.229 C 
ENDBRANCH  19  21
ENDBRANCH  17  19
ENDBRANCH   1  17
BRANCH   3  22
ATOM     22  C   UNL     1       2.768  -5.564  -3.640  0.00  0.00    +0.141 C 
BRANCH  22  23
ATOM     23  C   UNL     1       1.769  -6.365  -4.435  0.00  0.00    -0.015 C 
ATOM     24  C   UNL     1       2.163  -7.054  -5.477  0.00  0.00    +0.005 C 
ENDBRANCH  22  23
ENDBRANCH   3  22
BRANCH   2  25
ATOM     25  C   UNL     1       1.067  -4.787  -1.557  0.00  0.00    +0.136 C 
BRANCH  25  26
ATOM     26  N   UNL     1       2.075  -4.885  -0.493  0.00  0.00    -0.294 NA
ATOM     27  C   UNL     1       2.077  -3.675   0.341  0.00  0.00    +0.104 C 
ATOM     28  C   UNL     1       3.255  -3.736   1.320  0.00  0.00    +0.123 C 
ATOM     29  N   UNL     1       3.180  -5.003   2.063  0.00  0.00    -0.299 N 
ATOM     30  C   UNL     1       3.037  -6.251   1.297  0.00  0.00    +0.123 C 
ATOM     31  C   UNL     1       1.868  -6.091   0.319  0.00  0.00    +0.104 C 
ATOM     32  C   UNL     1       3.241  -5.021   3.409  0.00  0.00    +0.219 C 
ATOM     33  O   UNL     1       3.360  -3.983   4.024  0.00  0.00    -0.275 OA
BRANCH  32  34
ATOM     34  C   UNL     1       3.163  -6.331   4.150  0.00  0.00    +0.075 C 
ATOM     35  C   UNL     1       1.909  -6.596   4.986  0.00  0.00    +0.013 C 
ATOM     36  C   UNL     1       3.238  -6.284   5.677  0.00  0.00    +0.013 C 
ENDBRANCH  32  34
ENDBRANCH  25  26
ENDBRANCH   2  25
TORSDOF 9
