REMARK  Name = ZINC39671822
REMARK  9 active torsions:
REMARK  status: ('A' for Active; 'I' for Inactive)
REMARK    1  A    between atoms: C_1  and  C_2
REMARK    2  A    between atoms: C_4  and  C_38
REMARK    3  A    between atoms: N_5  and  C_7
REMARK    4  A    between atoms: C_7  and  C_8
REMARK    5  A    between atoms: C_8  and  C_9
REMARK    6  A    between atoms: C_9  and  N_10
REMARK    7  A    between atoms: C_11  and  C_13
REMARK    8  A    between atoms: C_24  and  C_26
REMARK    9  A    between atoms: C_29  and  C_31
REMARK                            x       y       z     vdW  Elec       q    Type
REMARK                         _______ _______ _______ _____ _____    ______ ____
ROOT
ATOM      1  C   UNL     1       4.606  -6.758   4.021  0.00  0.00    +0.100 C 
ATOM      2  C   UNL     1       5.296  -7.267   2.735  0.00  0.00    +0.121 C 
ATOM      3  N   UNL     1       6.168  -8.374   3.192  0.00  0.00    -0.294 N 
ATOM      4  C   UNL     1       5.364  -9.078   4.219  0.00  0.00    +0.115 C 
ATOM      5  C   UNL     1       4.652  -7.949   4.992  0.00  0.00    -0.004 C 
ATOM      6  C   UNL     1       5.448  -7.582   6.241  0.00  0.00    -0.010 C 
ATOM      7  C   UNL     1       5.432  -8.763   7.216  0.00  0.00    -0.082 C 
ATOM      8  N   UNL     1       4.045  -9.087   7.572  0.00  0.00    +0.379 N 
ATOM      9  C   UNL     1       3.312  -9.528   6.380  0.00  0.00    -0.082 C 
ATOM     10  C   UNL     1       3.238  -8.379   5.369  0.00  0.00    -0.010 C 
ATOM     11  C   UNL     1       7.412  -8.675   2.768  0.00  0.00    +0.282 C 
ATOM     12  O   UNL     1       8.004  -9.625   3.244  0.00  0.00    -0.267 OA
ATOM     13  H   UNL     1       4.040  -9.824   8.261  0.00  0.00    -0.086 HD
ATOM     14  H   UNL     1       3.598  -8.268   7.957  0.00  0.00    -0.086 HD
ENDROOT
BRANCH  11  15
ATOM     15  C   UNL     1       8.051  -7.856   1.734  0.00  0.00    +0.190 A 
ATOM     16  C   UNL     1       9.309  -8.054   1.209  0.00  0.00    +0.055 A 
ATOM     17  C   UNL     1       9.512  -7.049   0.259  0.00  0.00    +0.050 A 
ATOM     18  C   UNL     1       8.383  -6.282   0.238  0.00  0.00    +0.136 A 
ATOM     19  O   UNL     1       7.507  -6.781   1.126  0.00  0.00    -0.450 OA
BRANCH  18  20
ATOM     20  C   UNL     1       8.159  -5.103  -0.623  0.00  0.00    +0.017 A 
ATOM     21  C   UNL     1       9.148  -4.690  -1.518  0.00  0.00    +0.014 A 
ATOM     22  C   UNL     1       8.933  -3.589  -2.319  0.00  0.00    +0.039 A 
ATOM     23  C   UNL     1       7.738  -2.892  -2.238  0.00  0.00    +0.123 A 
ATOM     24  C   UNL     1       6.752  -3.297  -1.351  0.00  0.00    +0.039 A 
ATOM     25  C   UNL     1       6.954  -4.400  -0.549  0.00  0.00    +0.014 A 
ATOM     26  F   UNL     1       7.532  -1.814  -3.026  0.00  0.00    -0.205 F 
ENDBRANCH  18  20
ENDBRANCH  11  15
BRANCH   1  28
ATOM     27  N   UNL     1       2.577  -5.416   4.470  0.00  0.00    -0.315 N 
ATOM     28  C   UNL     1       3.179  -6.371   3.733  0.00  0.00    +0.218 C 
ATOM     29  O   UNL     1       2.571  -6.919   2.837  0.00  0.00    -0.275 OA
ATOM     30  H   UNL     1       3.063  -4.978   5.185  0.00  0.00    +0.149 HD
BRANCH  27  31
ATOM     31  C   UNL     1       1.189  -5.040   4.189  0.00  0.00    +0.106 C 
BRANCH  31  32
ATOM     32  C   UNL     1       0.752  -3.943   5.162  0.00  0.00    +0.042 C 
BRANCH  32  33
ATOM     33  C   UNL     1      -0.698  -3.550   4.869  0.00  0.00    +0.145 C 
BRANCH  33  38
ATOM     34  C   UNL     1      -2.572  -1.275   8.932  0.00  0.00    +0.067 C 
ATOM     35  C   UNL     1      -1.941  -1.525   7.586  0.00  0.00    +0.060 A 
ATOM     36  C   UNL     1      -1.498  -0.544   6.693  0.00  0.00    +0.047 A 
ATOM     37  C   UNL     1      -0.996  -1.170   5.604  0.00  0.00    +0.036 A 
ATOM     38  N   UNL     1      -1.116  -2.499   5.800  0.00  0.00    -0.268 N 
ATOM     39  N   UNL     1      -1.708  -2.698   7.054  0.00  0.00    -0.176 NA
ATOM     40  C   UNL     1      -0.407  -0.501   4.388  0.00  0.00    +0.065 C 
ENDBRANCH  33  38
ENDBRANCH  32  33
ENDBRANCH  31  32
ENDBRANCH  27  31
ENDBRANCH   1  28
TORSDOF 7
