REMARK  Name = ZINC20367446
REMARK  11 active torsions:
REMARK  status: ('A' for Active; 'I' for Inactive)
REMARK    1  A    between atoms: C_1  and  C_2
REMARK    2  A    between atoms: C_5  and  C_8
REMARK    3  A    between atoms: C_8  and  N_9
REMARK    4  A    between atoms: C_11  and  C_18
REMARK    5  A    between atoms: N_19  and  N_20
REMARK    6  A    between atoms: N_20  and  S_21
REMARK    7  A    between atoms: S_21  and  C_24
REMARK    8  A    between atoms: C_27  and  C_30
REMARK    9  A    between atoms: C_30  and  C_31
REMARK   10  A    between atoms: C_30  and  C_32
REMARK   11  A    between atoms: C_30  and  C_33
REMARK                            x       y       z     vdW  Elec       q    Type
REMARK                         _______ _______ _______ _____ _____    ______ ____
ROOT
ATOM      1  N   UNL     1       4.612  -2.252  -6.421  0.00  0.00    -0.342 N 
ATOM      2  C   UNL     1       3.472  -2.814  -5.922  0.00  0.00    +0.096 A 
ATOM      3  C   UNL     1       3.344  -2.499  -4.606  0.00  0.00    +0.020 A 
ATOM      4  C   UNL     1       4.505  -1.661  -4.258  0.00  0.00    +0.009 A 
ATOM      5  C   UNL     1       5.266  -1.546  -5.434  0.00  0.00    +0.050 A 
ATOM      6  C   UNL     1       6.444  -0.805  -5.414  0.00  0.00    +0.026 A 
ATOM      7  C   UNL     1       6.855  -0.198  -4.248  0.00  0.00    +0.002 A 
ATOM      8  C   UNL     1       6.105  -0.318  -3.086  0.00  0.00    +0.001 A 
ATOM      9  C   UNL     1       4.937  -1.047  -3.084  0.00  0.00    +0.010 A 
ENDROOT
BRANCH   3  10
ATOM     10  C   UNL     1       2.253  -2.910  -3.705  0.00  0.00    +0.141 C 
ATOM     11  N   UNL     1       2.260  -2.532  -2.463  0.00  0.00    -0.174 NA
BRANCH  11  12
ATOM     12  N   UNL     1       1.223  -2.923  -1.606  0.00  0.00    -0.137 N 
ATOM     13  H   UNL     1       0.500  -3.476  -1.940  0.00  0.00    +0.197 HD
BRANCH  12  14
ATOM     14  S   UNL     1       1.232  -2.441  -0.022  0.00  0.00    +0.086 S 
ATOM     15  O   UNL     1       2.489  -2.832   0.515  0.00  0.00    -0.149 OA
ATOM     16  O   UNL     1      -0.002  -2.866   0.539  0.00  0.00    -0.149 OA
BRANCH  14  17
ATOM     17  C   UNL     1       1.208  -0.679  -0.013  0.00  0.00    +0.110 A 
ATOM     18  C   UNL     1       0.002  -0.004   0.002  0.00  0.00    +0.029 A 
ATOM     19  C   UNL     1      -0.017   1.378   0.010  0.00  0.00    +0.006 A 
ATOM     20  C   UNL     1       1.171   2.086   0.002  0.00  0.00    -0.042 A 
ATOM     21  C   UNL     1       2.377   1.411  -0.015  0.00  0.00    +0.006 A 
ATOM     22  C   UNL     1       2.396   0.029  -0.021  0.00  0.00    +0.029 A 
BRANCH  20  23
ATOM     23  C   UNL     1       1.151   3.592   0.010  0.00  0.00    -0.013 C 
ATOM     24  C   UNL     1       0.434   4.086   1.268  0.00  0.00    +0.015 C 
ATOM     25  C   UNL     1       2.586   4.122  -0.001  0.00  0.00    +0.015 C 
ATOM     26  C   UNL     1       0.411   4.099  -1.230  0.00  0.00    +0.015 C 
ENDBRANCH  20  23
ENDBRANCH  14  17
ENDBRANCH  12  14
ENDBRANCH  11  12
ENDBRANCH   3  10
BRANCH   1  27
ATOM     27  C   UNL     1       5.073  -2.379  -7.806  0.00  0.00    +0.157 C 
BRANCH  27  32
ATOM     28  C   UNL     1       8.846  -6.739  -8.186  0.00  0.00    +0.044 C 
ATOM     29  C   UNL     1       7.862  -5.602  -8.088  0.00  0.00    -0.050 A 
ATOM     30  C   UNL     1       6.512  -5.838  -8.271  0.00  0.00    +0.004 A 
ATOM     31  C   UNL     1       5.610  -4.795  -8.180  0.00  0.00    +0.005 A 
ATOM     32  C   UNL     1       6.057  -3.516  -7.905  0.00  0.00    -0.028 A 
ATOM     33  C   UNL     1       7.407  -3.279  -7.727  0.00  0.00    +0.005 A 
ATOM     34  C   UNL     1       8.309  -4.323  -7.814  0.00  0.00    +0.004 A 
ENDBRANCH  27  32
ENDBRANCH   1  27
TORSDOF 7
