REMARK  Name = ZINC09325757
REMARK  9 active torsions:
REMARK  status: ('A' for Active; 'I' for Inactive)
REMARK    1  A    between atoms: C_1  and  O_2
REMARK    2  A    between atoms: O_2  and  C_3
REMARK    3  A    between atoms: N_9  and  C_31
REMARK    4  A    between atoms: N_11  and  C_12
REMARK    5  A    between atoms: C_12  and  C_14
REMARK    6  A    between atoms: C_19  and  N_20
REMARK    7  A    between atoms: N_20  and  S_21
REMARK    8  A    between atoms: S_21  and  C_24
REMARK    9  A    between atoms: C_31  and  C_32
REMARK                            x       y       z     vdW  Elec       q    Type
REMARK                         _______ _______ _______ _____ _____    ______ ____
ROOT
ATOM      1  C   UNL     1       2.588   2.210   3.328  0.00  0.00    +0.271 C 
ATOM      2  O   UNL     1       3.670   2.765   3.238  0.00  0.00    -0.268 OA
ENDROOT
BRANCH   1  11
ATOM      3  C   UNL     1       2.209   2.027  -2.687  0.00  0.00    +0.145 A 
ATOM      4  C   UNL     1       3.023   2.452  -3.716  0.00  0.00    +0.049 A 
ATOM      5  C   UNL     1       4.233   3.074  -3.463  0.00  0.00    +0.025 A 
ATOM      6  C   UNL     1       4.631   3.271  -2.152  0.00  0.00    +0.057 A 
ATOM      7  C   UNL     1       3.821   2.848  -1.123  0.00  0.00    +0.061 A 
ATOM      8  C   UNL     1       2.591   2.216  -1.345  0.00  0.00    +0.102 A 
ATOM      9  N   UNL     1       1.904   1.857  -0.198  0.00  0.00    -0.307 N 
ATOM     10  C   UNL     1       2.432   2.129   1.025  0.00  0.00    +0.168 A 
ATOM     11  N   UNL     1       1.919   1.865   2.222  0.00  0.00    -0.152 NA
ATOM     12  S   UNL     1       3.939   2.900   0.648  0.00  0.00    -0.050 S 
ATOM     13 CL   UNL     1       6.145   4.049  -1.807  0.00  0.00    -0.082 Cl
BRANCH   3  15
ATOM     14  C   UNL     1       0.695   1.257  -4.351  0.00  0.00    +0.277 C 
ATOM     15  O   UNL     1       1.026   1.419  -2.971  0.00  0.00    -0.493 OA
ENDBRANCH   3  15
BRANCH   9  16
ATOM     16  C   UNL     1       0.605   1.188  -0.302  0.00  0.00    +0.212 C 
BRANCH  16  17
ATOM     17  C   UNL     1       0.805  -0.270  -0.343  0.00  0.00    -0.084 C 
ATOM     18  C   UNL     1       0.964  -1.432  -0.376  0.00  0.00    +0.005 C 
ENDBRANCH  16  17
ENDBRANCH   9  16
ENDBRANCH   1  11
BRANCH   1  19
ATOM     19  C   UNL     1       2.017   1.917   4.659  0.00  0.00    +0.061 A 
ATOM     20  C   UNL     1       0.776   1.286   4.767  0.00  0.00    +0.015 A 
ATOM     21  C   UNL     1       0.251   1.010   6.011  0.00  0.00    +0.001 A 
ATOM     22  C   UNL     1       0.943   1.366   7.157  0.00  0.00    +0.002 A 
ATOM     23  C   UNL     1       2.167   1.995   7.066  0.00  0.00    +0.025 A 
ATOM     24  C   UNL     1       2.715   2.276   5.821  0.00  0.00    +0.060 A 
BRANCH  24  25
ATOM     25  N   UNL     1       3.948   2.910   5.726  0.00  0.00    -0.216 N 
ATOM     26  H   UNL     1       4.113   3.546   5.013  0.00  0.00    +0.174 HD
BRANCH  25  27
ATOM     27  S   UNL     1       5.135   2.580   6.833  0.00  0.00    +0.072 S 
ATOM     28  O   UNL     1       6.299   3.269   6.397  0.00  0.00    -0.150 OA
ATOM     29  O   UNL     1       4.563   2.786   8.117  0.00  0.00    -0.150 OA
BRANCH  27  30
ATOM     30  C   UNL     1       5.495   0.859   6.713  0.00  0.00    +0.108 A 
ATOM     31  C   UNL     1       4.806  -0.048   7.496  0.00  0.00    +0.029 A 
ATOM     32  C   UNL     1       5.085  -1.398   7.399  0.00  0.00    +0.002 A 
ATOM     33  C   UNL     1       6.060  -1.841   6.524  0.00  0.00    +0.000 A 
ATOM     34  C   UNL     1       6.753  -0.933   5.745  0.00  0.00    +0.002 A 
ATOM     35  C   UNL     1       6.471   0.416   5.839  0.00  0.00    +0.029 A 
ENDBRANCH  27  30
ENDBRANCH  25  27
ENDBRANCH  24  25
ENDBRANCH   1  19
TORSDOF 8
