REMARK  Name = ZINC43707296
REMARK  10 active torsions:
REMARK  status: ('A' for Active; 'I' for Inactive)
REMARK    1  A    between atoms: C_1  and  C_2
REMARK    2  A    between atoms: C_2  and  O_4
REMARK    3  A    between atoms: O_4  and  C_5
REMARK    4  A    between atoms: C_9  and  C_35
REMARK    5  A    between atoms: C_14  and  C_34
REMARK    6  A    between atoms: C_20  and  O_25
REMARK    7  A    between atoms: C_22  and  O_24
REMARK    8  A    between atoms: C_28  and  O_30
REMARK    9  A    between atoms: O_30  and  C_31
REMARK   10  A    between atoms: C_31  and  C_33
REMARK                            x       y       z     vdW  Elec       q    Type
REMARK                         _______ _______ _______ _____ _____    ______ ____
ROOT
ATOM      1  C   UNL     1      -1.835  -1.206  -0.886  0.00  0.00    +0.179 C 
ATOM      2  C   UNL     1      -1.451  -1.770   0.477  0.00  0.00    +0.045 C 
ATOM      3  C   UNL     1      -2.639  -1.779   1.430  0.00  0.00    +0.013 C 
ATOM      4  C   UNL     1      -3.816  -2.569   0.833  0.00  0.00    +0.002 C 
ATOM      5  C   UNL     1      -4.952  -2.553   1.852  0.00  0.00    +0.001 C 
ATOM      6  C   UNL     1      -5.067  -3.861   2.617  0.00  0.00    +0.005 C 
ATOM      7  C   UNL     1      -6.199  -3.798   3.662  0.00  0.00    +0.011 C 
ATOM      8  C   UNL     1      -7.499  -3.547   2.933  0.00  0.00    +0.008 C 
ATOM      9  C   UNL     1      -7.393  -2.213   2.169  0.00  0.00    +0.002 C 
ATOM     10  C   UNL     1      -6.273  -2.163   1.179  0.00  0.00    -0.001 C 
ATOM     11  C   UNL     1      -6.463  -2.992  -0.081  0.00  0.00    +0.038 C 
ATOM     12  C   UNL     1      -5.433  -2.554  -1.127  0.00  0.00    +0.147 C 
ATOM     13  C   UNL     1      -4.220  -1.898  -0.476  0.00  0.00    +0.101 C 
ATOM     14  C   UNL     1      -3.046  -1.930  -1.463  0.00  0.00    +0.082 C 
ATOM     15  C   UNL     1      -8.830  -2.023   1.668  0.00  0.00    +0.008 C 
ATOM     16  C   UNL     1      -9.669  -2.444   2.909  0.00  0.00    +0.045 C 
ATOM     17  C   UNL     1      -8.726  -3.272   3.820  0.00  0.00    +0.183 C 
ATOM     18  C   UNL     1      -7.851  -4.728   2.030  0.00  0.00    +0.015 C 
ATOM     19  C   UNL     1      -3.347  -4.002   0.573  0.00  0.00    +0.014 C 
ENDROOT
BRANCH  13  20
ATOM     20  O   UNL     1      -4.523  -0.515  -0.224  0.00  0.00    -0.385 OA
ATOM     21  H   UNL     1      -4.789  -0.021  -1.012  0.00  0.00    +0.210 HD
ENDBRANCH  13  20
BRANCH  12  22
ATOM     22  O   UNL     1      -5.038  -3.682  -1.909  0.00  0.00    -0.389 OA
ATOM     23  H   UNL     1      -5.766  -4.104  -2.385  0.00  0.00    +0.210 HD
ENDBRANCH  12  22
BRANCH   1  24
ATOM     24  O   UNL     1      -2.095   0.194  -0.781  0.00  0.00    -0.461 OA
BRANCH  24  26
ATOM     25  C   UNL     1      -1.244   2.512  -0.832  0.00  0.00    +0.136 C 
ATOM     26  C   UNL     1      -1.047   1.021  -0.929  0.00  0.00    +0.304 C 
ATOM     27  O   UNL     1       0.053   0.570  -1.142  0.00  0.00    -0.251 OA
ENDBRANCH  24  26
ENDBRANCH   1  24
BRANCH  17  28
ATOM     28  O   UNL     1      -8.345  -2.516   4.966  0.00  0.00    -0.461 OA
BRANCH  28  29
ATOM     29  C   UNL     1      -9.061  -2.704   6.086  0.00  0.00    +0.304 C 
ATOM     30  O   UNL     1      -9.982  -3.487   6.090  0.00  0.00    -0.251 OA
ATOM     31  C   UNL     1      -8.716  -1.940   7.338  0.00  0.00    +0.136 C 
ENDBRANCH  28  29
ENDBRANCH  17  28
TORSDOF 6
