REMARK  Name = ZINC31163649
REMARK  11 active torsions:
REMARK  status: ('A' for Active; 'I' for Inactive)
REMARK    1  A    between atoms: C_1  and  C_2
REMARK    2  A    between atoms: C_4  and  O_31
REMARK    3  A    between atoms: C_10  and  C_29
REMARK    4  A    between atoms: C_11  and  O_22
REMARK    5  A    between atoms: C_14  and  C_21
REMARK    6  A    between atoms: C_18  and  O_20
REMARK    7  A    between atoms: O_22  and  C_23
REMARK    8  A    between atoms: C_23  and  C_25
REMARK    9  A    between atoms: C_25  and  C_26
REMARK   10  A    between atoms: C_26  and  C_27
REMARK   11  A    between atoms: C_26  and  C_28
REMARK                            x       y       z     vdW  Elec       q    Type
REMARK                         _______ _______ _______ _____ _____    ______ ____
ROOT
ATOM      1  C   UNL     1      -4.839   7.824   0.596  0.00  0.00    +0.011 C 
ATOM      2  C   UNL     1      -4.324   6.467   0.113  0.00  0.00    +0.027 C 
ATOM      3  C   UNL     1      -5.478   5.681  -0.471  0.00  0.00    +0.121 C 
ATOM      4  C   UNL     1      -6.199   6.430  -1.571  0.00  0.00    +0.066 C 
ATOM      5  C   UNL     1      -5.240   7.129  -2.524  0.00  0.00    +0.154 C 
ATOM      6  C   UNL     1      -3.770   7.306  -2.186  0.00  0.00    +0.112 C 
ATOM      7  C   UNL     1      -3.217   6.693  -0.906  0.00  0.00    +0.046 C 
ATOM      8  C   UNL     1      -2.558   5.332  -1.201  0.00  0.00    +0.218 C 
ATOM      9  C   UNL     1      -1.691   5.495  -2.422  0.00  0.00    +0.051 C 
ATOM     10  C   UNL     1      -0.425   5.181  -2.612  0.00  0.00    +0.042 C 
ATOM     11  C   UNL     1      -0.015   5.610  -3.955  0.00  0.00    +0.338 C 
ATOM     12  O   UNL     1       1.089   5.443  -4.434  0.00  0.00    -0.245 OA
ATOM     13  O   UNL     1      -1.046   6.217  -4.578  0.00  0.00    -0.425 OA
ATOM     14  C   UNL     1      -2.205   6.106  -3.714  0.00  0.00    +0.243 C 
ATOM     15  C   UNL     1      -2.778   7.477  -3.351  0.00  0.00    +0.122 C 
ATOM     16  C   UNL     1       0.462   4.490  -1.609  0.00  0.00    +0.051 C 
ATOM     17  C   UNL     1      -2.176   7.638  -0.302  0.00  0.00    +0.018 C 
ATOM     18  O   UNL     1      -4.714   8.380  -2.053  0.00  0.00    -0.364 OA
ENDROOT
BRANCH  14  19
ATOM     19  O   UNL     1      -3.197   5.268  -4.309  0.00  0.00    -0.352 OA
ATOM     20  H   UNL     1      -3.673   5.565  -5.255  0.00  0.00    +0.214 HD
ENDBRANCH  14  19
BRANCH   3  21
ATOM     21  O   UNL     1      -6.408   5.384   0.572  0.00  0.00    -0.391 OA
ATOM     22  H   UNL     1      -7.322   4.815   0.348  0.00  0.00    +0.210 HD
ENDBRANCH   3  21
BRANCH   8  23
ATOM     23  O   UNL     1      -1.743   4.925  -0.070  0.00  0.00    -0.456 OA
BRANCH  23  24
ATOM     24  C   UNL     1      -1.582   3.607   0.122  0.00  0.00    +0.308 C 
ATOM     25  O   UNL     1      -2.106   2.818  -0.630  0.00  0.00    -0.251 OA
BRANCH  24  26
ATOM     26  C   UNL     1      -0.750   3.109   1.275  0.00  0.00    +0.123 C 
BRANCH  26  27
ATOM     27  C   UNL     1      -0.729   1.579   1.267  0.00  0.00    -0.007 C 
ATOM     28  C   UNL     1      -0.013   1.086   0.008  0.00  0.00    +0.008 C 
ATOM     29  C   UNL     1       0.011   1.072   2.506  0.00  0.00    +0.008 C 
ENDBRANCH  26  27
ENDBRANCH  24  26
ENDBRANCH  23  24
ENDBRANCH   8  23
TORSDOF 6
