REMARK  Name = ZINC06198877
REMARK  5 active torsions:
REMARK  status: ('A' for Active; 'I' for Inactive)
REMARK    1  A    between atoms: C_4  and  C_7
REMARK    2  A    between atoms: N_8  and  C_9
REMARK    3  A    between atoms: C_12  and  S_15
REMARK    4  A    between atoms: S_15  and  N_18
REMARK    5  A    between atoms: C_31  and  C_34
REMARK                            x       y       z     vdW  Elec       q    Type
REMARK                         _______ _______ _______ _____ _____    ______ ____
ROOT
ATOM      1  N   UNL     1       9.851  -4.119   1.007  0.00  0.00    -0.097 NA
ATOM      2  C   UNL     1      11.062  -4.559   1.198  0.00  0.00    +0.206 C 
ATOM      3  N   UNL     1      11.569  -5.637   0.475  0.00  0.00    -0.272 N 
ATOM      4  C   UNL     1      12.932  -5.564   0.162  0.00  0.00    +0.109 A 
ATOM      5  C   UNL     1      13.744  -4.616   0.710  0.00  0.00    +0.024 A 
ATOM      6  C   UNL     1      15.069  -4.838   0.182  0.00  0.00    +0.007 A 
ATOM      7  C   UNL     1      16.294  -4.191   0.383  0.00  0.00    +0.010 A 
ATOM      8  C   UNL     1      17.377  -4.684  -0.302  0.00  0.00    +0.001 A 
ATOM      9  C   UNL     1      17.276  -5.769  -1.156  0.00  0.00    +0.002 A 
ATOM     10  C   UNL     1      16.078  -6.429  -1.374  0.00  0.00    +0.026 A 
ATOM     11  C   UNL     1      14.962  -5.952  -0.693  0.00  0.00    +0.048 A 
ATOM     12  N   UNL     1      13.655  -6.362  -0.680  0.00  0.00    -0.342 N 
ATOM     13  H   UNL     1      13.296  -7.105  -1.190  0.00  0.00    +0.167 HD
ATOM     14  C   UNL     1      13.252  -3.565   1.674  0.00  0.00    +0.137 C 
ATOM     15  N   UNL     1      11.911  -3.973   2.126  0.00  0.00    -0.305 N 
ATOM     16  H   UNL     1      11.633  -3.837   3.045  0.00  0.00    +0.150 HD
ATOM     17  H   UNL     1      11.016  -6.388   0.208  0.00  0.00    +0.156 HD
ENDROOT
BRANCH  14  18
ATOM     18  C   UNL     1      13.171  -2.230   0.979  0.00  0.00    -0.023 A 
ATOM     19  C   UNL     1      12.087  -1.934   0.174  0.00  0.00    +0.006 A 
ATOM     20  C   UNL     1      12.013  -0.710  -0.464  0.00  0.00    +0.000 A 
ATOM     21  C   UNL     1      13.023   0.219  -0.295  0.00  0.00    +0.000 A 
ATOM     22  C   UNL     1      14.106  -0.076   0.511  0.00  0.00    +0.000 A 
ATOM     23  C   UNL     1      14.178  -1.299   1.152  0.00  0.00    +0.006 A 
ENDBRANCH  14  18
BRANCH   1  24
ATOM     24  S   UNL     1       8.871  -4.848  -0.111  0.00  0.00    +0.102 S 
ATOM     25  O   UNL     1       8.613  -6.160   0.369  0.00  0.00    -0.146 OA
ATOM     26  O   UNL     1       9.454  -4.604  -1.384  0.00  0.00    -0.146 OA
BRANCH  24  30
ATOM     27  C   UNL     1       4.910  -2.647  -0.060  0.00  0.00    +0.064 A 
ATOM     28  C   UNL     1       5.931  -2.233  -0.918  0.00  0.00    +0.029 A 
ATOM     29  C   UNL     1       7.134  -2.908  -0.928  0.00  0.00    +0.031 A 
ATOM     30  C   UNL     1       7.330  -3.992  -0.091  0.00  0.00    +0.113 A 
ATOM     31  C   UNL     1       6.323  -4.408   0.761  0.00  0.00    +0.031 A 
ATOM     32  C   UNL     1       5.117  -3.739   0.786  0.00  0.00    +0.029 A 
BRANCH  27  34
ATOM     33  C   UNL     1       3.692  -0.680  -0.037  0.00  0.00    +0.119 C 
ATOM     34  N   UNL     1       3.713  -1.983  -0.045  0.00  0.00    -0.255 NA
BRANCH  33  38
ATOM     35  C   UNL     1      -0.017   1.380   0.010  0.00  0.00    +0.000 A 
ATOM     36  C   UNL     1       1.168   2.095   0.002  0.00  0.00    +0.001 A 
ATOM     37  C   UNL     1       2.377   1.432  -0.013  0.00  0.00    +0.009 A 
ATOM     38  C   UNL     1       2.405   0.035  -0.021  0.00  0.00    -0.007 A 
ATOM     39  C   UNL     1       1.204  -0.681  -0.013  0.00  0.00    +0.009 A 
ATOM     40  C   UNL     1       0.002  -0.004   0.002  0.00  0.00    +0.001 A 
ENDBRANCH  33  38
ENDBRANCH  27  34
ENDBRANCH  24  30
ENDBRANCH   1  24
TORSDOF 5
