REMARK  Name = ZINC14475840
REMARK  5 active torsions:
REMARK  status: ('A' for Active; 'I' for Inactive)
REMARK    1  A    between atoms: C_3  and  O_34
REMARK    2  A    between atoms: C_4  and  C_10
REMARK    3  A    between atoms: C_6  and  N_7
REMARK    4  A    between atoms: C_21  and  S_26
REMARK    5  A    between atoms: S_26  and  N_29
REMARK                            x       y       z     vdW  Elec       q    Type
REMARK                         _______ _______ _______ _____ _____    ______ ____
ROOT
ATOM      1  C   UNL     1      -1.218  -2.048   0.456  0.00  0.00    +0.108 C 
ATOM      2  C   UNL     1      -0.646  -3.276  -0.257  0.00  0.00    +0.029 C 
ATOM      3  C   UNL     1      -1.067  -4.529   0.566  0.00  0.00    +0.033 C 
ATOM      4  C   UNL     1      -0.032  -4.587   1.672  0.00  0.00    -0.030 C 
ATOM      5  C   UNL     1       1.048  -3.929   1.326  0.00  0.00    -0.023 C 
ATOM      6  C   UNL     1       0.881  -3.339  -0.054  0.00  0.00    +0.049 C 
ATOM      7  C   UNL     1       1.539  -2.000  -0.158  0.00  0.00    -0.018 A 
ATOM      8  C   UNL     1       2.924  -1.944  -0.242  0.00  0.00    +0.034 A 
ATOM      9  C   UNL     1       3.571  -0.729  -0.341  0.00  0.00    +0.106 A 
ATOM     10  C   UNL     1       2.846   0.449  -0.359  0.00  0.00    +0.030 A 
ATOM     11  C   UNL     1       1.469   0.405  -0.276  0.00  0.00    +0.025 A 
ATOM     12  C   UNL     1       0.817  -0.817  -0.174  0.00  0.00    +0.031 A 
ATOM     13  N   UNL     1      -0.579  -0.844  -0.086  0.00  0.00    -0.336 N 
ATOM     14  H   UNL     1      -1.196   0.007  -0.410  0.00  0.00    +0.147 HD
ENDROOT
BRANCH   1  18
ATOM     15  C   UNL     1      -0.424  -2.327   4.647  0.00  0.00    +0.036 A 
ATOM     16  C   UNL     1      -1.638  -2.757   4.148  0.00  0.00    +0.048 A 
ATOM     17  C   UNL     1      -1.899  -2.668   2.789  0.00  0.00    +0.122 A 
ATOM     18  C   UNL     1      -0.939  -2.147   1.933  0.00  0.00    +0.017 A 
ATOM     19  C   UNL     1       0.276  -1.723   2.437  0.00  0.00    +0.041 A 
ATOM     20  C   UNL     1       0.531  -1.807   3.793  0.00  0.00    +0.127 A 
BRANCH  20  21
ATOM     21  N   UNL     1       1.831  -1.346   4.331  0.00  0.00    +0.056 N 
ATOM     22  O   UNL     1       2.058  -1.425   5.525  0.00  0.00    -0.126 OA
ATOM     23  O   UNL     1       2.672  -0.888   3.579  0.00  0.00    -0.126 OA
ENDBRANCH  20  21
BRANCH  17  24
ATOM     24  O   UNL     1      -3.092  -3.092   2.295  0.00  0.00    -0.506 OA
ATOM     25  H   UNL     1      -3.297  -3.021   1.217  0.00  0.00    +0.292 HD
ENDBRANCH  17  24
ENDBRANCH   1  18
BRANCH   9  26
ATOM     26  S   UNL     1       5.329  -0.679  -0.446  0.00  0.00    +0.061 S 
ATOM     27  O   UNL     1       5.727   0.604   0.018  0.00  0.00    -0.153 OA
ATOM     28  O   UNL     1       5.806  -1.882   0.140  0.00  0.00    -0.153 OA
BRANCH  26  29
ATOM     29  N   UNL     1       5.726  -0.745  -2.052  0.00  0.00    -0.177 NA
ATOM     30  C   UNL     1       5.975  -1.972  -2.824  0.00  0.00    +0.109 C 
ATOM     31  C   UNL     1       6.332  -1.544  -4.263  0.00  0.00    +0.018 C 
ATOM     32  C   UNL     1       6.825  -0.084  -4.077  0.00  0.00    +0.018 C 
ATOM     33  C   UNL     1       5.894   0.417  -2.945  0.00  0.00    +0.109 C 
ENDBRANCH  26  29
ENDBRANCH   9  26
TORSDOF 5
