REMARK  Name = ZINC39589637
REMARK  10 active torsions:
REMARK  status: ('A' for Active; 'I' for Inactive)
REMARK    1  A    between atoms: C_1  and  C_2
REMARK    2  A    between atoms: C_5  and  C_8
REMARK    3  A    between atoms: C_10  and  C_13
REMARK    4  A    between atoms: C_13  and  O_14
REMARK    5  A    between atoms: O_14  and  C_15
REMARK    6  A    between atoms: C_15  and  C_17
REMARK    7  A    between atoms: C_17  and  N_18
REMARK    8  A    between atoms: C_19  and  C_21
REMARK    9  A    between atoms: C_23  and  C_28
REMARK   10  A    between atoms: C_25  and  C_27
REMARK                            x       y       z     vdW  Elec       q    Type
REMARK                         _______ _______ _______ _____ _____    ______ ____
ROOT
ATOM      1  C   UNL     1       0.135  -9.650   2.452  0.00  0.00    +0.325 C 
ATOM      2  O   UNL     1       0.131  -9.358   3.625  0.00  0.00    -0.249 OA
ENDROOT
BRANCH   1   3
ATOM      3  O   UNL     1       0.121  -8.685   1.520  0.00  0.00    -0.457 OA
BRANCH   3   4
ATOM      4  C   UNL     1       0.102  -7.334   1.986  0.00  0.00    +0.288 C 
BRANCH   4   7
ATOM      5  C   UNL     1       0.061  -4.251  -0.021  0.00  0.00    +0.109 A 
ATOM      6  N   UNL     1       0.072  -5.098   0.998  0.00  0.00    -0.241 NA
ATOM      7  C   UNL     1       0.089  -6.396   0.806  0.00  0.00    +0.086 A 
ATOM      8  C   UNL     1       0.097  -6.894  -0.459  0.00  0.00    +0.074 A 
ATOM      9  S   UNL     1       0.068  -5.379  -1.409  0.00  0.00    -0.075 S 
BRANCH   5  14
ATOM     10  C   UNL     1      -0.018   1.503   0.010  0.00  0.00    +0.044 C 
ATOM     11  C   UNL     1       0.002  -0.004   0.002  0.00  0.00    -0.050 A 
ATOM     12  C   UNL     1       0.006  -0.686  -1.202  0.00  0.00    +0.004 A 
ATOM     13  C   UNL     1       0.025  -2.066  -1.216  0.00  0.00    +0.011 A 
ATOM     14  C   UNL     1       0.041  -2.773  -0.013  0.00  0.00    +0.007 A 
ATOM     15  C   UNL     1       0.037  -2.079   1.197  0.00  0.00    +0.011 A 
ATOM     16  C   UNL     1       0.023  -0.699   1.198  0.00  0.00    +0.004 A 
ENDBRANCH   5  14
ENDBRANCH   4   7
ENDBRANCH   3   4
ENDBRANCH   1   3
BRANCH   1  17
ATOM     17  C   UNL     1       0.155 -11.099   2.037  0.00  0.00    +0.225 C 
BRANCH  17  18
ATOM     18  N   UNL     1       0.167 -11.949   3.230  0.00  0.00    -0.301 N 
ATOM     19  C   UNL     1       0.185 -13.291   3.101  0.00  0.00    +0.245 C 
ATOM     20  O   UNL     1       0.193 -13.795   1.995  0.00  0.00    -0.270 OA
ATOM     21  H   UNL     1       0.161 -11.547   4.112  0.00  0.00    +0.150 HD
BRANCH  19  22
ATOM     22  C   UNL     1       0.197 -14.149   4.305  0.00  0.00    +0.037 A 
ATOM     23  C   UNL     1       0.183 -13.573   5.576  0.00  0.00    +0.016 A 
ATOM     24  C   UNL     1       0.194 -14.379   6.695  0.00  0.00    -0.049 A 
ATOM     25  C   UNL     1       0.219 -15.756   6.560  0.00  0.00    +0.006 A 
ATOM     26  C   UNL     1       0.233 -16.333   5.302  0.00  0.00    -0.049 A 
ATOM     27  C   UNL     1       0.217 -15.538   4.175  0.00  0.00    +0.016 A 
ATOM     28  C   UNL     1       0.261 -17.834   5.164  0.00  0.00    +0.044 C 
ATOM     29  C   UNL     1       0.179 -13.759   8.069  0.00  0.00    +0.044 C 
ENDBRANCH  19  22
ENDBRANCH  17  18
ENDBRANCH   1  17
TORSDOF 7
