REMARK  Name = ZINC53112407
REMARK  8 active torsions:
REMARK  status: ('A' for Active; 'I' for Inactive)
REMARK    1  A    between atoms: C_1  and  C_2
REMARK    2  A    between atoms: C_2  and  C_3
REMARK    3  A    between atoms: C_4  and  N_22
REMARK    4  A    between atoms: C_5  and  C_9
REMARK    5  A    between atoms: N_11  and  C_12
REMARK    6  A    between atoms: C_12  and  C_20
REMARK    7  A    between atoms: C_16  and  C_19
REMARK    8  A    between atoms: C_20  and  O_21
REMARK                            x       y       z     vdW  Elec       q    Type
REMARK                         _______ _______ _______ _____ _____    ______ ____
ROOT
ATOM      1  C   UNL     1       2.800  -0.927  -4.785  0.00  0.00    +0.266 C 
ATOM      2  O   UNL     1       3.067  -0.212  -5.732  0.00  0.00    -0.268 OA
ATOM      3  N   UNL     1       3.599  -1.969  -4.482  0.00  0.00    -0.302 N 
ATOM      4  H   UNL     1       3.428  -2.496  -3.686  0.00  0.00    +0.150 HD
ENDROOT
BRANCH   3   5
ATOM      5  C   UNL     1       4.726  -2.307  -5.355  0.00  0.00    +0.058 C 
ATOM      6  C   UNL     1       5.437  -3.549  -4.814  0.00  0.00    +0.028 C 
ATOM      7  C   UNL     1       4.454  -4.721  -4.774  0.00  0.00    +0.002 C 
ATOM      8  C   UNL     1       3.939  -5.003  -6.186  0.00  0.00    +0.003 C 
ATOM      9  C   UNL     1       3.229  -3.761  -6.728  0.00  0.00    -0.012 C 
ATOM     10  C   UNL     1       4.211  -2.588  -6.768  0.00  0.00    +0.031 C 
ATOM     11  C   UNL     1       2.713  -4.043  -8.140  0.00  0.00    +0.007 C 
BRANCH   5  12
ATOM     12  C   UNL     1       5.709  -1.134  -5.395  0.00  0.00    +0.181 C 
BRANCH  12  13
ATOM     13  O   UNL     1       6.132  -0.822  -4.066  0.00  0.00    -0.393 OA
ATOM     14  H   UNL     1       6.757  -0.086  -4.016  0.00  0.00    +0.209 HD
ENDBRANCH  12  13
ENDBRANCH   5  12
ENDBRANCH   3   5
BRANCH   1  17
ATOM     15  C   UNL     1      -0.255   0.248  -3.180  0.00  0.00    +0.057 A 
ATOM     16  C   UNL     1       0.671   0.398  -4.164  0.00  0.00    +0.078 A 
ATOM     17  C   UNL     1       1.602  -0.655  -3.970  0.00  0.00    +0.168 A 
ATOM     18  N   UNL     1       1.194  -1.345  -2.922  0.00  0.00    -0.167 NA
ATOM     19  N   UNL     1       0.117  -0.832  -2.444  0.00  0.00    -0.279 N 
ATOM     20  H   UNL     1      -0.363  -1.169  -1.672  0.00  0.00    +0.189 HD
BRANCH  16  21
ATOM     21  N   UNL     1       0.700   1.384  -5.161  0.00  0.00    -0.355 N 
ATOM     22  H   UNL     1       0.004   2.059  -5.196  0.00  0.00    +0.142 HD
ATOM     23  H   UNL     1       1.416   1.392  -5.815  0.00  0.00    +0.142 HD
ENDBRANCH  16  21
BRANCH  15  25
ATOM     24  C   UNL     1      -2.619   0.635  -3.821  0.00  0.00    +0.010 C 
ATOM     25  C   UNL     1      -1.461   1.120  -2.946  0.00  0.00    +0.053 C 
ENDBRANCH  15  25
ENDBRANCH   1  17
TORSDOF 6
