REMARK  Name = ZINC14837389
REMARK  11 active torsions:
REMARK  status: ('A' for Active; 'I' for Inactive)
REMARK    1  A    between atoms: C_1  and  C_2
REMARK    2  A    between atoms: C_2  and  C_3
REMARK    3  A    between atoms: C_3  and  O_4
REMARK    4  A    between atoms: O_4  and  C_5
REMARK    5  A    between atoms: C_10  and  C_11
REMARK    6  A    between atoms: N_13  and  C_14
REMARK    7  A    between atoms: C_14  and  N_16
REMARK    8  A    between atoms: N_16  and  C_17
REMARK    9  A    between atoms: C_21  and  C_23
REMARK   10  A    between atoms: N_25  and  C_26
REMARK   11  A    between atoms: C_26  and  C_27
REMARK                            x       y       z     vdW  Elec       q    Type
REMARK                         _______ _______ _______ _____ _____    ______ ____
ROOT
ATOM      1  N   UNL     1      -0.056   5.251   0.030  0.00  0.00    -0.297 N 
ATOM      2  H   UNL     1      -0.897   5.731  -0.021  0.00  0.00    +0.154 HD
ENDROOT
BRANCH   1   3
ATOM      3  C   UNL     1      -0.047   3.852   0.007  0.00  0.00    +0.033 A 
ATOM      4  C   UNL     1      -0.945   3.138   0.791  0.00  0.00    +0.023 A 
ATOM      5  C   UNL     1      -0.940   1.756   0.771  0.00  0.00    +0.003 A 
ATOM      6  C   UNL     1      -0.043   1.076  -0.029  0.00  0.00    +0.013 A 
ATOM      7  C   UNL     1       0.867   1.784  -0.816  0.00  0.00    +0.038 A 
ATOM      8  C   UNL     1       0.858   3.179  -0.799  0.00  0.00    +0.036 A 
BRANCH   7   9
ATOM      9  C   UNL     1       1.833   1.058  -1.668  0.00  0.00    +0.244 C 
ATOM     10  O   UNL     1       2.624   1.677  -2.352  0.00  0.00    -0.270 OA
ATOM     11  N   UNL     1       1.836  -0.289  -1.685  0.00  0.00    -0.304 N 
ATOM     12  H   UNL     1       1.205  -0.783  -1.139  0.00  0.00    +0.149 HD
BRANCH  11  13
ATOM     13  C   UNL     1       2.794  -1.009  -2.529  0.00  0.00    +0.179 C 
BRANCH  13  14
ATOM     14  C   UNL     1       2.590  -2.493  -2.367  0.00  0.00    +0.122 A 
ATOM     15  C   UNL     1       1.766  -3.259  -3.104  0.00  0.00    +0.046 A 
ATOM     16  C   UNL     1       1.887  -4.580  -2.615  0.00  0.00    +0.041 A 
ATOM     17  C   UNL     1       2.778  -4.542  -1.608  0.00  0.00    +0.195 A 
ATOM     18  O   UNL     1       3.205  -3.276  -1.466  0.00  0.00    -0.466 OA
ENDBRANCH  13  14
ENDBRANCH  11  13
ENDBRANCH   7   9
ENDBRANCH   1   3
BRANCH   1  19
ATOM     19  C   UNL     1       1.104   5.931   0.125  0.00  0.00    +0.141 C 
ATOM     20  S   UNL     1       2.594   5.089   0.107  0.00  0.00    -0.018 S 
BRANCH  19  23
ATOM     21  C   UNL     1       2.250   7.955   0.329  0.00  0.00    +0.253 C 
ATOM     22  O   UNL     1       3.308   7.356   0.316  0.00  0.00    -0.270 OA
ATOM     23  N   UNL     1       1.090   7.274   0.234  0.00  0.00    -0.263 N 
ATOM     24  H   UNL     1       0.246   7.752   0.244  0.00  0.00    +0.157 HD
BRANCH  21  30
ATOM     25  C   UNL     1       3.439  10.135   0.553  0.00  0.00    +0.133 A 
ATOM     26  C   UNL     1       3.413  11.518   0.658  0.00  0.00    +0.047 A 
ATOM     27  C   UNL     1       2.207  12.189   0.672  0.00  0.00    +0.019 A 
ATOM     28  C   UNL     1       1.014  11.490   0.575  0.00  0.00    +0.019 A 
ATOM     29  C   UNL     1       1.021  10.116   0.463  0.00  0.00    +0.032 A 
ATOM     30  C   UNL     1       2.235   9.424   0.448  0.00  0.00    +0.080 A 
ATOM     31 BR   UNL     1      -0.629  12.425   0.596  0.00  0.00    -0.050 Br
BRANCH  25  32
ATOM     32  O   UNL     1       4.623   9.474   0.545  0.00  0.00    -0.491 OA
BRANCH  32  33
ATOM     33  C   UNL     1       5.808  10.265   0.655  0.00  0.00    +0.229 C 
BRANCH  33  35
ATOM     34  C   UNL     1       8.304  10.198   0.747  0.00  0.00    +0.007 C 
ATOM     35  C   UNL     1       7.035   9.351   0.629  0.00  0.00    +0.038 C 
ENDBRANCH  33  35
ENDBRANCH  32  33
ENDBRANCH  25  32
ENDBRANCH  21  30
ENDBRANCH  19  23
ENDBRANCH   1  19
TORSDOF 10
