REMARK  Name = ZINC64870795
REMARK  8 active torsions:
REMARK  status: ('A' for Active; 'I' for Inactive)
REMARK    1  A    between atoms: C_1  and  C_2
REMARK    2  A    between atoms: C_2  and  C_3
REMARK    3  A    between atoms: C_6  and  C_9
REMARK    4  A    between atoms: C_12  and  C_16
REMARK    5  A    between atoms: N_26  and  C_29
REMARK    6  A    between atoms: C_29  and  C_30
REMARK    7  A    between atoms: C_30  and  C_31
REMARK    8  A    between atoms: C_31  and  C_32
REMARK                            x       y       z     vdW  Elec       q    Type
REMARK                         _______ _______ _______ _____ _____    ______ ____
ROOT
ATOM      1  C   UNL     1       5.548  -0.688  -6.649  0.00  0.00    -0.000 A 
ATOM      2  C   UNL     1       6.228  -1.889  -6.512  0.00  0.00    +0.008 A 
ATOM      3  C   UNL     1       7.471  -2.056  -7.087  0.00  0.00    +0.016 A 
ATOM      4  C   UNL     1       8.040  -1.009  -7.807  0.00  0.00    +0.063 A 
ATOM      5  C   UNL     1       7.350   0.208  -7.945  0.00  0.00    +0.056 A 
ATOM      6  C   UNL     1       6.099   0.355  -7.365  0.00  0.00    +0.034 A 
ATOM      7  N   UNL     1       7.941   1.233  -8.668  0.00  0.00    -0.307 N 
ATOM      8  H   UNL     1       7.476   2.078  -8.771  0.00  0.00    +0.170 HD
ATOM      9  C   UNL     1       9.152   1.067  -9.227  0.00  0.00    +0.330 A 
ATOM     10  O   UNL     1       9.636   1.990  -9.853  0.00  0.00    -0.246 OA
ATOM     11  N   UNL     1       9.850  -0.075  -9.124  0.00  0.00    -0.261 N 
ATOM     12  C   UNL     1       9.365  -1.134  -8.441  0.00  0.00    +0.264 A 
ATOM     13  O   UNL     1      10.003  -2.165  -8.353  0.00  0.00    -0.267 OA
ENDROOT
BRANCH   1  16
ATOM     14  C   UNL     1       2.707  -1.868  -4.752  0.00  0.00    +0.180 C 
ATOM     15  N   UNL     1       4.091  -1.349  -4.789  0.00  0.00    -0.265 NA
ATOM     16  C   UNL     1       4.191  -0.523  -6.014  0.00  0.00    +0.242 C 
ATOM     17  O   UNL     1       3.159  -1.034  -6.888  0.00  0.00    -0.274 OA
ATOM     18  N   UNL     1       2.041  -1.333  -5.963  0.00  0.00    -0.177 NA
ATOM     19  H   UNL     1       4.293  -0.801  -3.966  0.00  0.00    +0.127 HD
ATOM     20  H   UNL     1       1.413  -2.015  -6.361  0.00  0.00    +0.156 HD
BRANCH  14  24
ATOM     21  C   UNL     1       0.707  -0.490  -1.238  0.00  0.00    -0.048 A 
ATOM     22  C   UNL     1      -0.011  -0.719  -2.397  0.00  0.00    +0.004 A 
ATOM     23  C   UNL     1       0.636  -1.164  -3.534  0.00  0.00    +0.007 A 
ATOM     24  C   UNL     1       2.002  -1.381  -3.513  0.00  0.00    -0.014 A 
ATOM     25  C   UNL     1       2.720  -1.152  -2.354  0.00  0.00    +0.007 A 
ATOM     26  C   UNL     1       2.073  -0.702  -1.218  0.00  0.00    +0.004 A 
BRANCH  21  28
ATOM     27  C   UNL     1      -0.019   1.526   0.010  0.00  0.00    +0.009 C 
ATOM     28  C   UNL     1       0.002  -0.004   0.002  0.00  0.00    +0.032 C 
ENDBRANCH  21  28
ENDBRANCH  14  24
ENDBRANCH   1  16
BRANCH  11  29
ATOM     29  C   UNL     1      11.165  -0.174  -9.764  0.00  0.00    +0.130 C 
BRANCH  29  30
ATOM     30  C   UNL     1      12.245   0.282  -8.782  0.00  0.00    +0.026 C 
BRANCH  30  31
ATOM     31  C   UNL     1      13.618   0.179  -9.450  0.00  0.00    +0.037 C 
BRANCH  31  32
ATOM     32  C   UNL     1      14.683   0.628  -8.483  0.00  0.00    -0.047 A 
ATOM     33  C   UNL     1      15.057   1.958  -8.435  0.00  0.00    +0.003 A 
ATOM     34  C   UNL     1      16.033   2.370  -7.548  0.00  0.00    +0.000 A 
ATOM     35  C   UNL     1      16.636   1.452  -6.708  0.00  0.00    +0.000 A 
ATOM     36  C   UNL     1      16.261   0.123  -6.755  0.00  0.00    +0.000 A 
ATOM     37  C   UNL     1      15.281  -0.289  -7.639  0.00  0.00    +0.003 A 
ENDBRANCH  31  32
ENDBRANCH  30  31
ENDBRANCH  29  30
ENDBRANCH  11  29
TORSDOF 7
