REMARK  Name = ZINC36032325
REMARK  15 active torsions:
REMARK  status: ('A' for Active; 'I' for Inactive)
REMARK    1  A    between atoms: C_1  and  N_2
REMARK    2  A    between atoms: N_2  and  C_3
REMARK    3  A    between atoms: N_2  and  C_4
REMARK    4  A    between atoms: C_4  and  C_5
REMARK    5  A    between atoms: C_5  and  N_6
REMARK    6  A    between atoms: N_6  and  C_7
REMARK    7  A    between atoms: N_6  and  C_31
REMARK    8  A    between atoms: C_7  and  C_8
REMARK    9  A    between atoms: C_11  and  S_20
REMARK   10  A    between atoms: N_12  and  C_13
REMARK   11  A    between atoms: C_13  and  C_14
REMARK   12  A    between atoms: S_20  and  C_23
REMARK   13  A    between atoms: C_23  and  C_24
REMARK   14  A    between atoms: C_31  and  N_33
REMARK   15  A    between atoms: N_33  and  C_34
REMARK                            x       y       z     vdW  Elec       q    Type
REMARK                         _______ _______ _______ _____ _____    ______ ____
ROOT
ATOM      1  C   UNL     1      -2.249  -4.058  -1.827  0.00  0.00    +0.057 A 
ATOM      2  C   UNL     1      -3.065  -5.033  -2.270  0.00  0.00    +0.137 A 
ATOM      3  N   UNL     1      -2.355  -5.834  -3.078  0.00  0.00    -0.220 NA
ATOM      4  C   UNL     1      -1.129  -5.392  -3.153  0.00  0.00    +0.252 A 
ATOM      5  N   UNL     1      -1.022  -4.282  -2.392  0.00  0.00    -0.309 N 
ENDROOT
BRANCH   4   6
ATOM      6  S   UNL     1       0.169  -6.120  -4.097  0.00  0.00    +0.034 S 
ATOM      7  O   UNL     1       1.363  -5.731  -3.431  0.00  0.00    -0.166 OA
ATOM      8  O   UNL     1      -0.186  -7.491  -4.205  0.00  0.00    -0.166 OA
BRANCH   6   9
ATOM      9  C   UNL     1       0.070  -5.318  -5.721  0.00  0.00    +0.210 C 
BRANCH   9  10
ATOM     10  C   UNL     1       1.147  -5.870  -6.620  0.00  0.00    -0.026 A 
ATOM     11  C   UNL     1       2.393  -5.273  -6.652  0.00  0.00    +0.008 A 
ATOM     12  C   UNL     1       3.381  -5.778  -7.475  0.00  0.00    +0.038 A 
ATOM     13  C   UNL     1       3.123  -6.883  -8.268  0.00  0.00    +0.123 A 
ATOM     14  C   UNL     1       1.874  -7.480  -8.235  0.00  0.00    +0.038 A 
ATOM     15  C   UNL     1       0.889  -6.976  -7.407  0.00  0.00    +0.008 A 
ATOM     16  F   UNL     1       4.088  -7.378  -9.074  0.00  0.00    -0.205 F 
ENDBRANCH   9  10
ENDBRANCH   6   9
ENDBRANCH   4   6
BRANCH   1  17
ATOM     17  C   UNL     1      -2.617  -2.933  -0.894  0.00  0.00    +0.161 C 
BRANCH  17  18
ATOM     18  N   UNL     1      -4.056  -2.675  -0.985  0.00  0.00    -0.309 N 
BRANCH  18  19
ATOM     19  C   UNL     1      -4.534  -1.850  -1.938  0.00  0.00    +0.133 C 
ATOM     20  S   UNL     1      -3.459  -1.104  -3.042  0.00  0.00    -0.019 S 
BRANCH  19  21
ATOM     21  N   UNL     1      -5.858  -1.612  -2.021  0.00  0.00    -0.324 N 
ATOM     22  H   UNL     1      -6.467  -2.035  -1.395  0.00  0.00    +0.148 HD
BRANCH  21  23
ATOM     23  C   UNL     1      -6.377  -0.715  -3.056  0.00  0.00    +0.072 C 
ATOM     24  C   UNL     1      -7.447   0.297  -2.642  0.00  0.00    +0.024 C 
ATOM     25  C   UNL     1      -7.829  -0.912  -3.498  0.00  0.00    +0.024 C 
ENDBRANCH  21  23
ENDBRANCH  19  21
ENDBRANCH  18  19
BRANCH  18  26
ATOM     26  C   UNL     1      -4.976  -3.313  -0.040  0.00  0.00    +0.088 C 
BRANCH  26  27
ATOM     27  C   UNL     1      -5.258  -2.357   1.121  0.00  0.00    -0.060 C 
BRANCH  27  29
ATOM     28  C   UNL     1      -6.250  -2.168   3.297  0.00  0.00    -0.097 C 
ATOM     29  N   UNL     1      -6.092  -3.036   2.122  0.00  0.00    +0.377 N 
ATOM     30  C   UNL     1      -7.412  -3.325   1.546  0.00  0.00    -0.097 C 
ATOM     31  H   UNL     1      -5.649  -3.899   2.398  0.00  0.00    -0.083 HD
ENDBRANCH  27  29
ENDBRANCH  26  27
ENDBRANCH  18  26
ENDBRANCH  17  18
ENDBRANCH   1  17
BRANCH   5  32
ATOM     32  C   UNL     1       0.183  -3.470  -2.203  0.00  0.00    +0.156 C 
BRANCH  32  33
ATOM     33  C   UNL     1       0.941  -3.962  -0.968  0.00  0.00    +0.138 C 
ATOM     34  C   UNL     1       2.233  -3.131  -0.764  0.00  0.00    +0.035 C 
ATOM     35  C   UNL     1       2.461  -3.312   0.761  0.00  0.00    +0.031 C 
ATOM     36  C   UNL     1       1.017  -3.370   1.304  0.00  0.00    +0.160 C 
ATOM     37  O   UNL     1       0.160  -3.742   0.217  0.00  0.00    -0.375 OA
ENDBRANCH  32  33
ENDBRANCH   5  32
TORSDOF 13
