REMARK  Name = ZINC20503311
REMARK  4 active torsions:
REMARK  status: ('A' for Active; 'I' for Inactive)
REMARK    1  A    between atoms: C_14  and  C_28
REMARK    2  A    between atoms: N_16  and  C_17
REMARK    3  A    between atoms: C_17  and  C_18
REMARK    4  A    between atoms: N_20  and  C_21
REMARK                            x       y       z     vdW  Elec       q    Type
REMARK                         _______ _______ _______ _____ _____    ______ ____
ROOT
ATOM      1  C   UNL     1      -2.321   3.531   3.387  0.00  0.00    +0.002 A 
ATOM      2  C   UNL     1      -1.682   2.353   3.041  0.00  0.00    +0.002 A 
ATOM      3  C   UNL     1      -0.644   2.373   2.128  0.00  0.00    +0.025 A 
ATOM      4  C   UNL     1      -0.238   3.567   1.556  0.00  0.00    +0.052 A 
ATOM      5  C   UNL     1      -0.895   4.770   1.884  0.00  0.00    +0.052 A 
ATOM      6  C   UNL     1      -1.938   4.726   2.820  0.00  0.00    +0.025 A 
ATOM      7  N   UNL     1      -0.560   5.945   1.329  0.00  0.00    -0.316 N 
ATOM      8  C   UNL     1       0.551   6.505   1.002  0.00  0.00    +0.017 C 
ATOM      9  C   UNL     1       0.480   7.994   0.696  0.00  0.00    +0.051 C 
ATOM     10  C   UNL     1       1.762   8.668   1.185  0.00  0.00    +0.014 C 
ATOM     11  C   UNL     1       2.947   8.034   0.452  0.00  0.00    +0.080 C 
ATOM     12  C   UNL     1       2.933   6.552   0.675  0.00  0.00    +0.163 C 
ATOM     13  C   UNL     1       1.804   5.858   0.927  0.00  0.00    +0.040 C 
ATOM     14  C   UNL     1       1.931   4.386   1.121  0.00  0.00    +0.175 C 
ATOM     15  N   UNL     1       0.813   3.606   0.663  0.00  0.00    -0.305 N 
ATOM     16  O   UNL     1       4.103   5.880   0.622  0.00  0.00    -0.292 OA
ATOM     17  H   UNL     1      -1.512   6.468   1.153  0.00  0.00    +0.152 HD
ENDROOT
BRANCH  14  18
ATOM     18  C   UNL     1       2.126   4.118   2.591  0.00  0.00    +0.130 A 
ATOM     19  C   UNL     1       3.310   3.974   3.214  0.00  0.00    +0.047 A 
ATOM     20  C   UNL     1       3.028   3.737   4.579  0.00  0.00    +0.041 A 
ATOM     21  C   UNL     1       1.689   3.750   4.708  0.00  0.00    +0.195 A 
ATOM     22  O   UNL     1       1.149   3.987   3.502  0.00  0.00    -0.466 OA
ENDBRANCH  14  18
BRANCH  15  23
ATOM     23  C   UNL     1       1.235   2.251   0.286  0.00  0.00    +0.202 C 
BRANCH  23  24
ATOM     24  C   UNL     1       2.133   2.322  -0.921  0.00  0.00    +0.235 C 
ATOM     25  O   UNL     1       2.308   3.381  -1.486  0.00  0.00    -0.274 OA
ATOM     26  N   UNL     1       2.747   1.209  -1.371  0.00  0.00    -0.284 N 
ATOM     27  H   UNL     1       2.660   0.268  -0.810  0.00  0.00    +0.155 HD
BRANCH  26  28
ATOM     28  C   UNL     1       3.495   1.252  -2.553  0.00  0.00    +0.035 A 
ATOM     29  C   UNL     1       3.110   2.093  -3.590  0.00  0.00    +0.023 A 
ATOM     30  C   UNL     1       3.852   2.137  -4.754  0.00  0.00    +0.003 A 
ATOM     31  C   UNL     1       4.972   1.337  -4.892  0.00  0.00    +0.020 A 
ATOM     32  C   UNL     1       5.355   0.495  -3.864  0.00  0.00    +0.043 A 
ATOM     33  C   UNL     1       4.619   0.450  -2.695  0.00  0.00    +0.043 A 
ATOM     34 CL   UNL     1       6.761  -0.508  -4.042  0.00  0.00    -0.083 Cl
ENDBRANCH  26  28
ENDBRANCH  23  24
ENDBRANCH  15  23
TORSDOF 4
