REMARK  Name = ZINC67188115
REMARK  9 active torsions:
REMARK  status: ('A' for Active; 'I' for Inactive)
REMARK    1  A    between atoms: C_1  and  N_2
REMARK    2  A    between atoms: C_4  and  C_16
REMARK    3  A    between atoms: C_5  and  C_7
REMARK    4  A    between atoms: C_16  and  N_17
REMARK    5  A    between atoms: N_17  and  C_18
REMARK    6  A    between atoms: C_18  and  C_19
REMARK    7  A    between atoms: C_24  and  N_25
REMARK    8  A    between atoms: N_25  and  C_26
REMARK    9  A    between atoms: N_25  and  C_27
REMARK                            x       y       z     vdW  Elec       q    Type
REMARK                         _______ _______ _______ _____ _____    ______ ____
ROOT
ATOM      1  C   UNL     1       1.106   1.084  -0.925  0.00  0.00    +0.172 C 
ATOM      2  N   UNL     1       0.967  -0.372  -0.848  0.00  0.00    -0.274 N 
ATOM      3  C   UNL     1       0.754  -1.204  -1.892  0.00  0.00    +0.110 A 
ATOM      4  C   UNL     1       0.684  -2.465  -1.414  0.00  0.00    -0.016 A 
ATOM      5  C   UNL     1       0.863  -2.407  -0.016  0.00  0.00    +0.129 A 
ATOM      6  N   UNL     1       1.038  -1.145   0.318  0.00  0.00    -0.168 NA
ENDROOT
BRANCH   5   7
ATOM      7  C   UNL     1       0.860  -3.560   0.910  0.00  0.00    +0.156 A 
ATOM      8  C   UNL     1       1.625  -3.668   2.022  0.00  0.00    +0.060 A 
ATOM      9  C   UNL     1       1.293  -4.963   2.620  0.00  0.00    +0.021 A 
ATOM     10  C   UNL     1       1.726  -5.651   3.755  0.00  0.00    +0.011 A 
ATOM     11  C   UNL     1       1.201  -6.880   4.043  0.00  0.00    +0.001 A 
ATOM     12  C   UNL     1       0.243  -7.446   3.215  0.00  0.00    +0.004 A 
ATOM     13  C   UNL     1      -0.197  -6.782   2.090  0.00  0.00    +0.047 A 
ATOM     14  C   UNL     1       0.321  -5.532   1.778  0.00  0.00    +0.136 A 
ATOM     15  O   UNL     1       0.091  -4.659   0.776  0.00  0.00    -0.453 OA
ENDBRANCH   5   7
BRANCH   4  16
ATOM     16  C   UNL     1       0.457  -3.711  -2.229  0.00  0.00    -0.042 C 
BRANCH  16  17
ATOM     17  N   UNL     1      -0.952  -4.112  -2.129  0.00  0.00    +0.385 N 
ATOM     18  H   UNL     1      -1.182  -4.295  -1.163  0.00  0.00    -0.085 HD
ATOM     19  H   UNL     1      -1.539  -3.370  -2.479  0.00  0.00    -0.085 HD
BRANCH  17  20
ATOM     20  C   UNL     1      -1.174  -5.327  -2.924  0.00  0.00    -0.043 C 
BRANCH  20  21
ATOM     21  C   UNL     1      -2.585  -5.814  -2.716  0.00  0.00    -0.026 A 
ATOM     22  C   UNL     1      -2.846  -6.855  -1.844  0.00  0.00    +0.006 A 
ATOM     23  C   UNL     1      -4.161  -7.271  -1.683  0.00  0.00    +0.018 A 
ATOM     24  C   UNL     1      -5.162  -6.637  -2.392  0.00  0.00    +0.084 A 
ATOM     25  N   UNL     1      -4.884  -5.646  -3.217  0.00  0.00    -0.349 N 
ATOM     26  C   UNL     1      -3.643  -5.217  -3.393  0.00  0.00    +0.100 A 
ATOM     27  H   UNL     1      -5.606  -5.218  -3.704  0.00  0.00    +0.167 HD
BRANCH  26  28
ATOM     28  N   UNL     1      -3.396  -4.166  -4.268  0.00  0.00    -0.323 N 
ATOM     29  C   UNL     1      -2.994  -4.441  -5.650  0.00  0.00    +0.130 C 
ATOM     30  C   UNL     1      -3.537  -2.782  -3.809  0.00  0.00    +0.130 C 
ENDBRANCH  26  28
ENDBRANCH  20  21
ENDBRANCH  17  20
ENDBRANCH  16  17
ENDBRANCH   4  16
TORSDOF 6
