REMARK  Name = ZINC37425496
REMARK  13 active torsions:
REMARK  status: ('A' for Active; 'I' for Inactive)
REMARK    1  A    between atoms: C_1  and  C_2
REMARK    2  A    between atoms: C_2  and  C_3
REMARK    3  A    between atoms: C_3  and  N_4
REMARK    4  A    between atoms: C_5  and  C_7
REMARK    5  A    between atoms: C_7  and  N_8
REMARK    6  A    between atoms: C_11  and  C_22
REMARK    7  A    between atoms: N_13  and  C_14
REMARK    8  A    between atoms: C_18  and  C_21
REMARK    9  A    between atoms: C_19  and  C_20
REMARK   10  A    between atoms: C_22  and  C_23
REMARK   11  A    between atoms: C_22  and  C_24
REMARK   12  A    between atoms: C_22  and  C_25
REMARK   13  A    between atoms: C_26  and  C_32
REMARK                            x       y       z     vdW  Elec       q    Type
REMARK                         _______ _______ _______ _____ _____    ______ ____
ROOT
ATOM      1  N   UNL     1       4.021  -8.624  -4.257  0.00  0.00    -0.246 N 
ATOM      2  C   UNL     1       3.057  -7.798  -4.855  0.00  0.00    +0.136 A 
ATOM      3  C   UNL     1       2.390  -8.117  -5.988  0.00  0.00    +0.034 A 
ATOM      4  C   UNL     1       1.524  -7.065  -6.287  0.00  0.00    +0.075 A 
ATOM      5  N   UNL     1       1.663  -6.144  -5.363  0.00  0.00    -0.169 NA
ATOM      6  N   UNL     1       2.626  -6.583  -4.441  0.00  0.00    -0.217 N 
ATOM      7  C   UNL     1       2.572  -9.398  -6.762  0.00  0.00    +0.118 C 
ATOM      8  S   UNL     1       4.176  -9.326  -7.639  0.00  0.00    -0.138 S 
ATOM      9  C   UNL     1       5.257  -8.563  -6.384  0.00  0.00    +0.166 C 
ATOM     10  C   UNL     1       4.987  -9.136  -5.027  0.00  0.00    +0.231 C 
ATOM     11  O   UNL     1       5.646 -10.072  -4.626  0.00  0.00    -0.274 OA
ENDROOT
BRANCH   6  12
ATOM     12  C   UNL     1       3.061  -5.892  -3.302  0.00  0.00    +0.071 A 
ATOM     13  C   UNL     1       4.419  -5.719  -3.070  0.00  0.00    +0.028 A 
ATOM     14  C   UNL     1       4.845  -5.037  -1.947  0.00  0.00    +0.002 A 
ATOM     15  C   UNL     1       3.921  -4.527  -1.054  0.00  0.00    +0.004 A 
ATOM     16  C   UNL     1       2.568  -4.697  -1.283  0.00  0.00    -0.046 A 
ATOM     17  C   UNL     1       2.135  -5.373  -2.407  0.00  0.00    -0.022 A 
ATOM     18  C   UNL     1       0.660  -5.553  -2.659  0.00  0.00    +0.046 C 
ATOM     19  C   UNL     1       1.563  -4.140  -0.307  0.00  0.00    +0.044 C 
ENDBRANCH   6  12
BRANCH   7  20
ATOM     20  C   UNL     1       1.452  -9.550  -7.759  0.00  0.00    +0.007 A 
ATOM     21  C   UNL     1       1.416  -9.185  -9.064  0.00  0.00    +0.012 A 
ATOM     22  C   UNL     1       0.268  -9.426  -9.796  0.00  0.00    +0.008 A 
ATOM     23  C   UNL     1      -0.787 -10.020  -9.187  0.00  0.00    +0.045 A 
ATOM     24  S   UNL     1      -0.168 -10.264  -7.530  0.00  0.00    -0.100 S 
ENDBRANCH   7  20
BRANCH   4  25
ATOM     25  C   UNL     1       0.591  -6.997  -7.468  0.00  0.00    +0.007 C 
ATOM     26  C   UNL     1      -0.546  -8.003  -7.279  0.00  0.00    +0.017 C 
ATOM     27  C   UNL     1       0.009  -5.586  -7.578  0.00  0.00    +0.017 C 
ATOM     28  C   UNL     1       1.361  -7.332  -8.747  0.00  0.00    +0.017 C 
ENDBRANCH   4  25
BRANCH   1  29
ATOM     29  C   UNL     1       3.974  -8.913  -2.822  0.00  0.00    +0.210 C 
BRANCH  29  31
ATOM     30  N   UNL     1       2.772 -10.460  -1.312  0.00  0.00    -0.314 N 
ATOM     31  C   UNL     1       3.051 -10.078  -2.574  0.00  0.00    +0.231 C 
ATOM     32  O   UNL     1       2.559 -10.672  -3.510  0.00  0.00    -0.274 OA
ATOM     33  H   UNL     1       3.106  -9.942  -0.563  0.00  0.00    +0.149 HD
BRANCH  30  34
ATOM     34  C   UNL     1       1.964 -11.659  -1.071  0.00  0.00    +0.104 C 
BRANCH  34  36
ATOM     35  C   UNL     1       1.058 -13.189   0.683  0.00  0.00    +0.005 C 
ATOM     36  C   UNL     1       1.901 -11.938   0.432  0.00  0.00    +0.015 C 
ENDBRANCH  34  36
ENDBRANCH  30  34
ENDBRANCH  29  31
ENDBRANCH   1  29
TORSDOF 7
