REMARK  Name = ZINC15947303
REMARK  9 active torsions:
REMARK  status: ('A' for Active; 'I' for Inactive)
REMARK    1  A    between atoms: C_1  and  C_2
REMARK    2  A    between atoms: C_2  and  N_3
REMARK    3  A    between atoms: C_11  and  O_32
REMARK    4  A    between atoms: C_13  and  C_16
REMARK    5  A    between atoms: C_19  and  C_21
REMARK    6  A    between atoms: C_24  and  C_27
REMARK    7  A    between atoms: C_27  and  O_29
REMARK    8  A    between atoms: O_29  and  C_30
REMARK    9  A    between atoms: C_30  and  C_31
REMARK                            x       y       z     vdW  Elec       q    Type
REMARK                         _______ _______ _______ _____ _____    ______ ____
ROOT
ATOM      1  N   UNL     1       0.713  -0.491   1.192  0.00  0.00    +0.383 N 
ATOM      2  C   UNL     1       0.840  -1.952   1.122  0.00  0.00    -0.074 C 
ATOM      3  C   UNL     1       1.836  -2.447   2.176  0.00  0.00    +0.018 C 
ATOM      4  C   UNL     1       1.420  -1.870   3.522  0.00  0.00    -0.027 A 
ATOM      5  C   UNL     1       0.567  -0.818   3.574  0.00  0.00    -0.021 A 
ATOM      6  S   UNL     1       0.364  -0.488   5.301  0.00  0.00    -0.080 S 
ATOM      7  C   UNL     1       1.352  -1.667   5.923  0.00  0.00    +0.080 A 
ATOM      8  C   UNL     1       1.862  -2.354   4.814  0.00  0.00    +0.067 A 
ATOM      9  C   UNL     1       2.780  -3.492   5.077  0.00  0.00    +0.220 C 
ATOM     10  N   UNL     1       3.250  -3.624   6.288  0.00  0.00    -0.220 NA
ATOM     11  C   UNL     1       2.987  -2.698   7.382  0.00  0.00    +0.260 C 
ATOM     12  N   UNL     1       1.695  -2.008   7.211  0.00  0.00    -0.311 N 
ATOM     13  C   UNL     1      -0.043  -0.117   2.402  0.00  0.00    -0.035 C 
ATOM     14  H   UNL     1       1.120  -1.805   7.965  0.00  0.00    +0.149 HD
ATOM     15  H   UNL     1       1.631  -0.075   1.228  0.00  0.00    -0.081 HD
ENDROOT
BRANCH  11  16
ATOM     16  C   UNL     1       4.089  -1.671   7.433  0.00  0.00    +0.148 A 
ATOM     17  C   UNL     1       5.367  -1.870   7.052  0.00  0.00    +0.049 A 
ATOM     18  C   UNL     1       6.054  -0.659   7.263  0.00  0.00    +0.050 A 
ATOM     19  C   UNL     1       5.148   0.223   7.767  0.00  0.00    +0.135 A 
ATOM     20  O   UNL     1       3.959  -0.404   7.859  0.00  0.00    -0.456 OA
BRANCH  19  21
ATOM     21  C   UNL     1       5.419   1.623   8.143  0.00  0.00    +0.017 A 
ATOM     22  C   UNL     1       6.703   2.154   7.984  0.00  0.00    +0.012 A 
ATOM     23  C   UNL     1       6.955   3.450   8.331  0.00  0.00    +0.015 A 
ATOM     24  C   UNL     1       5.927   4.248   8.845  0.00  0.00    +0.059 A 
ATOM     25  C   UNL     1       4.642   3.718   9.003  0.00  0.00    +0.015 A 
ATOM     26  C   UNL     1       4.390   2.423   8.651  0.00  0.00    +0.012 A 
BRANCH  24  27
ATOM     27  C   UNL     1       6.198   5.648   9.220  0.00  0.00    +0.339 C 
ATOM     28  O   UNL     1       7.314   6.108   9.083  0.00  0.00    -0.245 OA
BRANCH  27  29
ATOM     29  O   UNL     1       5.208   6.417   9.715  0.00  0.00    -0.461 OA
BRANCH  29  30
ATOM     30  C   UNL     1       5.542   7.763  10.057  0.00  0.00    +0.229 C 
ATOM     31  C   UNL     1       4.300   8.475  10.598  0.00  0.00    +0.048 C 
ENDBRANCH  29  30
ENDBRANCH  27  29
ENDBRANCH  24  27
ENDBRANCH  19  21
ENDBRANCH  11  16
BRANCH   1  33
ATOM     32  C   UNL     1      -0.019   1.526   0.010  0.00  0.00    -0.017 C 
ATOM     33  C   UNL     1       0.002  -0.004   0.002  0.00  0.00    -0.082 C 
ENDBRANCH   1  33
BRANCH   9  34
ATOM     34  O   UNL     1       3.117  -4.361   4.096  0.00  0.00    -0.492 OA
ATOM     35  H   UNL     1       3.720  -5.061   4.382  0.00  0.00    +0.294 HD
ENDBRANCH   9  34
TORSDOF 7
