REMARK  Name = ZINC22511022
REMARK  8 active torsions:
REMARK  status: ('A' for Active; 'I' for Inactive)
REMARK    1  A    between atoms: C_1  and  C_2
REMARK    2  A    between atoms: N_6  and  C_7
REMARK    3  A    between atoms: C_10  and  C_13
REMARK    4  A    between atoms: C_13  and  N_14
REMARK    5  A    between atoms: C_15  and  C_17
REMARK    6  A    between atoms: N_22  and  S_24
REMARK    7  A    between atoms: S_24  and  C_27
REMARK    8  A    between atoms: C_27  and  C_28
REMARK                            x       y       z     vdW  Elec       q    Type
REMARK                         _______ _______ _______ _____ _____    ______ ____
ROOT
ATOM      1  N   UNL     1       8.967   1.150  -3.402  0.00  0.00    -0.311 N 
ATOM      2  C   UNL     1       7.984   1.471  -2.539  0.00  0.00    +0.218 C 
ATOM      3  O   UNL     1       8.187   2.286  -1.664  0.00  0.00    -0.275 OA
ATOM      4  H   UNL     1       8.783   0.410  -4.196  0.00  0.00    +0.149 HD
ENDROOT
BRANCH   2   5
ATOM      5  C   UNL     1       6.631   0.818  -2.661  0.00  0.00    +0.091 C 
ATOM      6  C   UNL     1       6.780  -0.698  -2.504  0.00  0.00    +0.015 C 
ATOM      7  C   UNL     1       5.411  -1.365  -2.660  0.00  0.00    +0.018 C 
ATOM      8  C   UNL     1       4.471  -0.855  -1.563  0.00  0.00    +0.109 C 
ATOM      9  N   UNL     1       4.436   0.613  -1.615  0.00  0.00    -0.180 NA
ATOM     10  C   UNL     1       5.705   1.352  -1.570  0.00  0.00    +0.121 C 
BRANCH   9  11
ATOM     11  S   UNL     1       2.994   1.419  -1.729  0.00  0.00    +0.036 S 
ATOM     12  O   UNL     1       2.112   0.497  -2.356  0.00  0.00    -0.158 OA
ATOM     13  O   UNL     1       3.317   2.653  -2.356  0.00  0.00    -0.158 OA
BRANCH  11  14
ATOM     14  C   UNL     1       2.482   1.705  -0.013  0.00  0.00    +0.223 C 
BRANCH  14  15
ATOM     15  C   UNL     1       1.167   2.440   0.004  0.00  0.00    +0.012 A 
ATOM     16  C   UNL     1       1.147   3.823   0.011  0.00  0.00    +0.047 A 
ATOM     17  C   UNL     1      -0.061   4.497   0.026  0.00  0.00    +0.020 A 
ATOM     18  C   UNL     1      -1.248   3.789   0.033  0.00  0.00    +0.003 A 
ATOM     19  C   UNL     1      -1.229   2.407   0.021  0.00  0.00    +0.020 A 
ATOM     20  C   UNL     1      -0.021   1.732   0.012  0.00  0.00    +0.047 A 
ATOM     21 CL   UNL     1       0.002  -0.004   0.002  0.00  0.00    -0.083 Cl
ATOM     22 CL   UNL     1       2.638   4.712   0.001  0.00  0.00    -0.083 Cl
ENDBRANCH  14  15
ENDBRANCH  11  14
ENDBRANCH   9  11
ENDBRANCH   2   5
BRANCH   1  23
ATOM     23  C   UNL     1      10.282   1.785  -3.284  0.00  0.00    +0.139 C 
BRANCH  23  27
ATOM     24  C   UNL     1      12.869   0.284  -6.338  0.00  0.00    +0.048 A 
ATOM     25  C   UNL     1      12.089   1.408  -6.577  0.00  0.00    +0.026 A 
ATOM     26  C   UNL     1      11.254   1.891  -5.588  0.00  0.00    +0.007 A 
ATOM     27  C   UNL     1      11.194   1.256  -4.361  0.00  0.00    -0.030 A 
ATOM     28  C   UNL     1      11.974   0.140  -4.118  0.00  0.00    +0.007 A 
ATOM     29  C   UNL     1      12.806  -0.351  -5.105  0.00  0.00    +0.026 A 
BRANCH  24  35
ATOM     30  C   UNL     1      15.844  -0.377  -5.941  0.00  0.00    +0.084 C 
ATOM     31  C   UNL     1      15.034  -0.512  -7.205  0.00  0.00    +0.088 A 
ATOM     32  N   UNL     1      15.481  -0.944  -8.353  0.00  0.00    -0.350 N 
ATOM     33  C   UNL     1      14.486  -0.924  -9.252  0.00  0.00    +0.102 A 
ATOM     34  C   UNL     1      13.376  -0.468  -8.642  0.00  0.00    +0.110 A 
ATOM     35  N   UNL     1      13.717  -0.208  -7.340  0.00  0.00    -0.305 N 
ATOM     36  H   UNL     1      16.532  -1.252  -8.453  0.00  0.00    +0.166 HD
ENDBRANCH  24  35
ENDBRANCH  23  27
ENDBRANCH   1  23
TORSDOF 7
