REMARK  Name = ZINC62752011
REMARK  7 active torsions:
REMARK  status: ('A' for Active; 'I' for Inactive)
REMARK    1  A    between atoms: C_1  and  C_2
REMARK    2  A    between atoms: N_8  and  C_9
REMARK    3  A    between atoms: C_12  and  C_21
REMARK    4  A    between atoms: C_16  and  C_18
REMARK    5  A    between atoms: C_21  and  C_22
REMARK    6  A    between atoms: C_21  and  C_23
REMARK    7  A    between atoms: C_21  and  C_24
REMARK                            x       y       z     vdW  Elec       q    Type
REMARK                         _______ _______ _______ _____ _____    ______ ____
ROOT
ATOM      1  C   UNL     1       0.740  -1.508   2.688  0.00  0.00    -0.054 C 
ATOM      2  C   UNL     1       1.064  -1.198   1.225  0.00  0.00    -0.011 C 
ATOM      3  C   UNL     1       0.031  -0.214   0.671  0.00  0.00    -0.007 C 
ATOM      4  C   UNL     1       0.072   1.080   1.487  0.00  0.00    +0.005 C 
ATOM      5  C   UNL     1      -0.252   0.770   2.950  0.00  0.00    +0.013 C 
ATOM      6  C   UNL     1       0.780  -0.214   3.504  0.00  0.00    +0.089 C 
ENDROOT
BRANCH   1  13
ATOM      7  C   UNL     1       0.350  -2.746   5.221  0.00  0.00    -0.011 C 
ATOM      8  C   UNL     1       1.737  -2.383   4.687  0.00  0.00    -0.045 C 
ATOM      9  C   UNL     1       2.770  -3.369   5.238  0.00  0.00    +0.144 C 
ATOM     10  O   UNL     1       4.056  -3.059   4.692  0.00  0.00    -0.383 OA
ATOM     11  C   UNL     1       4.095  -3.092   3.263  0.00  0.00    +0.141 C 
ATOM     12  C   UNL     1       3.064  -2.106   2.707  0.00  0.00    -0.049 C 
ATOM     13  N   UNL     1       1.731  -2.453   3.219  0.00  0.00    +0.387 N 
ATOM     14  H   UNL     1       1.493  -3.390   2.928  0.00  0.00    -0.081 HD
ENDBRANCH   1  13
BRANCH   3  15
ATOM     15  C   UNL     1       0.355   0.096  -0.792  0.00  0.00    -0.035 C 
ATOM     16  C   UNL     1       0.315  -1.198  -1.608  0.00  0.00    +0.011 C 
ATOM     17  C   UNL     1      -0.677   1.080  -1.345  0.00  0.00    +0.011 C 
ATOM     18  C   UNL     1       1.751   0.714  -0.885  0.00  0.00    +0.011 C 
ENDBRANCH   3  15
BRANCH   6  19
ATOM     19  C   UNL     1       2.155   0.395   3.412  0.00  0.00    +0.357 C 
ATOM     20  O   UNL     1       2.763   0.684   4.428  0.00  0.00    -0.246 OA
ATOM     21  O   UNL     1       2.660   0.599   2.321  0.00  0.00    -0.246 OA
ENDBRANCH   6  19
TORSDOF 3
