REMARK  Name = ZINC35487001
REMARK  12 active torsions:
REMARK  status: ('A' for Active; 'I' for Inactive)
REMARK    1  A    between atoms: C_1  and  C_2
REMARK    2  A    between atoms: C_7  and  C_8
REMARK    3  A    between atoms: C_14  and  C_25
REMARK    4  A    between atoms: N_16  and  C_19
REMARK    5  A    between atoms: C_19  and  C_20
REMARK    6  A    between atoms: C_20  and  C_21
REMARK    7  A    between atoms: C_21  and  N_22
REMARK    8  A    between atoms: N_22  and  C_23
REMARK    9  A    between atoms: N_22  and  C_24
REMARK   10  A    between atoms: C_27  and  O_33
REMARK   11  A    between atoms: C_28  and  O_32
REMARK   12  A    between atoms: O_33  and  C_34
REMARK                            x       y       z     vdW  Elec       q    Type
REMARK                         _______ _______ _______ _____ _____    ______ ____
ROOT
ATOM      1  C   UNL     1      -0.018   1.503   0.010  0.00  0.00    +0.044 C 
ATOM      2  C   UNL     1       0.002  -0.004   0.002  0.00  0.00    -0.047 A 
ATOM      3  C   UNL     1       0.006  -0.685  -1.195  0.00  0.00    +0.019 A 
ATOM      4  C   UNL     1       0.024  -2.080  -1.194  0.00  0.00    +0.065 A 
ATOM      5  C   UNL     1       0.033  -2.793   0.016  0.00  0.00    +0.140 A 
ATOM      6  C   UNL     1       0.033  -2.080   1.214  0.00  0.00    +0.050 A 
ATOM      7  C   UNL     1       0.023  -0.703   1.200  0.00  0.00    -0.044 A 
ATOM      8  C   UNL     1       0.029   0.053   2.503  0.00  0.00    +0.044 C 
ATOM      9  O   UNL     1       0.037  -4.145   0.057  0.00  0.00    -0.450 OA
ATOM     10  C   UNL     1       0.273  -4.846  -1.070  0.00  0.00    +0.199 A 
ATOM     11  C   UNL     1       0.280  -4.269  -2.308  0.00  0.00    +0.072 A 
ATOM     12  C   UNL     1       0.036  -2.832  -2.474  0.00  0.00    +0.199 A 
ATOM     13  O   UNL     1      -0.140  -2.306  -3.559  0.00  0.00    -0.287 OA
ATOM     14  C   UNL     1       0.566  -5.340  -3.308  0.00  0.00    +0.145 C 
ATOM     15  N   UNL     1       0.729  -6.581  -2.533  0.00  0.00    -0.284 N 
ATOM     16  C   UNL     1       0.557  -6.283  -1.228  0.00  0.00    +0.283 C 
ATOM     17  O   UNL     1       0.627  -7.083  -0.317  0.00  0.00    -0.267 OA
ENDROOT
BRANCH  14  18
ATOM     18  C   UNL     1       1.834  -5.025  -4.060  0.00  0.00    -0.018 A 
ATOM     19  C   UNL     1       1.767  -4.490  -5.333  0.00  0.00    +0.055 A 
ATOM     20  C   UNL     1       2.931  -4.200  -6.025  0.00  0.00    +0.163 A 
ATOM     21  C   UNL     1       4.167  -4.447  -5.436  0.00  0.00    +0.173 A 
ATOM     22  C   UNL     1       4.228  -4.983  -4.160  0.00  0.00    +0.063 A 
ATOM     23  C   UNL     1       3.062  -5.266  -3.472  0.00  0.00    +0.025 A 
ATOM     24 BR   UNL     1       5.906  -5.321  -3.355  0.00  0.00    -0.046 Br
BRANCH  21  25
ATOM     25  O   UNL     1       5.313  -4.165  -6.112  0.00  0.00    -0.503 OA
ATOM     26  H   UNL     1       5.645  -3.268  -5.966  0.00  0.00    +0.292 HD
ENDBRANCH  21  25
BRANCH  20  27
ATOM     27  O   UNL     1       2.866  -3.675  -7.278  0.00  0.00    -0.491 OA
ATOM     28  C   UNL     1       1.563  -3.448  -7.819  0.00  0.00    +0.277 C 
ENDBRANCH  20  27
ENDBRANCH  14  18
BRANCH  15  29
ATOM     29  C   UNL     1       1.025  -7.907  -3.081  0.00  0.00    +0.107 C 
BRANCH  29  30
ATOM     30  C   UNL     1       2.541  -8.104  -3.146  0.00  0.00    +0.000 C 
BRANCH  30  31
ATOM     31  C   UNL     1       2.850  -9.489  -3.719  0.00  0.00    -0.078 C 
BRANCH  31  32
ATOM     32  N   UNL     1       4.306  -9.679  -3.781  0.00  0.00    +0.376 N 
ATOM     33  C   UNL     1       4.602 -11.050  -4.218  0.00  0.00    -0.097 C 
ATOM     34  C   UNL     1       4.883  -8.725  -4.737  0.00  0.00    -0.097 C 
ATOM     35  H   UNL     1       4.705  -9.523  -2.868  0.00  0.00    -0.083 HD
ENDBRANCH  31  32
ENDBRANCH  30  31
ENDBRANCH  29  30
ENDBRANCH  15  29
TORSDOF 7
