REMARK  Name = ZINC26103738
REMARK  8 active torsions:
REMARK  status: ('A' for Active; 'I' for Inactive)
REMARK    1  A    between atoms: C_1  and  C_2
REMARK    2  A    between atoms: C_7  and  C_8
REMARK    3  A    between atoms: C_8  and  C_9
REMARK    4  A    between atoms: C_8  and  C_10
REMARK    5  A    between atoms: C_11  and  C_16
REMARK    6  A    between atoms: C_16  and  S_17
REMARK    7  A    between atoms: S_17  and  C_18
REMARK    8  A    between atoms: N_27  and  C_28
REMARK                            x       y       z     vdW  Elec       q    Type
REMARK                         _______ _______ _______ _____ _____    ______ ____
ROOT
ATOM      1  C   UNL     1       5.179  -2.472  -0.040  0.00  0.00    +0.044 C 
ATOM      2  C   UNL     1       3.806  -1.852  -0.034  0.00  0.00    -0.044 A 
ATOM      3  C   UNL     1       3.668  -0.500   0.202  0.00  0.00    +0.050 A 
ATOM      4  C   UNL     1       2.404   0.074   0.209  0.00  0.00    +0.140 A 
ATOM      5  C   UNL     1       1.278  -0.734  -0.028  0.00  0.00    +0.022 A 
ATOM      6  C   UNL     1       1.439  -2.103  -0.265  0.00  0.00    +0.016 A 
ATOM      7  C   UNL     1       2.693  -2.647  -0.267  0.00  0.00    -0.041 A 
ATOM      8  C   UNL     1      -0.053  -0.120  -0.019  0.00  0.00    -0.020 A 
ATOM      9  C   UNL     1      -0.142   1.214   0.218  0.00  0.00    +0.097 A 
ATOM     10  C   UNL     1       1.031   1.965   0.448  0.00  0.00    +0.338 A 
ATOM     11  O   UNL     1       0.938   3.160   0.659  0.00  0.00    -0.245 OA
ATOM     12  O   UNL     1       2.246   1.395   0.439  0.00  0.00    -0.422 OA
ENDROOT
BRANCH   7  13
ATOM     13  C   UNL     1       2.867  -4.122  -0.523  0.00  0.00    +0.013 C 
ATOM     14  C   UNL     1       2.239  -4.917   0.624  0.00  0.00    +0.012 C 
ATOM     15  C   UNL     1       2.181  -4.496  -1.838  0.00  0.00    +0.012 C 
ENDBRANCH   7  13
BRANCH   8  16
ATOM     16  C   UNL     1      -1.289  -0.946  -0.267  0.00  0.00    +0.113 C 
BRANCH  16  17
ATOM     17  S   UNL     1      -1.653  -0.970  -2.039  0.00  0.00    -0.083 S 
BRANCH  17  18
ATOM     18  C   UNL     1      -3.101  -1.975  -2.041  0.00  0.00    +0.172 A 
ATOM     19  N   UNL     1      -3.545  -2.430  -0.901  0.00  0.00    -0.223 NA
ATOM     20  C   UNL     1      -4.661  -3.215  -0.821  0.00  0.00    +0.086 A 
ATOM     21  C   UNL     1      -5.253  -3.775   0.320  0.00  0.00    +0.036 A 
ATOM     22  C   UNL     1      -6.365  -4.532   0.207  0.00  0.00    +0.048 A 
ATOM     23  S   UNL     1      -6.673  -4.519  -1.552  0.00  0.00    -0.090 S 
ATOM     24  C   UNL     1      -5.303  -3.504  -2.039  0.00  0.00    +0.102 A 
ATOM     25  C   UNL     1      -4.822  -3.014  -3.251  0.00  0.00    +0.269 A 
ATOM     26  O   UNL     1      -5.389  -3.272  -4.299  0.00  0.00    -0.266 OA
ATOM     27  N   UNL     1      -3.712  -2.238  -3.234  0.00  0.00    -0.290 N 
ATOM     28  C   UNL     1      -3.169  -1.693  -4.480  0.00  0.00    +0.154 C 
ENDBRANCH  17  18
ENDBRANCH  16  17
ENDBRANCH   8  16
TORSDOF 4
