REMARK  Name = ZINC09685530
REMARK  5 active torsions:
REMARK  status: ('A' for Active; 'I' for Inactive)
REMARK    1  A    between atoms: C_1  and  O_2
REMARK    2  A    between atoms: O_2  and  C_3
REMARK    3  A    between atoms: C_6  and  C_13
REMARK    4  A    between atoms: C_8  and  O_9
REMARK    5  A    between atoms: O_9  and  C_10
REMARK                            x       y       z     vdW  Elec       q    Type
REMARK                         _______ _______ _______ _____ _____    ______ ____
ROOT
ATOM      1  C   UNL     1       2.542  -2.800  -0.038  0.00  0.00    +0.209 C 
ATOM      2  N   UNL     1       2.436  -4.003  -0.883  0.00  0.00    -0.293 N 
ATOM      3  C   UNL     1       1.900  -5.154  -0.370  0.00  0.00    +0.183 C 
ATOM      4  N   UNL     1       1.997  -5.446   0.915  0.00  0.00    -0.183 NA
ATOM      5  C   UNL     1       2.579  -4.545   1.740  0.00  0.00    +0.236 A 
ATOM      6  N   UNL     1       2.877  -3.261   1.315  0.00  0.00    -0.285 N 
ATOM      7  C   UNL     1       3.479  -2.617   2.353  0.00  0.00    +0.072 A 
ATOM      8  C   UNL     1       3.996  -1.335   2.499  0.00  0.00    +0.028 A 
ATOM      9  C   UNL     1       4.546  -1.012   3.730  0.00  0.00    +0.002 A 
ATOM     10  C   UNL     1       4.586  -1.916   4.777  0.00  0.00    +0.002 A 
ATOM     11  C   UNL     1       4.079  -3.197   4.657  0.00  0.00    +0.030 A 
ATOM     12  C   UNL     1       3.519  -3.548   3.423  0.00  0.00    +0.091 A 
ATOM     13  N   UNL     1       2.958  -4.692   2.987  0.00  0.00    -0.210 NA
ATOM     14  N   UNL     1       1.249  -6.019  -1.207  0.00  0.00    -0.331 N 
ATOM     15  H   UNL     1       2.746  -3.979  -1.802  0.00  0.00    +0.151 HD
ATOM     16  H   UNL     1       0.865  -6.838  -0.855  0.00  0.00    +0.145 HD
ATOM     17  H   UNL     1       1.172  -5.815  -2.152  0.00  0.00    +0.145 HD
ENDROOT
BRANCH   1  21
ATOM     18  C   UNL     1      -1.192  -0.718   0.010  0.00  0.00    +0.162 A 
ATOM     19  C   UNL     1      -1.168  -2.103   0.002  0.00  0.00    +0.050 A 
ATOM     20  C   UNL     1       0.041  -2.773  -0.013  0.00  0.00    +0.011 A 
ATOM     21  C   UNL     1       1.227  -2.064  -0.021  0.00  0.00    -0.003 A 
ATOM     22  C   UNL     1       1.210  -0.682  -0.019  0.00  0.00    +0.057 A 
ATOM     23  C   UNL     1       0.002  -0.004   0.002  0.00  0.00    +0.169 A 
BRANCH  18  25
ATOM     24  C   UNL     1      -3.567  -0.854   0.031  0.00  0.00    +0.277 C 
ATOM     25  O   UNL     1      -2.381  -0.057   0.024  0.00  0.00    -0.491 OA
ENDBRANCH  18  25
BRANCH  23  26
ATOM     26  O   UNL     1      -0.016   1.356   0.009  0.00  0.00    -0.431 OA
BRANCH  26  27
ATOM     27  C   UNL     1       1.248   2.022   0.001  0.00  0.00    +0.541 C 
ATOM     28  F   UNL     1       1.979   1.649   1.134  0.00  0.00    -0.166 F 
ATOM     29  F   UNL     1       1.957   1.662  -1.150  0.00  0.00    -0.166 F 
ENDBRANCH  26  27
ENDBRANCH  23  26
ENDBRANCH   1  21
TORSDOF 4
