REMARK  Name = ZINC39456773
REMARK  8 active torsions:
REMARK  status: ('A' for Active; 'I' for Inactive)
REMARK    1  A    between atoms: C_1  and  C_2
REMARK    2  A    between atoms: C_2  and  O_3
REMARK    3  A    between atoms: O_3  and  N_4
REMARK    4  A    between atoms: C_5  and  C_32
REMARK    5  A    between atoms: C_6  and  C_25
REMARK    6  A    between atoms: C_11  and  S_19
REMARK    7  A    between atoms: S_19  and  C_20
REMARK    8  A    between atoms: C_30  and  O_31
REMARK                            x       y       z     vdW  Elec       q    Type
REMARK                         _______ _______ _______ _____ _____    ______ ____
ROOT
ATOM      1  N   UNL     1       0.769  -1.889   1.248  0.00  0.00    -0.184 N 
ATOM      2  C   UNL     1      -0.144  -2.689   1.855  0.00  0.00    +0.063 A 
ATOM      3  C   UNL     1       0.266  -3.984   1.730  0.00  0.00    +0.013 A 
ATOM      4  C   UNL     1       1.478  -3.970   1.017  0.00  0.00    -0.009 A 
ATOM      5  C   UNL     1       1.780  -2.668   0.727  0.00  0.00    +0.110 A 
ATOM      6  C   UNL     1       2.958  -2.152   0.011  0.00  0.00    +0.103 A 
ATOM      7  C   UNL     1       3.637  -2.868  -1.054  0.00  0.00    +0.059 A 
ATOM      8  C   UNL     1       4.696  -2.208  -1.729  0.00  0.00    +0.029 A 
ATOM      9  C   UNL     1       5.078  -0.918  -1.300  0.00  0.00    +0.014 A 
ATOM     10  C   UNL     1       6.113  -0.222  -1.941  0.00  0.00    +0.011 A 
ATOM     11  C   UNL     1       6.486   1.008  -1.486  0.00  0.00    +0.001 A 
ATOM     12  C   UNL     1       5.846   1.585  -0.393  0.00  0.00    +0.002 A 
ATOM     13  C   UNL     1       4.828   0.942   0.243  0.00  0.00    +0.028 A 
ATOM     14  C   UNL     1       4.409  -0.323  -0.204  0.00  0.00    +0.073 A 
ATOM     15  N   UNL     1       3.389  -0.948   0.386  0.00  0.00    -0.244 NA
ATOM     16  C   UNL     1       3.386  -4.188  -1.464  0.00  0.00    +0.167 C 
ATOM     17  O   UNL     1       4.036  -4.572  -2.414  0.00  0.00    -0.292 OA
ATOM     18  C   UNL     1       2.451  -5.164  -0.903  0.00  0.00    +0.084 C 
ATOM     19  C   UNL     1       2.315  -5.142   0.608  0.00  0.00    +0.046 C 
ATOM     20  C   UNL     1      -1.399  -2.225   2.548  0.00  0.00    +0.068 C 
ENDROOT
BRANCH   3  21
ATOM     21  C   UNL     1      -0.436  -5.184   2.250  0.00  0.00    +0.026 A 
ATOM     22  C   UNL     1      -1.370  -5.846   1.458  0.00  0.00    +0.012 A 
ATOM     23  C   UNL     1      -2.020  -6.962   1.946  0.00  0.00    +0.001 A 
ATOM     24  C   UNL     1      -1.746  -7.425   3.221  0.00  0.00    +0.004 A 
ATOM     25  C   UNL     1      -0.821  -6.775   4.015  0.00  0.00    +0.046 A 
ATOM     26  C   UNL     1      -0.158  -5.657   3.536  0.00  0.00    +0.125 A 
BRANCH  26  27
ATOM     27  O   UNL     1       0.756  -5.021   4.314  0.00  0.00    -0.506 OA
ATOM     28  H   UNL     1       0.383  -4.321   4.867  0.00  0.00    +0.292 HD
ENDBRANCH  26  27
ENDBRANCH   3  21
BRANCH   8  29
ATOM     29  S   UNL     1       5.520  -2.984  -3.080  0.00  0.00    -0.127 S 
ATOM     30  C   UNL     1       4.567  -2.463  -4.533  0.00  0.00    +0.090 C 
ENDBRANCH   8  29
BRANCH   1  31
ATOM     31  O   UNL     1       0.693  -0.477   1.160  0.00  0.00    -0.411 OA
BRANCH  31  33
ATOM     32  C   UNL     1      -0.019   1.526   0.010  0.00  0.00    +0.051 C 
ATOM     33  C   UNL     1       0.002  -0.004   0.002  0.00  0.00    +0.257 C 
ENDBRANCH  31  33
ENDBRANCH   1  31
TORSDOF 5
