REMARK  Name = ZINC42958049
REMARK  9 active torsions:
REMARK  status: ('A' for Active; 'I' for Inactive)
REMARK    1  A    between atoms: C_1  and  C_2
REMARK    2  A    between atoms: C_2  and  C_3
REMARK    3  A    between atoms: C_3  and  C_5
REMARK    4  A    between atoms: C_3  and  N_22
REMARK    5  A    between atoms: C_5  and  C_7
REMARK    6  A    between atoms: C_5  and  O_14
REMARK    7  A    between atoms: O_14  and  C_15
REMARK    8  A    between atoms: C_15  and  C_16
REMARK    9  A    between atoms: C_16  and  C_17
REMARK                            x       y       z     vdW  Elec       q    Type
REMARK                         _______ _______ _______ _____ _____    ______ ____
ROOT
ATOM      1  C   UNL     1       0.688  -2.138   1.187  0.00  0.00    +0.134 C 
ENDROOT
BRANCH   1   2
ATOM      2  C   UNL     1       1.043  -2.844   2.470  0.00  0.00    -0.020 A 
ATOM      3  C   UNL     1       2.353  -3.210   2.717  0.00  0.00    +0.007 A 
ATOM      4  C   UNL     1       2.679  -3.857   3.894  0.00  0.00    +0.015 A 
ATOM      5  C   UNL     1       1.695  -4.139   4.824  0.00  0.00    +0.018 A 
ATOM      6  C   UNL     1       0.384  -3.772   4.576  0.00  0.00    +0.015 A 
ATOM      7  C   UNL     1       0.060  -3.120   3.401  0.00  0.00    +0.007 A 
ATOM      8 BR   UNL     1       2.141  -5.025   6.434  0.00  0.00    -0.050 Br
ENDBRANCH   1   2
BRANCH   1   9
ATOM      9  C   UNL     1       1.046  -0.655   1.304  0.00  0.00    -0.042 C 
BRANCH   9  10
ATOM     10  N   UNL     1       0.570   0.060   0.113  0.00  0.00    +0.382 N 
ATOM     11  H   UNL     1       1.062  -0.277  -0.701  0.00  0.00    -0.090 HD
ATOM     12  H   UNL     1      -0.420  -0.100  -0.002  0.00  0.00    -0.090 HD
ATOM     13  H   UNL     1       0.740   1.049   0.224  0.00  0.00    -0.090 HD
ENDBRANCH   9  10
BRANCH   9  15
ATOM     14  C   UNL     1       2.919   0.973   1.596  0.00  0.00    +0.002 C 
ATOM     15  C   UNL     1       2.565  -0.504   1.416  0.00  0.00    -0.017 C 
ENDBRANCH   9  15
ENDBRANCH   1   9
BRANCH   1  16
ATOM     16  O   UNL     1       1.418  -2.720   0.105  0.00  0.00    -0.368 OA
BRANCH  16  17
ATOM     17  C   UNL     1       0.619  -3.016  -1.042  0.00  0.00    +0.242 C 
BRANCH  17  18
ATOM     18  C   UNL     1       1.477  -3.728  -2.091  0.00  0.00    +0.330 C 
ATOM     19  F   UNL     1       0.695  -4.018  -3.214  0.00  0.00    -0.197 F 
ATOM     20  F   UNL     1       2.539  -2.898  -2.465  0.00  0.00    -0.197 F 
BRANCH  18  21
ATOM     21  C   UNL     1       2.027  -5.028  -1.502  0.00  0.00    +0.412 C 
ATOM     22  F   UNL     1       2.811  -5.679  -2.461  0.00  0.00    -0.203 F 
ATOM     23  F   UNL     1       2.809  -4.738  -0.379  0.00  0.00    -0.203 F 
ENDBRANCH  18  21
ENDBRANCH  17  18
ENDBRANCH  16  17
ENDBRANCH   1  16
TORSDOF 8
