REMARK  Name = ZINC11035665
REMARK  1 active torsions:
REMARK  status: ('A' for Active; 'I' for Inactive)
REMARK    1  A    between atoms: C_10  and  C_16
REMARK                            x       y       z     vdW  Elec       q    Type
REMARK                         _______ _______ _______ _____ _____    ______ ____
ROOT
ATOM      1  C   UNL     1      -0.017   1.373   0.010  0.00  0.00    +0.002 A 
ATOM      2  C   UNL     1       1.170   2.091   0.002  0.00  0.00    +0.002 A 
ATOM      3  C   UNL     1       2.384   1.436  -0.013  0.00  0.00    +0.028 A 
ATOM      4  C   UNL     1       2.425   0.049  -0.021  0.00  0.00    +0.072 A 
ATOM      5  C   UNL     1       1.223  -0.684  -0.014  0.00  0.00    +0.091 A 
ATOM      6  C   UNL     1       0.002  -0.004   0.002  0.00  0.00    +0.030 A 
ATOM      7  N   UNL     1       1.550  -2.004  -0.026  0.00  0.00    -0.210 NA
ATOM      8  C   UNL     1       2.850  -2.135  -0.051  0.00  0.00    +0.236 A 
ATOM      9  N   UNL     1       3.434  -0.883  -0.034  0.00  0.00    -0.285 N 
ATOM     10  C   UNL     1       4.891  -0.705  -0.021  0.00  0.00    +0.216 C 
ATOM     11  N   UNL     1       5.471  -1.938  -0.585  0.00  0.00    -0.292 N 
ATOM     12  C   UNL     1       4.897  -3.150  -0.308  0.00  0.00    +0.183 C 
ATOM     13  N   UNL     1       5.683  -4.269  -0.272  0.00  0.00    -0.331 N 
ATOM     14  N   UNL     1       3.600  -3.262  -0.075  0.00  0.00    -0.183 NA
ATOM     15  H   UNL     1       6.257  -1.890  -1.150  0.00  0.00    +0.151 HD
ATOM     16  H   UNL     1       6.635  -4.199  -0.441  0.00  0.00    +0.145 HD
ATOM     17  H   UNL     1       5.287  -5.133  -0.077  0.00  0.00    +0.145 HD
ENDROOT
BRANCH  10  18
ATOM     18  C   UNL     1       5.374  -0.504   1.392  0.00  0.00    +0.032 A 
ATOM     19  C   UNL     1       5.690   0.649   2.030  0.00  0.00    +0.016 A 
ATOM     20  C   UNL     1       6.117   0.594   3.344  0.00  0.00    +0.028 A 
ATOM     21  C   UNL     1       6.207  -0.614   3.955  0.00  0.00    +0.078 A 
ATOM     22  S   UNL     1       5.671  -1.723   2.662  0.00  0.00    -0.078 S 
ATOM     23 CL   UNL     1       6.706  -0.985   5.576  0.00  0.00    -0.076 Cl
ENDBRANCH  10  18
TORSDOF 1
