REMARK  Name = ZINC64858634
REMARK  12 active torsions:
REMARK  status: ('A' for Active; 'I' for Inactive)
REMARK    1  A    between atoms: C_1  and  C_2
REMARK    2  A    between atoms: C_6  and  C_8
REMARK    3  A    between atoms: C_10  and  C_36
REMARK    4  A    between atoms: C_13  and  C_24
REMARK    5  A    between atoms: C_27  and  O_34
REMARK    6  A    between atoms: C_29  and  O_30
REMARK    7  A    between atoms: O_30  and  C_31
REMARK    8  A    between atoms: C_31  and  C_32
REMARK    9  A    between atoms: C_31  and  C_33
REMARK   10  A    between atoms: O_34  and  C_35
REMARK   11  A    between atoms: C_39  and  C_43
REMARK   12  A    between atoms: C_40  and  C_42
REMARK                            x       y       z     vdW  Elec       q    Type
REMARK                         _______ _______ _______ _____ _____    ______ ____
ROOT
ATOM      1  C   UNL     1      -0.097  -2.875   2.490  0.00  0.00    +0.143 C 
ATOM      2  C   UNL     1      -1.545  -3.395   2.580  0.00  0.00    +0.163 C 
ATOM      3  N   UNL     1      -1.395  -4.843   2.783  0.00  0.00    -0.258 NA
ATOM      4  C   UNL     1      -0.143  -5.162   2.813  0.00  0.00    +0.136 C 
ATOM      5  N   UNL     1       0.716  -4.092   2.655  0.00  0.00    -0.230 N 
ATOM      6  C   UNL     1       2.063  -4.150   2.649  0.00  0.00    +0.311 C 
ATOM      7  O   UNL     1       2.625  -5.218   2.509  0.00  0.00    -0.252 OA
ATOM      8  N   UNL     1       2.786  -3.022   2.799  0.00  0.00    -0.275 N 
ATOM      9  C   UNL     1       4.254  -3.063   2.911  0.00  0.00    +0.128 C 
ATOM     10  C   UNL     1       4.844  -2.280   1.737  0.00  0.00    +0.123 C 
ATOM     11  N   UNL     1       4.164  -1.003   1.573  0.00  0.00    -0.313 N 
ATOM     12  C   UNL     1       2.939  -0.733   2.028  0.00  0.00    +0.231 C 
ATOM     13  O   UNL     1       2.447   0.342   1.761  0.00  0.00    -0.274 OA
ATOM     14  C   UNL     1       2.142  -1.701   2.851  0.00  0.00    +0.205 C 
ATOM     15  H   UNL     1       4.635  -0.299   1.100  0.00  0.00    +0.149 HD
ENDROOT
BRANCH   2  16
ATOM     16  C   UNL     1      -2.259  -2.767   3.749  0.00  0.00    -0.021 A 
ATOM     17  C   UNL     1      -2.051  -3.250   5.027  0.00  0.00    +0.006 A 
ATOM     18  C   UNL     1      -2.706  -2.674   6.099  0.00  0.00    +0.004 A 
ATOM     19  C   UNL     1      -3.569  -1.614   5.893  0.00  0.00    -0.048 A 
ATOM     20  C   UNL     1      -3.777  -1.130   4.615  0.00  0.00    -0.047 A 
ATOM     21  C   UNL     1      -3.118  -1.704   3.543  0.00  0.00    +0.009 A 
ATOM     22  C   UNL     1      -4.718   0.025   4.390  0.00  0.00    +0.044 C 
ATOM     23  C   UNL     1      -4.284  -0.987   7.062  0.00  0.00    +0.044 C 
ENDBRANCH   2  16
BRANCH   1  29
ATOM     24  C   UNL     1      -0.072   1.162  -0.467  0.00  0.00    +0.044 C 
ATOM     25  C   UNL     1       0.170  -0.312  -0.269  0.00  0.00    -0.050 A 
ATOM     26  C   UNL     1       0.626  -1.085  -1.321  0.00  0.00    +0.003 A 
ATOM     27  C   UNL     1       0.848  -2.437  -1.139  0.00  0.00    +0.001 A 
ATOM     28  C   UNL     1       0.614  -3.017   0.094  0.00  0.00    +0.005 A 
ATOM     29  C   UNL     1       0.159  -2.244   1.146  0.00  0.00    -0.024 A 
ATOM     30  C   UNL     1      -0.059  -0.890   0.965  0.00  0.00    +0.009 A 
ENDBRANCH   1  29
BRANCH   4  31
ATOM     31  C   UNL     1       0.328  -6.548   3.004  0.00  0.00    +0.057 A 
ATOM     32  C   UNL     1       0.086  -7.211   4.209  0.00  0.00    +0.018 A 
ATOM     33  C   UNL     1       0.527  -8.504   4.384  0.00  0.00    +0.046 A 
ATOM     34  C   UNL     1       1.213  -9.153   3.363  0.00  0.00    +0.124 A 
ATOM     35  C   UNL     1       1.458  -8.504   2.163  0.00  0.00    +0.092 A 
ATOM     36  C   UNL     1       1.015  -7.205   1.974  0.00  0.00    +0.135 A 
BRANCH  34  37
ATOM     37  O   UNL     1       1.645 -10.428   3.543  0.00  0.00    -0.495 OA
ATOM     38  C   UNL     1       1.360 -11.038   4.803  0.00  0.00    +0.277 C 
ENDBRANCH  34  37
BRANCH  36  39
ATOM     39  O   UNL     1       1.249  -6.570   0.798  0.00  0.00    -0.489 OA
BRANCH  39  40
ATOM     40  C   UNL     1       1.852  -7.338  -0.245  0.00  0.00    +0.167 C 
ATOM     41  C   UNL     1       1.488  -6.730  -1.601  0.00  0.00    +0.051 C 
ATOM     42  C   UNL     1       3.373  -7.326  -0.073  0.00  0.00    +0.051 C 
ENDBRANCH  39  40
ENDBRANCH  36  39
ENDBRANCH   4  31
TORSDOF 6
