REMARK  Name = ZINC12529291
REMARK  9 active torsions:
REMARK  status: ('A' for Active; 'I' for Inactive)
REMARK    1  A    between atoms: C_1  and  C_2
REMARK    2  A    between atoms: C_4  and  N_11
REMARK    3  A    between atoms: C_5  and  O_9
REMARK    4  A    between atoms: O_9  and  C_10
REMARK    5  A    between atoms: C_12  and  C_14
REMARK    6  A    between atoms: C_14  and  C_15
REMARK    7  A    between atoms: N_21  and  N_22
REMARK    8  A    between atoms: C_23  and  C_24
REMARK    9  A    between atoms: C_23  and  C_25
REMARK                            x       y       z     vdW  Elec       q    Type
REMARK                         _______ _______ _______ _____ _____    ______ ____
ROOT
ATOM      1  C   UNL     1      -0.320  -1.850  -6.045  0.00  0.00    +0.149 C 
ATOM      2  C   UNL     1      -0.463  -2.568  -7.377  0.00  0.00    +0.233 C 
ATOM      3  O   UNL     1      -1.403  -3.293  -7.621  0.00  0.00    -0.274 OA
ATOM      4  N   UNL     1       0.504  -2.353  -8.253  0.00  0.00    -0.263 N 
ATOM      5  C   UNL     1       1.577  -1.530  -7.984  0.00  0.00    +0.183 C 
ATOM      6  N   UNL     1       2.594  -1.238  -8.768  0.00  0.00    -0.126 NA
ATOM      7  S   UNL     1       1.263  -0.953  -6.321  0.00  0.00    -0.075 S 
ATOM      8  H   UNL     1       0.456  -2.790  -9.118  0.00  0.00    +0.157 HD
ENDROOT
BRANCH   6   9
ATOM      9  N   UNL     1       3.520  -0.441  -8.352  0.00  0.00    -0.152 NA
ATOM     10  C   UNL     1       4.528  -0.151  -9.129  0.00  0.00    +0.068 C 
ATOM     11  C   UNL     1       4.610  -0.746 -10.511  0.00  0.00    +0.068 C 
BRANCH  10  12
ATOM     12  C   UNL     1       5.584   0.757  -8.656  0.00  0.00    -0.002 A 
ATOM     13  C   UNL     1       6.663   1.075  -9.488  0.00  0.00    +0.012 A 
ATOM     14  C   UNL     1       7.649   1.926  -9.038  0.00  0.00    +0.039 A 
ATOM     15  C   UNL     1       7.574   2.467  -7.764  0.00  0.00    +0.123 A 
ATOM     16  C   UNL     1       6.508   2.156  -6.934  0.00  0.00    +0.039 A 
ATOM     17  C   UNL     1       5.511   1.312  -7.374  0.00  0.00    +0.012 A 
ATOM     18  F   UNL     1       8.544   3.301  -7.329  0.00  0.00    -0.205 F 
ENDBRANCH  10  12
ENDBRANCH   6   9
BRANCH   1  19
ATOM     19  C   UNL     1      -0.199  -2.845  -4.889  0.00  0.00    +0.120 C 
BRANCH  19  21
ATOM     20  N   UNL     1       0.028  -2.768  -2.427  0.00  0.00    -0.283 N 
ATOM     21  C   UNL     1      -0.089  -2.093  -3.588  0.00  0.00    +0.219 C 
ATOM     22  O   UNL     1      -0.106  -0.880  -3.585  0.00  0.00    -0.275 OA
ATOM     23  H   UNL     1       0.123  -3.733  -2.434  0.00  0.00    +0.155 HD
BRANCH  20  27
ATOM     24  C   UNL     1      -1.301   1.185   0.178  0.00  0.00    +0.045 C 
ATOM     25  C   UNL     1      -0.624  -0.157   0.083  0.00  0.00    -0.030 A 
ATOM     26  C   UNL     1      -0.610  -0.839  -1.119  0.00  0.00    +0.031 A 
ATOM     27  C   UNL     1       0.014  -2.075  -1.209  0.00  0.00    +0.076 A 
ATOM     28  C   UNL     1       0.626  -2.626  -0.085  0.00  0.00    +0.143 A 
ATOM     29  C   UNL     1       0.608  -1.937   1.117  0.00  0.00    +0.067 A 
ATOM     30  C   UNL     1      -0.012  -0.702   1.198  0.00  0.00    +0.047 A 
ATOM     31 CL   UNL     1      -0.026   0.163   2.703  0.00  0.00    -0.083 Cl
BRANCH  28  32
ATOM     32  O   UNL     1       1.238  -3.837  -0.167  0.00  0.00    -0.493 OA
ATOM     33  C   UNL     1       1.844  -4.339   1.026  0.00  0.00    +0.277 C 
ENDBRANCH  28  32
ENDBRANCH  20  27
ENDBRANCH  19  21
ENDBRANCH   1  19
TORSDOF 6
