REMARK  Name = ZINC36549257
REMARK  14 active torsions:
REMARK  status: ('A' for Active; 'I' for Inactive)
REMARK    1  A    between atoms: C_1  and  C_2
REMARK    2  A    between atoms: C_2  and  C_3
REMARK    3  A    between atoms: C_2  and  C_4
REMARK    4  A    between atoms: C_2  and  N_5
REMARK    5  A    between atoms: C_6  and  C_8
REMARK    6  A    between atoms: C_8  and  C_10
REMARK    7  A    between atoms: C_8  and  N_19
REMARK    8  A    between atoms: C_13  and  N_16
REMARK    9  A    between atoms: N_16  and  C_17
REMARK   10  A    between atoms: N_16  and  C_18
REMARK   11  A    between atoms: N_19  and  C_20
REMARK   12  A    between atoms: C_27  and  C_29
REMARK   13  A    between atoms: C_29  and  O_30
REMARK   14  A    between atoms: O_30  and  C_31
REMARK                            x       y       z     vdW  Elec       q    Type
REMARK                         _______ _______ _______ _____ _____    ______ ____
ROOT
ATOM      1  C   UNL     1       2.681  -0.584  -2.732  0.00  0.00    +0.197 C 
ENDROOT
BRANCH   1   2
ATOM      2  C   UNL     1       1.864   0.124  -3.782  0.00  0.00    -0.018 A 
ATOM      3  C   UNL     1       0.660   0.711  -3.439  0.00  0.00    +0.008 A 
ATOM      4  C   UNL     1      -0.091   1.361  -4.399  0.00  0.00    +0.023 A 
ATOM      5  C   UNL     1       0.365   1.425  -5.709  0.00  0.00    +0.029 A 
ATOM      6  C   UNL     1       1.575   0.835  -6.050  0.00  0.00    +0.023 A 
ATOM      7  C   UNL     1       2.324   0.191  -5.084  0.00  0.00    +0.008 A 
BRANCH   5   8
ATOM      8  N   UNL     1      -0.392   2.081  -6.683  0.00  0.00    -0.336 N 
ATOM      9  C   UNL     1      -1.603   2.812  -6.299  0.00  0.00    +0.129 C 
ATOM     10  C   UNL     1       0.024   2.039  -8.086  0.00  0.00    +0.129 C 
ENDBRANCH   5   8
ENDBRANCH   1   2
BRANCH   1  12
ATOM     11  N   UNL     1       0.707  -1.288  -1.418  0.00  0.00    -0.309 N 
ATOM     12  C   UNL     1       1.896  -0.654  -1.447  0.00  0.00    +0.239 C 
ATOM     13  O   UNL     1       2.334  -0.140  -0.440  0.00  0.00    -0.273 OA
ATOM     14  H   UNL     1       0.357  -1.700  -2.223  0.00  0.00    +0.149 HD
BRANCH  11  16
ATOM     15  C   UNL     1      -0.381   0.061   0.308  0.00  0.00    +0.031 C 
ATOM     16  C   UNL     1      -0.056  -1.356  -0.169  0.00  0.00    +0.026 C 
ATOM     17  C   UNL     1       0.773  -2.075   0.897  0.00  0.00    +0.031 C 
ATOM     18  C   UNL     1      -1.357  -2.125  -0.408  0.00  0.00    +0.031 C 
ENDBRANCH  11  16
ENDBRANCH   1  12
BRANCH   1  19
ATOM     19  N   UNL     1       3.927   0.152  -2.503  0.00  0.00    -0.252 N 
ATOM     20  C   UNL     1       3.886   1.438  -2.103  0.00  0.00    +0.247 C 
ATOM     21  O   UNL     1       2.817   1.986  -1.933  0.00  0.00    -0.273 OA
BRANCH  19  22
ATOM     22  C   UNL     1       5.160  -0.481  -2.700  0.00  0.00    +0.056 A 
ATOM     23  C   UNL     1       5.771  -0.442  -3.947  0.00  0.00    +0.025 A 
ATOM     24  C   UNL     1       6.987  -1.067  -4.138  0.00  0.00    +0.002 A 
ATOM     25  C   UNL     1       7.598  -1.732  -3.090  0.00  0.00    +0.002 A 
ATOM     26  C   UNL     1       6.993  -1.773  -1.847  0.00  0.00    +0.022 A 
ATOM     27  C   UNL     1       5.778  -1.144  -1.647  0.00  0.00    +0.062 A 
ATOM     28 CL   UNL     1       5.023  -1.189  -0.085  0.00  0.00    -0.082 Cl
ENDBRANCH  19  22
BRANCH  20  29
ATOM     29  C   UNL     1       5.167   2.196  -1.868  0.00  0.00    +0.255 C 
BRANCH  29  30
ATOM     30  O   UNL     1       4.864   3.529  -1.454  0.00  0.00    -0.374 OA
ATOM     31  C   UNL     1       6.016   4.336  -1.203  0.00  0.00    +0.194 C 
ENDBRANCH  29  30
ENDBRANCH  20  29
ENDBRANCH   1  19
TORSDOF 8
