REMARK  Name = ZINC01944453
REMARK  14 active torsions:
REMARK  status: ('A' for Active; 'I' for Inactive)
REMARK    1  A    between atoms: C_1  and  C_2
REMARK    2  A    between atoms: C_2  and  C_3
REMARK    3  A    between atoms: C_6  and  O_9
REMARK    4  A    between atoms: O_9  and  C_10
REMARK    5  A    between atoms: C_10  and  C_11
REMARK    6  A    between atoms: N_13  and  C_14
REMARK    7  A    between atoms: C_15  and  C_28
REMARK    8  A    between atoms: C_20  and  C_24
REMARK    9  A    between atoms: C_24  and  C_25
REMARK   10  A    between atoms: C_24  and  C_26
REMARK   11  A    between atoms: C_24  and  C_27
REMARK   12  A    between atoms: C_28  and  O_30
REMARK   13  A    between atoms: O_30  and  C_31
REMARK   14  A    between atoms: C_31  and  C_32
REMARK                            x       y       z     vdW  Elec       q    Type
REMARK                         _______ _______ _______ _____ _____    ______ ____
ROOT
ATOM      1  C   UNL     1       1.180   1.675  -0.000  0.00  0.00    +0.086 A 
ATOM      2  C   UNL     1       2.478   1.182  -0.010  0.00  0.00    +0.091 A 
ATOM      3  C   UNL     1       3.563   2.149  -0.019  0.00  0.00    -0.021 A 
ATOM      4  C   UNL     1       3.180   3.444  -0.009  0.00  0.00    -0.004 A 
ATOM      5  S   UNL     1       1.410   3.392   0.007  0.00  0.00    -0.077 S 
ATOM      6  C   UNL     1       4.069   4.649  -0.010  0.00  0.00    +0.046 C 
ATOM      7  C   UNL     1       5.485   4.205  -0.404  0.00  0.00    -0.000 C 
ATOM      8  C   UNL     1       5.863   2.972   0.423  0.00  0.00    +0.009 C 
ATOM      9  C   UNL     1       5.038   1.767  -0.034  0.00  0.00    +0.037 C 
ENDROOT
BRANCH   1  12
ATOM     10  C   UNL     1      -1.187   1.624   0.017  0.00  0.00    +0.255 C 
ATOM     11  O   UNL     1      -1.204   2.836   0.023  0.00  0.00    -0.272 OA
ATOM     12  N   UNL     1      -0.011   0.966   0.007  0.00  0.00    -0.277 N 
ATOM     13  H   UNL     1       0.004  -0.134   0.006  0.00  0.00    +0.155 HD
BRANCH  10  14
ATOM     14  C   UNL     1      -2.482   0.853   0.018  0.00  0.00    +0.324 C 
BRANCH  14  15
ATOM     15  O   UNL     1      -3.581   1.766   0.029  0.00  0.00    -0.483 OA
BRANCH  15  19
ATOM     16  C   UNL     1      -7.371   0.138   0.038  0.00  0.00    -0.047 A 
ATOM     17  C   UNL     1      -7.210   1.511   0.044  0.00  0.00    +0.007 A 
ATOM     18  C   UNL     1      -5.942   2.059   0.041  0.00  0.00    +0.046 A 
ATOM     19  C   UNL     1      -4.829   1.230   0.032  0.00  0.00    +0.121 A 
ATOM     20  C   UNL     1      -4.994  -0.148   0.019  0.00  0.00    +0.046 A 
ATOM     21  C   UNL     1      -6.264  -0.690   0.029  0.00  0.00    +0.007 A 
BRANCH  16  23
ATOM     22  C   UNL     1      -9.231  -0.650  -1.400  0.00  0.00    +0.009 C 
ATOM     23  C   UNL     1      -8.756  -0.457   0.041  0.00  0.00    +0.032 C 
ENDBRANCH  16  23
ENDBRANCH  15  19
ENDBRANCH  14  15
ENDBRANCH  10  14
ENDBRANCH   1  12
BRANCH   7  24
ATOM     24  C   UNL     1       6.475   5.336  -0.119  0.00  0.00    -0.035 C 
ATOM     25  C   UNL     1       6.445   5.677   1.373  0.00  0.00    +0.011 C 
ATOM     26  C   UNL     1       7.885   4.891  -0.511  0.00  0.00    +0.011 C 
ATOM     27  C   UNL     1       6.085   6.572  -0.932  0.00  0.00    +0.011 C 
ENDBRANCH   7  24
BRANCH   2  28
ATOM     28  C   UNL     1       2.744  -0.258  -0.014  0.00  0.00    +0.342 C 
ATOM     29  O   UNL     1       2.847  -0.854  -1.069  0.00  0.00    -0.245 OA
BRANCH  28  30
ATOM     30  O   UNL     1       2.873  -0.923   1.153  0.00  0.00    -0.461 OA
BRANCH  30  31
ATOM     31  C   UNL     1       3.135  -2.349   1.073  0.00  0.00    +0.229 C 
ATOM     32  C   UNL     1       3.250  -2.927   2.485  0.00  0.00    +0.048 C 
ENDBRANCH  30  31
ENDBRANCH  28  30
ENDBRANCH   2  28
TORSDOF 9
