REMARK  Name = ZINC15069676
REMARK  8 active torsions:
REMARK  status: ('A' for Active; 'I' for Inactive)
REMARK    1  A    between atoms: C_1  and  C_2
REMARK    2  A    between atoms: C_2  and  O_3
REMARK    3  A    between atoms: O_3  and  C_4
REMARK    4  A    between atoms: C_13  and  C_25
REMARK    5  A    between atoms: C_25  and  N_26
REMARK    6  A    between atoms: N_26  and  C_27
REMARK    7  A    between atoms: C_27  and  C_28
REMARK    8  A    between atoms: C_33  and  C_34
REMARK                            x       y       z     vdW  Elec       q    Type
REMARK                         _______ _______ _______ _____ _____    ______ ____
ROOT
ATOM      1  C   UNL     1       1.568  -0.734  -1.395  0.00  0.00    +0.403 C 
ATOM      2  O   UNL     1       0.366  -0.583  -1.495  0.00  0.00    -0.226 OA
ATOM      3  N   UNL     1       2.274  -1.224  -2.433  0.00  0.00    -0.264 N 
ATOM      4  C   UNL     1       3.727  -1.417  -2.324  0.00  0.00    +0.130 C 
ATOM      5  C   UNL     1       4.054  -2.878  -2.661  0.00  0.00    +0.125 C 
ATOM      6  N   UNL     1       3.385  -3.230  -3.921  0.00  0.00    -0.313 N 
ATOM      7  C   UNL     1       1.932  -3.037  -4.030  0.00  0.00    +0.125 C 
ATOM      8  C   UNL     1       1.604  -1.582  -3.691  0.00  0.00    +0.130 C 
ATOM      9  C   UNL     1       4.111  -3.735  -4.989  0.00  0.00    +0.104 A 
ATOM     10  C   UNL     1       4.386  -5.110  -5.041  0.00  0.00    +0.005 A 
ATOM     11  C   UNL     1       5.098  -5.620  -6.084  0.00  0.00    +0.018 A 
ATOM     12  C   UNL     1       5.541  -4.734  -7.088  0.00  0.00    -0.001 A 
ATOM     13  C   UNL     1       6.281  -5.190  -8.188  0.00  0.00    +0.014 A 
ATOM     14  C   UNL     1       6.697  -4.307  -9.143  0.00  0.00    -0.043 A 
ATOM     15  C   UNL     1       6.392  -2.951  -9.038  0.00  0.00    -0.042 A 
ATOM     16  C   UNL     1       5.674  -2.478  -7.979  0.00  0.00    +0.030 A 
ATOM     17  C   UNL     1       5.231  -3.357  -6.978  0.00  0.00    +0.048 A 
ATOM     18  N   UNL     1       4.523  -2.914  -5.933  0.00  0.00    -0.343 N 
ATOM     19  C   UNL     1       6.972  -2.209 -10.225  0.00  0.00    +0.036 C 
ATOM     20  C   UNL     1       8.025  -3.163 -10.825  0.00  0.00    +0.009 C 
ATOM     21  C   UNL     1       7.497  -4.551 -10.406  0.00  0.00    +0.036 C 
ATOM     22  H   UNL     1       4.312  -1.970  -5.867  0.00  0.00    +0.167 HD
ENDROOT
BRANCH   1  23
ATOM     23  O   UNL     1       2.194  -0.410  -0.248  0.00  0.00    -0.451 OA
BRANCH  23  25
ATOM     24  C   UNL     1       2.264   0.413   2.023  0.00  0.00    +0.048 C 
ATOM     25  C   UNL     1       1.384   0.105   0.810  0.00  0.00    +0.230 C 
ENDBRANCH  23  25
ENDBRANCH   1  23
BRANCH  10  26
ATOM     26  C   UNL     1       3.893  -6.020  -3.946  0.00  0.00    +0.120 C 
BRANCH  26  27
ATOM     27  N   UNL     1       2.475  -6.333  -4.170  0.00  0.00    -0.308 NA
ATOM     28  H   UNL     1       1.937  -5.492  -4.314  0.00  0.00    +0.123 HD
BRANCH  27  29
ATOM     29  C   UNL     1       1.929  -7.125  -3.060  0.00  0.00    +0.117 C 
BRANCH  29  30
ATOM     30  C   UNL     1       0.476  -7.426  -3.325  0.00  0.00    -0.022 A 
ATOM     31  C   UNL     1      -0.508  -6.672  -2.715  0.00  0.00    +0.005 A 
ATOM     32  C   UNL     1      -1.841  -6.948  -2.957  0.00  0.00    +0.000 A 
ATOM     33  C   UNL     1      -2.188  -7.979  -3.811  0.00  0.00    +0.001 A 
ATOM     34  C   UNL     1      -1.204  -8.732  -4.422  0.00  0.00    +0.013 A 
ATOM     35  C   UNL     1       0.129  -8.453  -4.182  0.00  0.00    +0.059 A 
BRANCH  35  36
ATOM     36  C   UNL     1       1.202  -9.271  -4.852  0.00  0.00    +0.418 C 
ATOM     37  F   UNL     1       0.609 -10.243  -5.665  0.00  0.00    -0.166 F 
ATOM     38  F   UNL     1       2.006  -8.435  -5.635  0.00  0.00    -0.166 F 
ATOM     39  F   UNL     1       1.989  -9.896  -3.878  0.00  0.00    -0.166 F 
ENDBRANCH  35  36
ENDBRANCH  29  30
ENDBRANCH  27  29
ENDBRANCH  26  27
ENDBRANCH  10  26
TORSDOF 7
