REMARK  Name = ZINC49355623
REMARK  4 active torsions:
REMARK  status: ('A' for Active; 'I' for Inactive)
REMARK    1  A    between atoms: C_1  and  C_2
REMARK    2  A    between atoms: C_2  and  C_3
REMARK    3  A    between atoms: C_2  and  C_4
REMARK    4  A    between atoms: C_6  and  C_10
REMARK                            x       y       z     vdW  Elec       q    Type
REMARK                         _______ _______ _______ _____ _____    ______ ____
ROOT
ATOM      1  C   UNL     1       2.797  -2.644  -3.300  0.00  0.00    +0.271 C 
ATOM      2  O   UNL     1       3.298  -3.512  -2.611  0.00  0.00    -0.268 OA
ATOM      3  N   UNL     1       3.045  -2.609  -4.624  0.00  0.00    -0.266 N 
ATOM      4  C   UNL     1       2.593  -1.554  -5.535  0.00  0.00    +0.119 C 
ATOM      5  C   UNL     1       3.122  -1.963  -6.920  0.00  0.00    +0.056 C 
ATOM      6  C   UNL     1       3.857  -3.262  -6.678  0.00  0.00    -0.023 A 
ATOM      7  C   UNL     1       3.775  -3.571  -5.329  0.00  0.00    +0.040 A 
ATOM      8  C   UNL     1       4.389  -4.734  -4.861  0.00  0.00    +0.025 A 
ATOM      9  C   UNL     1       5.070  -5.559  -5.730  0.00  0.00    +0.017 A 
ATOM     10  C   UNL     1       5.150  -5.240  -7.074  0.00  0.00    +0.018 A 
ATOM     11  C   UNL     1       4.537  -4.094  -7.546  0.00  0.00    +0.020 A 
ATOM     12 BR   UNL     1       6.085  -6.375  -8.263  0.00  0.00    -0.050 Br
ENDROOT
BRANCH   1  15
ATOM     13  C   UNL     1       0.704  -0.492  -1.238  0.00  0.00    +0.039 A 
ATOM     14  C   UNL     1       1.486  -1.593  -1.338  0.00  0.00    +0.057 A 
ATOM     15  C   UNL     1       1.918  -1.629  -2.686  0.00  0.00    +0.148 A 
ATOM     16  N   UNL     1       1.385  -0.585  -3.288  0.00  0.00    -0.169 NA
ATOM     17  N   UNL     1       0.670   0.086  -2.458  0.00  0.00    -0.281 N 
ATOM     18  H   UNL     1       0.179   0.894  -2.676  0.00  0.00    +0.189 HD
BRANCH  13  20
ATOM     19  C   UNL     1      -0.024   1.522   0.010  0.00  0.00    +0.014 C 
ATOM     20  C   UNL     1      -0.002  -0.007   0.001  0.00  0.00    +0.031 C 
ATOM     21  C   UNL     1      -1.437  -0.538   0.011  0.00  0.00    +0.014 C 
ENDBRANCH  13  20
ENDBRANCH   1  15
TORSDOF 2
