REMARK  Name = ZINC43509391
REMARK  12 active torsions:
REMARK  status: ('A' for Active; 'I' for Inactive)
REMARK    1  A    between atoms: C_1  and  C_2
REMARK    2  A    between atoms: C_11  and  O_13
REMARK    3  A    between atoms: O_13  and  C_14
REMARK    4  A    between atoms: C_14  and  C_29
REMARK    5  A    between atoms: C_15  and  C_27
REMARK    6  A    between atoms: C_15  and  O_28
REMARK    7  A    between atoms: C_16  and  C_25
REMARK    8  A    between atoms: C_16  and  O_26
REMARK    9  A    between atoms: C_17  and  C_23
REMARK   10  A    between atoms: C_17  and  O_24
REMARK   11  A    between atoms: C_18  and  C_21
REMARK   12  A    between atoms: C_21  and  O_22
REMARK                            x       y       z     vdW  Elec       q    Type
REMARK                         _______ _______ _______ _____ _____    ______ ____
ROOT
ATOM      1  C   UNL     1      -0.175  -2.795   6.074  0.00  0.00    +0.242 C 
ATOM      2  C   UNL     1      -0.011  -3.840   7.174  0.00  0.00    +0.159 C 
ATOM      3  C   UNL     1       1.424  -4.339   7.298  0.00  0.00    +0.128 C 
ATOM      4  C   UNL     1       2.471  -3.234   7.198  0.00  0.00    +0.123 C 
ATOM      5  C   UNL     1       2.157  -2.278   6.047  0.00  0.00    +0.182 C 
ATOM      6  O   UNL     1       0.825  -1.785   6.194  0.00  0.00    -0.329 OA
ATOM      7  C   UNL     1       2.593  -2.457   8.508  0.00  0.00    +0.047 C 
ATOM      8  C   UNL     1       1.699  -5.403   6.226  0.00  0.00    +0.047 C 
ATOM      9  C   UNL     1      -0.520  -3.282   8.505  0.00  0.00    +0.051 C 
ATOM     10  C   UNL     1      -1.557  -2.139   6.213  0.00  0.00    +0.092 C 
ENDROOT
BRANCH   4  11
ATOM     11  O   UNL     1       3.746  -3.848   6.927  0.00  0.00    -0.383 OA
ATOM     12  H   UNL     1       4.476  -3.220   6.847  0.00  0.00    +0.210 HD
ENDBRANCH   4  11
BRANCH   3  13
ATOM     13  O   UNL     1       1.567  -4.973   8.585  0.00  0.00    -0.383 OA
ATOM     14  H   UNL     1       2.453  -5.324   8.755  0.00  0.00    +0.210 HD
ENDBRANCH   3  13
BRANCH   2  15
ATOM     15  O   UNL     1      -0.843  -4.970   6.833  0.00  0.00    -0.379 OA
ATOM     16  H   UNL     1      -1.783  -4.757   6.757  0.00  0.00    +0.211 HD
ENDBRANCH   2  15
BRANCH   1  17
ATOM     17  O   UNL     1      -0.090  -3.411   4.788  0.00  0.00    -0.458 OA
BRANCH  17  28
ATOM     18  C   UNL     1      -0.409  -0.605  -1.070  0.00  0.00    +0.045 C 
ATOM     19  C   UNL     1      -0.377  -0.052   0.332  0.00  0.00    -0.033 A 
ATOM     20  C   UNL     1      -0.422   1.287   0.555  0.00  0.00    +0.096 A 
ATOM     21  C   UNL     1      -0.390   1.780   1.875  0.00  0.00    +0.337 A 
ATOM     22  O   UNL     1      -0.432   2.983   2.061  0.00  0.00    -0.245 OA
ATOM     23  O   UNL     1      -0.317   0.957   2.933  0.00  0.00    -0.422 OA
ATOM     24  C   UNL     1      -0.269  -0.384   2.781  0.00  0.00    +0.143 A 
ATOM     25  C   UNL     1      -0.302  -0.944   1.491  0.00  0.00    +0.021 A 
ATOM     26  C   UNL     1      -0.258  -2.333   1.329  0.00  0.00    +0.015 A 
ATOM     27  C   UNL     1      -0.187  -3.142   2.426  0.00  0.00    +0.046 A 
ATOM     28  C   UNL     1      -0.160  -2.594   3.707  0.00  0.00    +0.128 A 
ATOM     29  C   UNL     1      -0.192  -1.220   3.885  0.00  0.00    +0.092 A 
ENDBRANCH  17  28
ENDBRANCH   1  17
BRANCH   5  30
ATOM     30  C   UNL     1       3.138  -1.102   6.083  0.00  0.00    +0.190 C 
BRANCH  30  31
ATOM     31  O   UNL     1       2.923  -0.267   4.943  0.00  0.00    -0.392 OA
ATOM     32  H   UNL     1       3.511   0.499   4.901  0.00  0.00    +0.210 HD
ENDBRANCH  30  31
ENDBRANCH   5  30
TORSDOF 7
