REMARK  Name = ZINC09586803
REMARK  9 active torsions:
REMARK  status: ('A' for Active; 'I' for Inactive)
REMARK    1  A    between atoms: C_1  and  C_2
REMARK    2  A    between atoms: C_2  and  C_4
REMARK    3  A    between atoms: C_2  and  O_17
REMARK    4  A    between atoms: N_6  and  C_7
REMARK    5  A    between atoms: C_9  and  N_14
REMARK    6  A    between atoms: O_17  and  C_18
REMARK    7  A    between atoms: C_18  and  C_20
REMARK    8  A    between atoms: C_20  and  N_21
REMARK    9  A    between atoms: C_22  and  C_24
REMARK                            x       y       z     vdW  Elec       q    Type
REMARK                         _______ _______ _______ _____ _____    ______ ____
ROOT
ATOM      1  O   UNL     1      -8.512   0.989   2.533  0.00  0.00    -0.451 OA
ENDROOT
BRANCH   1   3
ATOM      2  C   UNL     1      -9.793   2.840   3.463  0.00  0.00    +0.062 C 
ATOM      3  C   UNL     1      -9.127   1.492   3.749  0.00  0.00    +0.259 C 
BRANCH   3   4
ATOM      4  C   UNL     1     -10.165   0.511   4.230  0.00  0.00    +0.258 C 
ATOM      5  O   UNL     1     -10.367  -0.512   3.610  0.00  0.00    -0.271 OA
ATOM      6  N   UNL     1     -10.869   0.770   5.350  0.00  0.00    -0.281 N 
ATOM      7  H   UNL     1     -10.653   1.546   5.890  0.00  0.00    +0.155 HD
BRANCH   6   8
ATOM      8  C   UNL     1     -11.911  -0.082   5.734  0.00  0.00    +0.054 A 
ATOM      9  C   UNL     1     -12.566  -0.853   4.783  0.00  0.00    +0.057 A 
ATOM     10  C   UNL     1     -13.594  -1.693   5.165  0.00  0.00    +0.128 A 
ATOM     11  C   UNL     1     -13.971  -1.767   6.493  0.00  0.00    +0.034 A 
ATOM     12  C   UNL     1     -13.323  -1.000   7.443  0.00  0.00    +0.024 A 
ATOM     13  C   UNL     1     -12.290  -0.162   7.068  0.00  0.00    +0.062 A 
ATOM     14 CL   UNL     1     -11.470   0.796   8.263  0.00  0.00    -0.082 Cl
BRANCH  10  15
ATOM     15  N   UNL     1     -14.291  -2.516   4.151  0.00  0.00    +0.056 N 
ATOM     16  O   UNL     1     -13.959  -2.452   2.981  0.00  0.00    -0.126 OA
ATOM     17  O   UNL     1     -15.198  -3.257   4.487  0.00  0.00    -0.126 OA
ENDBRANCH  10  15
ENDBRANCH   6   8
ENDBRANCH   3   4
ENDBRANCH   1   3
BRANCH   1  18
ATOM     18  C   UNL     1      -7.237   1.340   2.305  0.00  0.00    +0.325 C 
ATOM     19  O   UNL     1      -6.654   2.044   3.095  0.00  0.00    -0.249 OA
BRANCH  18  20
ATOM     20  C   UNL     1      -6.533   0.855   1.064  0.00  0.00    +0.225 C 
BRANCH  20  21
ATOM     21  N   UNL     1      -5.162   1.372   1.047  0.00  0.00    -0.304 N 
ATOM     22  C   UNL     1      -4.339   1.066   0.024  0.00  0.00    +0.220 C 
ATOM     23  O   UNL     1      -4.734   0.363  -0.882  0.00  0.00    -0.275 OA
ATOM     24  H   UNL     1      -4.847   1.934   1.772  0.00  0.00    +0.149 HD
BRANCH  22  25
ATOM     25  C   UNL     1      -2.929   1.597   0.007  0.00  0.00    +0.048 C 
ATOM     26  C   UNL     1      -2.214   1.105  -1.253  0.00  0.00    +0.019 C 
ATOM     27  C   UNL     1      -0.782   1.645  -1.270  0.00  0.00    -0.009 C 
ATOM     28  C   UNL     1      -0.035   1.146  -0.032  0.00  0.00    +0.007 C 
ATOM     29  C   UNL     1      -0.750   1.638   1.228  0.00  0.00    -0.009 C 
ATOM     30  C   UNL     1      -2.181   1.099   1.245  0.00  0.00    +0.019 C 
ATOM     31  C   UNL     1      -0.781   3.168   1.232  0.00  0.00    +0.007 C 
ATOM     32  C   UNL     1      -1.529   3.666  -0.006  0.00  0.00    -0.009 C 
ATOM     33  C   UNL     1      -0.814   3.175  -1.266  0.00  0.00    +0.007 C 
ATOM     34  C   UNL     1      -2.960   3.127   0.012  0.00  0.00    +0.019 C 
ENDBRANCH  22  25
ENDBRANCH  20  21
ENDBRANCH  18  20
ENDBRANCH   1  18
TORSDOF 8
