REMARK  Name = ZINC38984083
REMARK  7 active torsions:
REMARK  status: ('A' for Active; 'I' for Inactive)
REMARK    1  A    between atoms: C_1  and  C_2
REMARK    2  A    between atoms: C_2  and  O_3
REMARK    3  A    between atoms: O_3  and  C_4
REMARK    4  A    between atoms: C_9  and  N_10
REMARK    5  A    between atoms: N_10  and  C_11
REMARK    6  A    between atoms: N_14  and  S_15
REMARK    7  A    between atoms: S_15  and  C_18
REMARK                            x       y       z     vdW  Elec       q    Type
REMARK                         _______ _______ _______ _____ _____    ______ ____
ROOT
ATOM      1  C   UNL     1       2.615  -2.064   4.589  0.00  0.00    +0.237 C 
ATOM      2  C   UNL     1       1.959  -1.395   5.775  0.00  0.00    +0.192 C 
ATOM      3  N   UNL     1       0.671  -1.460   5.939  0.00  0.00    -0.110 NA
ATOM      4  N   UNL     1       2.726  -0.735   6.658  0.00  0.00    -0.226 NA
ATOM      5  C   UNL     1       4.032  -0.657   6.514  0.00  0.00    +0.089 A 
ATOM      6  C   UNL     1       4.811   0.049   7.466  0.00  0.00    +0.030 A 
ATOM      7  C   UNL     1       6.152   0.133   7.323  0.00  0.00    +0.002 A 
ATOM      8  C   UNL     1       6.841  -0.457   6.251  0.00  0.00    +0.002 A 
ATOM      9  C   UNL     1       6.195  -1.152   5.288  0.00  0.00    +0.027 A 
ATOM     10  C   UNL     1       4.734  -1.291   5.371  0.00  0.00    +0.063 A 
ATOM     11  N   UNL     1       4.077  -1.954   4.461  0.00  0.00    -0.359 N 
ATOM     12  H   UNL     1       4.542  -2.366   3.716  0.00  0.00    +0.162 HD
ENDROOT
BRANCH   3  13
ATOM     13  S   UNL     1      -0.036  -0.723   7.243  0.00  0.00    +0.102 S 
ATOM     14  O   UNL     1       0.422  -1.415   8.397  0.00  0.00    -0.146 OA
ATOM     15  O   UNL     1       0.149   0.675   7.070  0.00  0.00    -0.146 OA
BRANCH  13  16
ATOM     16  C   UNL     1      -1.769  -1.019   7.133  0.00  0.00    +0.132 A 
ATOM     17  C   UNL     1      -2.403  -1.779   8.098  0.00  0.00    +0.050 A 
ATOM     18  C   UNL     1      -3.764  -2.012   8.012  0.00  0.00    +0.043 A 
ATOM     19  C   UNL     1      -4.491  -1.484   6.959  0.00  0.00    +0.021 A 
ATOM     20  C   UNL     1      -3.857  -0.724   5.995  0.00  0.00    +0.023 A 
ATOM     21  C   UNL     1      -2.497  -0.487   6.084  0.00  0.00    +0.068 A 
ATOM     22 CL   UNL     1      -1.702   0.474   4.876  0.00  0.00    -0.082 Cl
ATOM     23 CL   UNL     1      -4.560  -2.967   9.223  0.00  0.00    -0.083 Cl
ENDBRANCH  13  16
ENDBRANCH   3  13
BRANCH   1  24
ATOM     24  N   UNL     1       2.018  -1.505   3.373  0.00  0.00    -0.315 N 
ATOM     25  H   UNL     1       1.973  -0.544   3.253  0.00  0.00    +0.149 HD
BRANCH  24  31
ATOM     26  C   UNL     1       0.820  -1.834   1.297  0.00  0.00    +0.141 A 
ATOM     27  C   UNL     1       0.325  -2.682   0.321  0.00  0.00    +0.047 A 
ATOM     28  C   UNL     1       0.512  -4.048   0.432  0.00  0.00    +0.004 A 
ATOM     29  C   UNL     1       1.192  -4.570   1.516  0.00  0.00    +0.002 A 
ATOM     30  C   UNL     1       1.689  -3.730   2.495  0.00  0.00    +0.026 A 
ATOM     31  C   UNL     1       1.510  -2.359   2.387  0.00  0.00    +0.071 A 
BRANCH  26  32
ATOM     32  O   UNL     1       0.636  -0.490   1.189  0.00  0.00    -0.490 OA
BRANCH  32  34
ATOM     33  C   UNL     1      -0.187   1.502   0.097  0.00  0.00    +0.048 C 
ATOM     34  C   UNL     1      -0.082  -0.023   0.045  0.00  0.00    +0.226 C 
ENDBRANCH  32  34
ENDBRANCH  26  32
ENDBRANCH  24  31
ENDBRANCH   1  24
TORSDOF 6
