REMARK  Name = ZINC41022170
REMARK  8 active torsions:
REMARK  status: ('A' for Active; 'I' for Inactive)
REMARK    1  A    between atoms: C_5  and  C_7
REMARK    2  A    between atoms: C_7  and  C_9
REMARK    3  A    between atoms: C_7  and  N_27
REMARK    4  A    between atoms: C_9  and  N_10
REMARK    5  A    between atoms: C_11  and  C_13
REMARK    6  A    between atoms: C_13  and  C_14
REMARK    7  A    between atoms: C_14  and  C_15
REMARK    8  A    between atoms: C_18  and  C_20
REMARK                            x       y       z     vdW  Elec       q    Type
REMARK                         _______ _______ _______ _____ _____    ______ ____
ROOT
ATOM      1  N   UNL     1       0.330  -2.924  -2.172  0.00  0.00    -0.317 N 
ATOM      2  C   UNL     1       0.312  -3.629  -3.321  0.00  0.00    +0.213 C 
ATOM      3  O   UNL     1       1.274  -4.295  -3.639  0.00  0.00    -0.276 OA
ATOM      4  H   UNL     1      -0.440  -2.392  -1.918  0.00  0.00    +0.149 HD
ENDROOT
BRANCH   1   5
ATOM      5  C   UNL     1       1.512  -2.963  -1.308  0.00  0.00    +0.093 C 
BRANCH   5   6
ATOM      6  C   UNL     1       1.225  -2.194  -0.017  0.00  0.00    -0.019 C 
BRANCH   6   7
ATOM      7  N   UNL     1       0.011  -2.730   0.613  0.00  0.00    +0.385 N 
ATOM      8  C   UNL     1      -0.224  -2.010   1.879  0.00  0.00    -0.078 C 
ATOM      9  C   UNL     1      -1.693  -2.093   2.207  0.00  0.00    -0.019 C 
ATOM     10  C   UNL     1      -1.989  -3.249   3.180  0.00  0.00    -0.002 C 
ATOM     11  C   UNL     1      -1.173  -4.511   2.834  0.00  0.00    -0.002 C 
ATOM     12  C   UNL     1      -1.111  -4.765   1.349  0.00  0.00    -0.019 C 
ATOM     13  C   UNL     1       0.163  -4.107   0.779  0.00  0.00    -0.078 C 
ATOM     14  H   UNL     1      -0.772  -2.563  -0.002  0.00  0.00    -0.081 HD
ENDBRANCH   6   7
BRANCH   6  19
ATOM     15  C   UNL     1      -0.438   1.122  -0.716  0.00  0.00    +0.000 A 
ATOM     16  C   UNL     1       0.655   1.943  -0.920  0.00  0.00    +0.001 A 
ATOM     17  C   UNL     1       1.934   1.425  -0.832  0.00  0.00    +0.020 A 
ATOM     18  C   UNL     1       2.119   0.086  -0.539  0.00  0.00    +0.043 A 
ATOM     19  C   UNL     1       1.024  -0.735  -0.335  0.00  0.00    -0.041 A 
ATOM     20  C   UNL     1      -0.254  -0.216  -0.424  0.00  0.00    +0.003 A 
ATOM     21 CL   UNL     1       3.725  -0.565  -0.429  0.00  0.00    -0.083 Cl
ENDBRANCH   6  19
ENDBRANCH   5   6
ENDBRANCH   1   5
BRANCH   2  22
ATOM     22  C   UNL     1      -0.904  -3.589  -4.210  0.00  0.00    +0.105 C 
BRANCH  22  23
ATOM     23  C   UNL     1      -0.666  -4.469  -5.439  0.00  0.00    +0.105 C 
BRANCH  23  24
ATOM     24  C   UNL     1      -1.882  -4.429  -6.329  0.00  0.00    +0.197 A 
ATOM     25  N   UNL     1      -2.085  -3.579  -7.296  0.00  0.00    -0.221 NA
ATOM     26  C   UNL     1      -3.269  -3.845  -7.867  0.00  0.00    +0.161 A 
ATOM     27  C   UNL     1      -3.809  -4.906  -7.214  0.00  0.00    +0.155 A 
ATOM     28  O   UNL     1      -2.927  -5.265  -6.255  0.00  0.00    -0.440 OA
BRANCH  27  29
ATOM     29  C   UNL     1      -5.110  -5.548  -7.500  0.00  0.00    +0.019 A 
ATOM     30  C   UNL     1      -5.538  -6.634  -6.734  0.00  0.00    +0.013 A 
ATOM     31  C   UNL     1      -6.753  -7.229  -7.006  0.00  0.00    +0.021 A 
ATOM     32  C   UNL     1      -7.546  -6.750  -8.035  0.00  0.00    +0.041 A 
ATOM     33  C   UNL     1      -7.126  -5.674  -8.798  0.00  0.00    +0.021 A 
ATOM     34  C   UNL     1      -5.917  -5.067  -8.532  0.00  0.00    +0.013 A 
ATOM     35 CL   UNL     1      -9.074  -7.504  -8.371  0.00  0.00    -0.084 Cl
ENDBRANCH  27  29
ENDBRANCH  23  24
ENDBRANCH  22  23
ENDBRANCH   2  22
TORSDOF 8
