REMARK  Name = ZINC38074682
REMARK  5 active torsions:
REMARK  status: ('A' for Active; 'I' for Inactive)
REMARK    1  A    between atoms: N_10  and  C_11
REMARK    2  A    between atoms: C_11  and  C_12
REMARK    3  A    between atoms: C_12  and  C_14
REMARK    4  A    between atoms: C_12  and  O_21
REMARK    5  A    between atoms: C_17  and  N_20
REMARK                            x       y       z     vdW  Elec       q    Type
REMARK                         _______ _______ _______ _____ _____    ______ ____
ROOT
ATOM      1  C   UNL     1       5.048  -3.242  -0.066  0.00  0.00    +0.142 C 
ENDROOT
BRANCH   1  11
ATOM      2  C   UNL     1      -0.017   1.373   0.010  0.00  0.00    +0.002 A 
ATOM      3  C   UNL     1       1.170   2.091   0.002  0.00  0.00    +0.004 A 
ATOM      4  C   UNL     1       2.384   1.435  -0.013  0.00  0.00    +0.048 A 
ATOM      5  C   UNL     1       2.421   0.050  -0.021  0.00  0.00    +0.157 A 
ATOM      6  C   UNL     1       1.223  -0.680  -0.013  0.00  0.00    +0.111 A 
ATOM      7  C   UNL     1       0.002  -0.004   0.002  0.00  0.00    +0.031 A 
ATOM      8  N   UNL     1       1.569  -1.996  -0.024  0.00  0.00    -0.195 NA
ATOM      9  C   UNL     1       2.874  -2.087  -0.038  0.00  0.00    +0.289 A 
ATOM     10  O   UNL     1       3.422  -0.859  -0.036  0.00  0.00    -0.425 OA
ATOM     11  N   UNL     1       3.583  -3.267  -0.052  0.00  0.00    -0.296 N 
ATOM     12  H   UNL     1       3.112  -4.115  -0.052  0.00  0.00    +0.150 HD
ENDBRANCH   1  11
BRANCH   1  13
ATOM     13  C   UNL     1       5.582  -4.675  -0.080  0.00  0.00    +0.162 C 
BRANCH  13  14
ATOM     14  C   UNL     1       7.085  -4.652   0.029  0.00  0.00    -0.018 A 
ATOM     15  C   UNL     1       7.854  -4.385  -1.089  0.00  0.00    +0.008 A 
ATOM     16  C   UNL     1       9.231  -4.363  -0.992  0.00  0.00    +0.023 A 
ATOM     17  C   UNL     1       9.844  -4.609   0.230  0.00  0.00    +0.025 A 
ATOM     18  C   UNL     1       9.069  -4.877   1.351  0.00  0.00    +0.023 A 
ATOM     19  C   UNL     1       7.692  -4.892   1.249  0.00  0.00    +0.008 A 
BRANCH  17  20
ATOM     20  N   UNL     1      11.237  -4.588   0.331  0.00  0.00    -0.358 N 
ATOM     21  H   UNL     1      11.778  -4.401  -0.453  0.00  0.00    +0.142 HD
ATOM     22  H   UNL     1      11.664  -4.760   1.185  0.00  0.00    +0.142 HD
ENDBRANCH  17  20
ENDBRANCH  13  14
BRANCH  13  23
ATOM     23  O   UNL     1       5.203  -5.314  -1.301  0.00  0.00    -0.386 OA
ATOM     24  H   UNL     1       5.540  -4.876  -2.095  0.00  0.00    +0.210 HD
ENDBRANCH  13  23
ENDBRANCH   1  13
TORSDOF 5
