REMARK  Name = ZINC40061031
REMARK  7 active torsions:
REMARK  status: ('A' for Active; 'I' for Inactive)
REMARK    1  A    between atoms: C_1  and  C_2
REMARK    2  A    between atoms: C_4  and  C_34
REMARK    3  A    between atoms: C_13  and  C_27
REMARK    4  A    between atoms: C_20  and  C_26
REMARK    5  A    between atoms: C_21  and  C_23
REMARK    6  A    between atoms: C_23  and  C_25
REMARK    7  A    between atoms: C_31  and  O_33
REMARK                            x       y       z     vdW  Elec       q    Type
REMARK                         _______ _______ _______ _____ _____    ______ ____
ROOT
ATOM      1  C   UNL     1      -0.523   1.450   0.038  0.00  0.00    +0.044 C 
ATOM      2  C   UNL     1      -0.237  -0.029   0.015  0.00  0.00    -0.047 A 
ATOM      3  C   UNL     1      -0.233  -0.708  -1.195  0.00  0.00    +0.007 A 
ATOM      4  C   UNL     1       0.027  -2.050  -1.231  0.00  0.00    -0.036 A 
ATOM      5  C   UNL     1       0.289  -2.735  -0.046  0.00  0.00    +0.067 A 
ATOM      6  C   UNL     1       0.283  -2.060   1.186  0.00  0.00    +0.140 A 
ATOM      7  C   UNL     1       0.022  -0.690   1.195  0.00  0.00    +0.050 A 
ATOM      8  O   UNL     1       0.519  -2.692   2.358  0.00  0.00    -0.450 OA
ATOM      9  C   UNL     1       1.002  -3.950   2.351  0.00  0.00    +0.199 A 
ATOM     10  C   UNL     1       1.051  -4.714   1.220  0.00  0.00    +0.072 A 
ATOM     11  C   UNL     1       0.582  -4.191  -0.068  0.00  0.00    +0.199 A 
ATOM     12  O   UNL     1       0.445  -4.884  -1.060  0.00  0.00    -0.287 OA
ATOM     13  C   UNL     1       1.631  -6.040   1.590  0.00  0.00    +0.152 C 
ATOM     14  N   UNL     1       1.916  -5.964   3.032  0.00  0.00    -0.232 N 
ATOM     15  C   UNL     1       1.546  -4.742   3.467  0.00  0.00    +0.289 C 
ATOM     16  O   UNL     1       1.648  -4.351   4.613  0.00  0.00    -0.266 OA
ATOM     17  C   UNL     1       2.466  -6.968   3.805  0.00  0.00    +0.169 A 
ATOM     18  N   UNL     1       2.848  -8.175   3.425  0.00  0.00    -0.229 NA
ATOM     19  C   UNL     1       3.356  -9.030   4.272  0.00  0.00    +0.058 A 
ATOM     20  C   UNL     1       3.470  -8.596   5.592  0.00  0.00    +0.078 A 
ATOM     21  S   UNL     1       2.814  -6.941   5.451  0.00  0.00    -0.049 S 
ATOM     22  C   UNL     1       3.793 -10.408   3.847  0.00  0.00    +0.067 C 
ATOM     23  C   UNL     1       0.031  -2.784  -2.547  0.00  0.00    +0.044 C 
ENDROOT
BRANCH  13  24
ATOM     24  C   UNL     1       0.638  -7.138   1.312  0.00  0.00    -0.019 A 
ATOM     25  C   UNL     1      -0.391  -7.382   2.204  0.00  0.00    +0.006 A 
ATOM     26  C   UNL     1      -1.303  -8.389   1.952  0.00  0.00    +0.004 A 
ATOM     27  C   UNL     1      -1.190  -9.155   0.808  0.00  0.00    +0.045 A 
ATOM     28  C   UNL     1      -0.160  -8.913  -0.088  0.00  0.00    +0.117 A 
ATOM     29  C   UNL     1       0.752  -7.897   0.164  0.00  0.00    +0.051 A 
BRANCH  28  30
ATOM     30  O   UNL     1      -0.046  -9.665  -1.215  0.00  0.00    -0.507 OA
ATOM     31  H   UNL     1      -0.526  -9.310  -1.975  0.00  0.00    +0.292 HD
ENDBRANCH  28  30
ENDBRANCH  13  24
BRANCH  20  32
ATOM     32  C   UNL     1       3.971  -9.273   6.722  0.00  0.00    +0.168 C 
ATOM     33  O   UNL     1       4.384 -10.410   6.615  0.00  0.00    -0.292 OA
ATOM     34  C   UNL     1       3.993  -8.586   8.063  0.00  0.00    +0.092 C 
ENDBRANCH  20  32
TORSDOF 3
