REMARK  Name = ZINC13618890
REMARK  10 active torsions:
REMARK  status: ('A' for Active; 'I' for Inactive)
REMARK    1  A    between atoms: C_1  and  C_2
REMARK    2  A    between atoms: C_6  and  N_8
REMARK    3  A    between atoms: N_8  and  C_9
REMARK    4  A    between atoms: C_9  and  C_10
REMARK    5  A    between atoms: C_14  and  C_22
REMARK    6  A    between atoms: C_23  and  C_25
REMARK    7  A    between atoms: C_28  and  C_31
REMARK    8  A    between atoms: C_31  and  C_32
REMARK    9  A    between atoms: C_31  and  C_33
REMARK   10  A    between atoms: C_31  and  C_34
REMARK                            x       y       z     vdW  Elec       q    Type
REMARK                         _______ _______ _______ _____ _____    ______ ____
ROOT
ATOM      1  N   UNL     1       0.375  -2.647   2.757  0.00  0.00    -0.263 N 
ATOM      2  C   UNL     1      -0.210  -1.983   3.775  0.00  0.00    +0.251 C 
ATOM      3  O   UNL     1      -0.765  -2.600   4.663  0.00  0.00    -0.270 OA
ENDROOT
BRANCH   1   9
ATOM      4  C   UNL     1       0.465  -1.564  -2.037  0.00  0.00    +0.044 C 
ATOM      5  C   UNL     1       1.005  -1.393  -0.640  0.00  0.00    -0.049 A 
ATOM      6  C   UNL     1       2.064  -0.533  -0.410  0.00  0.00    +0.003 A 
ATOM      7  C   UNL     1       2.562  -0.373   0.870  0.00  0.00    +0.002 A 
ATOM      8  C   UNL     1       2.005  -1.073   1.922  0.00  0.00    +0.023 A 
ATOM      9  C   UNL     1       0.942  -1.937   1.694  0.00  0.00    +0.037 A 
ATOM     10  C   UNL     1       0.440  -2.091   0.408  0.00  0.00    +0.027 A 
ENDBRANCH   1   9
BRANCH   2  11
ATOM     11  C   UNL     1      -0.175  -0.506   3.810  0.00  0.00    +0.037 A 
ATOM     12  C   UNL     1      -0.126   0.223   2.621  0.00  0.00    +0.013 A 
ATOM     13  C   UNL     1      -0.094   1.602   2.661  0.00  0.00    +0.005 A 
ATOM     14  C   UNL     1      -0.110   2.262   3.877  0.00  0.00    -0.042 A 
ATOM     15  C   UNL     1      -0.158   1.546   5.060  0.00  0.00    +0.005 A 
ATOM     16  C   UNL     1      -0.197   0.167   5.033  0.00  0.00    +0.013 A 
BRANCH  14  17
ATOM     17  C   UNL     1      -0.075   3.768   3.913  0.00  0.00    -0.013 C 
ATOM     18  C   UNL     1      -1.292   4.325   3.172  0.00  0.00    +0.015 C 
ATOM     19  C   UNL     1      -0.102   4.244   5.367  0.00  0.00    +0.015 C 
ATOM     20  C   UNL     1       1.205   4.265   3.238  0.00  0.00    +0.015 C 
ENDBRANCH  14  17
ENDBRANCH   2  11
BRANCH   1  21
ATOM     21  C   UNL     1       0.416  -4.111   2.766  0.00  0.00    +0.154 C 
BRANCH  21  22
ATOM     22  C   UNL     1       1.612  -4.575   3.556  0.00  0.00    +0.035 A 
ATOM     23  C   UNL     1       1.471  -4.904   4.864  0.00  0.00    +0.020 A 
ATOM     24  C   UNL     1       2.653  -5.352   5.604  0.00  0.00    -0.001 A 
ATOM     25  C   UNL     1       2.570  -5.705   6.955  0.00  0.00    +0.013 A 
ATOM     26  C   UNL     1       3.691  -6.119   7.616  0.00  0.00    -0.050 A 
ATOM     27  C   UNL     1       4.912  -6.193   6.960  0.00  0.00    +0.005 A 
ATOM     28  C   UNL     1       5.017  -5.850   5.629  0.00  0.00    +0.026 A 
ATOM     29  C   UNL     1       3.889  -5.426   4.934  0.00  0.00    +0.049 A 
ATOM     30  N   UNL     1       3.965  -5.078   3.603  0.00  0.00    -0.322 N 
ATOM     31  H   UNL     1       4.818  -5.130   3.143  0.00  0.00    +0.169 HD
ATOM     32  C   UNL     1       2.873  -4.673   2.930  0.00  0.00    +0.254 A 
ATOM     33  O   UNL     1       2.977  -4.377   1.752  0.00  0.00    -0.268 OA
ATOM     34  C   UNL     1       3.602  -6.499   9.072  0.00  0.00    +0.044 C 
ENDBRANCH  21  22
ENDBRANCH   1  21
TORSDOF 5
