REMARK  Name = ZINC20617470
REMARK  11 active torsions:
REMARK  status: ('A' for Active; 'I' for Inactive)
REMARK    1  A    between atoms: C_1  and  C_2
REMARK    2  A    between atoms: C_2  and  C_3
REMARK    3  A    between atoms: C_6  and  N_9
REMARK    4  A    between atoms: C_11  and  C_23
REMARK    5  A    between atoms: C_14  and  C_21
REMARK    6  A    between atoms: C_17  and  C_20
REMARK    7  A    between atoms: C_21  and  O_22
REMARK    8  A    between atoms: N_25  and  C_26
REMARK    9  A    between atoms: C_28  and  C_34
REMARK   10  A    between atoms: C_31  and  O_32
REMARK   11  A    between atoms: O_32  and  C_33
REMARK                            x       y       z     vdW  Elec       q    Type
REMARK                         _______ _______ _______ _____ _____    ______ ____
ROOT
ATOM      1  N   UNL     1       3.381  -0.210   1.266  0.00  0.00    -0.325 N 
ATOM      2  C   UNL     1       2.372   0.221   0.541  0.00  0.00    +0.212 A 
ATOM      3  C   UNL     1       1.207  -0.646   0.272  0.00  0.00    +0.098 A 
ATOM      4  C   UNL     1       0.002  -0.025   0.024  0.00  0.00    +0.030 A 
ATOM      5  C   UNL     1      -0.015   1.439   0.046  0.00  0.00    +0.027 A 
ATOM      6  C   UNL     1      -1.214   2.162   0.073  0.00  0.00    +0.007 A 
ATOM      7  C   UNL     1      -1.151   3.540   0.091  0.00  0.00    +0.117 A 
ATOM      8  N   UNL     1       0.008   4.172   0.094  0.00  0.00    -0.256 NA
ATOM      9  C   UNL     1       1.162   3.537   0.073  0.00  0.00    +0.081 A 
ATOM     10  C   UNL     1       1.200   2.150   0.047  0.00  0.00    +0.159 A 
ATOM     11  O   UNL     1       2.373   1.475   0.020  0.00  0.00    -0.437 OA
ATOM     12  C   UNL     1       2.449   4.322   0.078  0.00  0.00    +0.069 C 
ATOM     13  H   UNL     1       3.329  -1.197   1.749  0.00  0.00    +0.169 HD
ENDROOT
BRANCH   1  17
ATOM     14  C   UNL     1       6.750   2.146   1.729  0.00  0.00    -0.047 A 
ATOM     15  C   UNL     1       5.749   2.181   2.683  0.00  0.00    +0.005 A 
ATOM     16  C   UNL     1       4.623   1.398   2.536  0.00  0.00    +0.026 A 
ATOM     17  C   UNL     1       4.494   0.569   1.419  0.00  0.00    +0.042 A 
ATOM     18  C   UNL     1       5.512   0.534   0.462  0.00  0.00    +0.026 A 
ATOM     19  C   UNL     1       6.629   1.327   0.620  0.00  0.00    +0.005 A 
BRANCH  14  21
ATOM     20  C   UNL     1       9.041   2.225   2.674  0.00  0.00    +0.009 C 
ATOM     21  C   UNL     1       7.977   3.004   1.897  0.00  0.00    +0.032 C 
ENDBRANCH  14  21
ENDBRANCH   1  17
BRANCH   3  22
ATOM     22  C   UNL     1       1.327  -2.115   0.269  0.00  0.00    +0.253 C 
ATOM     23  O   UNL     1       0.351  -2.805   0.044  0.00  0.00    -0.270 OA
ATOM     24  N   UNL     1       2.520  -2.693   0.515  0.00  0.00    -0.278 N 
ATOM     25  H   UNL     1       3.420  -2.072   0.627  0.00  0.00    +0.155 HD
BRANCH  24  26
ATOM     26  C   UNL     1       2.612  -4.086   0.628  0.00  0.00    +0.076 A 
ATOM     27  C   UNL     1       1.501  -4.829   1.001  0.00  0.00    +0.030 A 
ATOM     28  C   UNL     1       1.593  -6.204   1.107  0.00  0.00    -0.048 A 
ATOM     29  C   UNL     1       2.794  -6.841   0.853  0.00  0.00    +0.007 A 
ATOM     30  C   UNL     1       3.906  -6.107   0.486  0.00  0.00    +0.048 A 
ATOM     31  C   UNL     1       3.821  -4.729   0.372  0.00  0.00    +0.141 A 
ATOM     32  C   UNL     1       0.384  -7.010   1.507  0.00  0.00    +0.044 C 
BRANCH  31  33
ATOM     33  O   UNL     1       4.915  -4.006   0.011  0.00  0.00    -0.493 OA
ATOM     34  C   UNL     1       6.120  -4.732  -0.236  0.00  0.00    +0.277 C 
ENDBRANCH  31  33
ENDBRANCH  24  26
ENDBRANCH   3  22
BRANCH   6  35
ATOM     35  C   UNL     1      -2.543   1.451   0.077  0.00  0.00    +0.193 C 
BRANCH  35  36
ATOM     36  O   UNL     1      -3.599   2.413   0.106  0.00  0.00    -0.390 OA
ATOM     37  H   UNL     1      -4.647   2.080   0.113  0.00  0.00    +0.210 HD
ENDBRANCH  35  36
ENDBRANCH   6  35
TORSDOF 7
