REMARK  Name = ZINC60379278
REMARK  8 active torsions:
REMARK  status: ('A' for Active; 'I' for Inactive)
REMARK    1  A    between atoms: C_1  and  C_2
REMARK    2  A    between atoms: C_7  and  C_8
REMARK    3  A    between atoms: C_8  and  C_9
REMARK    4  A    between atoms: C_8  and  C_10
REMARK    5  A    between atoms: C_11  and  C_16
REMARK    6  A    between atoms: C_16  and  N_17
REMARK    7  A    between atoms: C_20  and  C_24
REMARK    8  A    between atoms: C_20  and  C_25
REMARK                            x       y       z     vdW  Elec       q    Type
REMARK                         _______ _______ _______ _____ _____    ______ ____
ROOT
ATOM      1  C   UNL     1       0.929  -4.986   1.162  0.00  0.00    +0.154 C 
ENDROOT
BRANCH   1   9
ATOM      2  C   UNL     1      -0.947   1.293   0.034  0.00  0.00    +0.044 C 
ATOM      3  C   UNL     1      -0.548  -0.159  -0.003  0.00  0.00    -0.044 A 
ATOM      4  C   UNL     1      -0.504  -0.825  -1.210  0.00  0.00    +0.050 A 
ATOM      5  C   UNL     1      -0.136  -2.164  -1.248  0.00  0.00    +0.140 A 
ATOM      6  C   UNL     1       0.187  -2.824  -0.049  0.00  0.00    +0.023 A 
ATOM      7  C   UNL     1       0.136  -2.131   1.165  0.00  0.00    +0.016 A 
ATOM      8  C   UNL     1      -0.223  -0.812   1.177  0.00  0.00    -0.041 A 
ATOM      9  C   UNL     1       0.574  -4.237  -0.097  0.00  0.00    -0.012 A 
ATOM     10  C   UNL     1       0.603  -4.852  -1.306  0.00  0.00    +0.098 A 
ATOM     11  C   UNL     1       0.266  -4.128  -2.470  0.00  0.00    +0.338 A 
ATOM     12  O   UNL     1       0.297  -4.692  -3.549  0.00  0.00    -0.245 OA
ATOM     13  O   UNL     1      -0.087  -2.834  -2.418  0.00  0.00    -0.422 OA
BRANCH   8  14
ATOM     14  C   UNL     1      -0.272  -0.063   2.484  0.00  0.00    +0.013 C 
ATOM     15  C   UNL     1      -1.387  -0.637   3.360  0.00  0.00    +0.012 C 
ATOM     16  C   UNL     1       1.069  -0.209   3.206  0.00  0.00    +0.012 C 
ENDBRANCH   8  14
ENDBRANCH   1   9
BRANCH   1  17
ATOM     17  N   UNL     1      -0.290  -5.521   1.772  0.00  0.00    -0.220 N 
ATOM     18  C   UNL     1      -0.972  -4.912   2.762  0.00  0.00    +0.253 C 
ATOM     19  O   UNL     1      -0.702  -3.857   3.295  0.00  0.00    -0.272 OA
ATOM     20  C   UNL     1      -2.147  -5.819   3.069  0.00  0.00    +0.152 C 
ATOM     21  N   UNL     1      -1.975  -6.939   2.129  0.00  0.00    -0.280 N 
ATOM     22  C   UNL     1      -0.868  -6.673   1.412  0.00  0.00    +0.310 C 
ATOM     23  O   UNL     1      -0.439  -7.399   0.536  0.00  0.00    -0.252 OA
ATOM     24  C   UNL     1      -2.080  -6.315   4.515  0.00  0.00    +0.048 C 
ATOM     25  H   UNL     1      -2.549  -7.716   2.041  0.00  0.00    +0.152 HD
BRANCH  20  26
ATOM     26  C   UNL     1      -3.449  -5.106   2.812  0.00  0.00    +0.073 A 
ATOM     27  C   UNL     1      -4.337  -5.619   1.885  0.00  0.00    +0.026 A 
ATOM     28  C   UNL     1      -5.532  -4.955   1.655  0.00  0.00    +0.003 A 
ATOM     29  C   UNL     1      -5.791  -3.795   2.369  0.00  0.00    +0.020 A 
ATOM     30  C   UNL     1      -4.855  -3.342   3.280  0.00  0.00    +0.111 A 
ATOM     31  N   UNL     1      -3.731  -4.002   3.477  0.00  0.00    -0.257 NA
ENDBRANCH  20  26
ENDBRANCH   1  17
TORSDOF 4
