REMARK  Name = ZINC41033257
REMARK  2 active torsions:
REMARK  status: ('A' for Active; 'I' for Inactive)
REMARK    1  A    between atoms: C_3  and  N_8
REMARK    2  A    between atoms: C_6  and  N_7
REMARK                            x       y       z     vdW  Elec       q    Type
REMARK                         _______ _______ _______ _____ _____    ______ ____
ROOT
ATOM      1  N   UNL     1       3.587   2.132  -0.022  0.00  0.00    -0.192 N 
ATOM      2  C   UNL     1       4.806   1.565   0.054  0.00  0.00    +0.251 C 
ATOM      3  O   UNL     1       5.058   0.382   0.143  0.00  0.00    -0.272 OA
ATOM      4  C   UNL     1       5.801   2.712   0.007  0.00  0.00    +0.113 C 
ATOM      5  C   UNL     1       6.599   2.591  -1.311  0.00  0.00    +0.035 C 
ATOM      6  C   UNL     1       7.143   3.945  -1.675  0.00  0.00    +0.003 C 
ATOM      7  C   UNL     1       8.579   4.167  -1.161  0.00  0.00    +0.000 C 
ATOM      8  C   UNL     1       8.789   3.640   0.272  0.00  0.00    +0.000 C 
ATOM      9  C   UNL     1       7.625   3.956   1.172  0.00  0.00    +0.003 C 
ATOM     10  C   UNL     1       6.670   2.747   1.176  0.00  0.00    +0.035 C 
ATOM     11  N   UNL     1       4.936   3.905  -0.096  0.00  0.00    -0.285 N 
ATOM     12  C   UNL     1       3.667   3.464  -0.113  0.00  0.00    +0.314 C 
ATOM     13  O   UNL     1       2.699   4.194  -0.198  0.00  0.00    -0.252 OA
ATOM     14  H   UNL     1       5.229   4.829  -0.145  0.00  0.00    +0.151 HD
ENDROOT
BRANCH   1  17
ATOM     15  C   UNL     1      -0.016   1.385   0.032  0.00  0.00    +0.024 A 
ATOM     16  C   UNL     1       1.170   2.091   0.025  0.00  0.00    +0.026 A 
ATOM     17  C   UNL     1       2.381   1.413  -0.013  0.00  0.00    +0.046 A 
ATOM     18  C   UNL     1       2.400   0.026  -0.044  0.00  0.00    +0.026 A 
ATOM     19  C   UNL     1       1.214  -0.681  -0.036  0.00  0.00    +0.024 A 
ATOM     20  C   UNL     1       0.002  -0.004   0.002  0.00  0.00    +0.025 A 
BRANCH  20  21
ATOM     21  N   UNL     1      -1.199  -0.720   0.010  0.00  0.00    -0.358 N 
ATOM     22  H   UNL     1      -2.046  -0.247   0.036  0.00  0.00    +0.142 HD
ATOM     23  H   UNL     1      -1.186  -1.690  -0.011  0.00  0.00    +0.142 HD
ENDBRANCH  20  21
ENDBRANCH   1  17
TORSDOF 2
