REMARK  Name = ZINC39673769
REMARK  9 active torsions:
REMARK  status: ('A' for Active; 'I' for Inactive)
REMARK    1  A    between atoms: C_1  and  C_2
REMARK    2  A    between atoms: C_2  and  C_3
REMARK    3  A    between atoms: C_3  and  C_4
REMARK    4  A    between atoms: C_4  and  C_6
REMARK    5  A    between atoms: C_4  and  N_7
REMARK    6  A    between atoms: C_8  and  C_10
REMARK    7  A    between atoms: C_21  and  C_23
REMARK    8  A    between atoms: C_28  and  O_29
REMARK    9  A    between atoms: O_29  and  C_30
REMARK                            x       y       z     vdW  Elec       q    Type
REMARK                         _______ _______ _______ _____ _____    ______ ____
ROOT
ATOM      1  C   UNL     1       0.155  -4.339   2.052  0.00  0.00    +0.100 C 
ATOM      2  C   UNL     1      -0.746  -4.293   3.307  0.00  0.00    +0.121 C 
ATOM      3  N   UNL     1      -1.213  -5.688   3.484  0.00  0.00    -0.296 N 
ATOM      4  C   UNL     1      -0.029  -6.517   3.155  0.00  0.00    +0.115 C 
ATOM      5  C   UNL     1       0.626  -5.800   1.958  0.00  0.00    -0.004 C 
ATOM      6  C   UNL     1       0.155  -6.423   0.648  0.00  0.00    -0.010 C 
ATOM      7  C   UNL     1       0.684  -7.857   0.552  0.00  0.00    -0.082 C 
ATOM      8  N   UNL     1       2.150  -7.845   0.612  0.00  0.00    +0.379 N 
ATOM      9  C   UNL     1       2.594  -7.329   1.912  0.00  0.00    -0.082 C 
ATOM     10  C   UNL     1       2.146  -5.873   2.066  0.00  0.00    -0.010 C 
ATOM     11  C   UNL     1      -2.437  -6.108   3.860  0.00  0.00    +0.252 C 
ATOM     12  O   UNL     1      -2.641  -7.291   4.053  0.00  0.00    -0.270 OA
ATOM     13  H   UNL     1       2.499  -8.784   0.487  0.00  0.00    -0.086 HD
ATOM     14  H   UNL     1       2.511  -7.255  -0.123  0.00  0.00    -0.086 HD
ENDROOT
BRANCH  11  15
ATOM     15  C   UNL     1      -3.530  -5.132   4.037  0.00  0.00    +0.099 A 
ATOM     16  C   UNL     1      -3.266  -3.850   4.532  0.00  0.00    +0.020 A 
ATOM     17  C   UNL     1      -4.326  -2.972   4.679  0.00  0.00    +0.021 A 
ATOM     18  C   UNL     1      -5.602  -3.382   4.336  0.00  0.00    +0.114 A 
ATOM     19  N   UNL     1      -5.827  -4.596   3.872  0.00  0.00    -0.220 NA
ATOM     20  C   UNL     1      -4.850  -5.471   3.706  0.00  0.00    +0.233 A 
BRANCH  20  21
ATOM     21  O   UNL     1      -5.127  -6.705   3.221  0.00  0.00    -0.437 OA
BRANCH  21  22
ATOM     22  C   UNL     1      -6.430  -7.029   3.007  0.00  0.00    +0.130 A 
ATOM     23  C   UNL     1      -7.090  -6.545   1.887  0.00  0.00    +0.048 A 
ATOM     24  C   UNL     1      -8.414  -6.876   1.670  0.00  0.00    +0.023 A 
ATOM     25  C   UNL     1      -9.081  -7.689   2.570  0.00  0.00    +0.041 A 
ATOM     26  C   UNL     1      -8.424  -8.172   3.688  0.00  0.00    +0.023 A 
ATOM     27  C   UNL     1      -7.098  -7.848   3.904  0.00  0.00    +0.048 A 
ATOM     28 CL   UNL     1     -10.745  -8.102   2.296  0.00  0.00    -0.084 Cl
ENDBRANCH  21  22
ENDBRANCH  20  21
ENDBRANCH  11  15
BRANCH   1  30
ATOM     29  N   UNL     1      -0.017  -3.377  -0.220  0.00  0.00    -0.312 N 
ATOM     30  C   UNL     1      -0.635  -3.962   0.825  0.00  0.00    +0.218 C 
ATOM     31  O   UNL     1      -1.826  -4.185   0.778  0.00  0.00    -0.275 OA
ATOM     32  H   UNL     1       0.936  -3.198  -0.183  0.00  0.00    +0.149 HD
BRANCH  29  33
ATOM     33  C   UNL     1      -0.784  -3.011  -1.413  0.00  0.00    +0.070 C 
ATOM     34  C   UNL     1      -1.421  -1.635  -1.208  0.00  0.00    +0.028 C 
BRANCH  33  35
ATOM     35  C   UNL     1       0.148  -2.966  -2.625  0.00  0.00    +0.022 C 
BRANCH  35  37
ATOM     36  C   UNL     1       1.620  -4.324  -4.119  0.00  0.00    +0.004 C 
ATOM     37  C   UNL     1       0.688  -4.369  -2.906  0.00  0.00    -0.002 C 
ENDBRANCH  35  37
ENDBRANCH  33  35
ENDBRANCH  29  33
ENDBRANCH   1  30
TORSDOF 7
