REMARK  Name = ZINC58436211
REMARK  8 active torsions:
REMARK  status: ('A' for Active; 'I' for Inactive)
REMARK    1  A    between atoms: C_1  and  C_2
REMARK    2  A    between atoms: C_10  and  C_28
REMARK    3  A    between atoms: C_11  and  C_12
REMARK    4  A    between atoms: C_12  and  C_13
REMARK    5  A    between atoms: N_15  and  C_16
REMARK    6  A    between atoms: C_21  and  N_22
REMARK    7  A    between atoms: N_25  and  C_26
REMARK    8  A    between atoms: N_25  and  C_27
REMARK                            x       y       z     vdW  Elec       q    Type
REMARK                         _______ _______ _______ _____ _____    ______ ____
ROOT
ATOM      1  C   UNL     1      -2.085  -1.149   3.387  0.00  0.00    +0.222 C 
ATOM      2  O   UNL     1      -3.119  -1.358   2.788  0.00  0.00    -0.275 OA
ATOM      3  N   UNL     1      -2.045  -0.215   4.358  0.00  0.00    -0.284 N 
ATOM      4  H   UNL     1      -1.240  -0.099   4.886  0.00  0.00    +0.155 HD
ENDROOT
BRANCH   3   5
ATOM      5  C   UNL     1      -3.166   0.587   4.605  0.00  0.00    +0.055 A 
ATOM      6  C   UNL     1      -4.150   0.723   3.637  0.00  0.00    +0.025 A 
ATOM      7  C   UNL     1      -5.256   1.516   3.882  0.00  0.00    +0.002 A 
ATOM      8  C   UNL     1      -5.385   2.174   5.091  0.00  0.00    +0.002 A 
ATOM      9  C   UNL     1      -4.409   2.044   6.061  0.00  0.00    +0.025 A 
ATOM     10  C   UNL     1      -3.299   1.246   5.826  0.00  0.00    +0.056 A 
BRANCH  10  11
ATOM     11  N   UNL     1      -2.312   1.108   6.810  0.00  0.00    -0.268 N 
ATOM     12  C   UNL     1      -2.643   1.197   8.114  0.00  0.00    +0.306 C 
ATOM     13  O   UNL     1      -3.783   1.473   8.434  0.00  0.00    -0.252 OA
ATOM     14  N   UNL     1      -1.709   0.981   9.062  0.00  0.00    -0.291 N 
ATOM     15  C   UNL     1      -2.095   0.950  10.475  0.00  0.00    +0.133 C 
ATOM     16  C   UNL     1      -0.310   0.777   8.680  0.00  0.00    +0.133 C 
ATOM     17  H   UNL     1      -1.390   0.948   6.554  0.00  0.00    +0.156 HD
ENDBRANCH  10  11
ENDBRANCH   3   5
BRANCH   1  18
ATOM     18  C   UNL     1      -0.844  -1.934   3.045  0.00  0.00    +0.133 C 
BRANCH  18  29
ATOM     19  C   UNL     1      -0.514  -1.143   0.281  0.00  0.00    +0.045 C 
ATOM     20  C   UNL     1      -0.997  -2.527   0.632  0.00  0.00    -0.036 A 
ATOM     21  C   UNL     1      -1.294  -3.467  -0.372  0.00  0.00    +0.002 A 
ATOM     22  C   UNL     1      -1.151  -3.152  -1.734  0.00  0.00    +0.010 A 
ATOM     23  C   UNL     1      -1.447  -4.089  -2.676  0.00  0.00    +0.001 A 
ATOM     24  C   UNL     1      -1.890  -5.358  -2.307  0.00  0.00    +0.002 A 
ATOM     25  C   UNL     1      -2.041  -5.697  -0.998  0.00  0.00    +0.026 A 
ATOM     26  C   UNL     1      -1.744  -4.756   0.004  0.00  0.00    +0.047 A 
ATOM     27  N   UNL     1      -1.881  -5.061   1.299  0.00  0.00    -0.358 N 
ATOM     28  C   UNL     1      -1.606  -4.188   2.237  0.00  0.00    +0.017 A 
ATOM     29  C   UNL     1      -1.155  -2.905   1.935  0.00  0.00    -0.016 A 
ATOM     30  C   UNL     1      -1.779  -4.584   3.681  0.00  0.00    +0.063 C 
ATOM     31  H   UNL     1      -2.190  -5.946   1.548  0.00  0.00    +0.166 HD
ENDBRANCH  18  29
ENDBRANCH   1  18
TORSDOF 4
