REMARK  Name = ZINC67437231
REMARK  6 active torsions:
REMARK  status: ('A' for Active; 'I' for Inactive)
REMARK    1  A    between atoms: C_1  and  C_2
REMARK    2  A    between atoms: C_2  and  C_26
REMARK    3  A    between atoms: C_9  and  O_13
REMARK    4  A    between atoms: O_13  and  S_14
REMARK    5  A    between atoms: S_14  and  C_17
REMARK    6  A    between atoms: C_20  and  C_23
REMARK                            x       y       z     vdW  Elec       q    Type
REMARK                         _______ _______ _______ _____ _____    ______ ____
ROOT
ATOM      1  O   UNL     1       2.639  -4.254   3.270  0.00  0.00    -0.342 OA
ENDROOT
BRANCH   1  10
ATOM      2  C   UNL     1      -0.019   1.526   0.010  0.00  0.00    +0.056 C 
ATOM      3  C   UNL     1       0.002  -0.004   0.002  0.00  0.00    +0.112 C 
ATOM      4  C   UNL     1      -1.438  -0.536   0.016  0.00  0.00    +0.127 C 
ATOM      5  C   UNL     1      -1.357  -2.052   0.041  0.00  0.00    +0.170 C 
ATOM      6  O   UNL     1      -2.113  -2.743  -0.610  0.00  0.00    -0.292 OA
ATOM      7  C   UNL     1      -0.314  -2.640   0.895  0.00  0.00    +0.059 A 
ATOM      8  C   UNL     1      -0.315  -4.008   1.183  0.00  0.00    +0.018 A 
ATOM      9  C   UNL     1       0.667  -4.536   1.972  0.00  0.00    +0.049 A 
ATOM     10  C   UNL     1       1.667  -3.717   2.490  0.00  0.00    +0.160 A 
ATOM     11  C   UNL     1       1.679  -2.358   2.215  0.00  0.00    +0.095 A 
ATOM     12  C   UNL     1       0.690  -1.806   1.419  0.00  0.00    +0.135 A 
ATOM     13  O   UNL     1       0.692  -0.477   1.158  0.00  0.00    -0.485 OA
ATOM     14  C   UNL     1       0.717  -0.498  -1.257  0.00  0.00    +0.056 C 
ENDBRANCH   1  10
BRANCH   1  15
ATOM     15  S   UNL     1       3.859  -4.735   2.497  0.00  0.00    +0.151 S 
ATOM     16  O   UNL     1       4.671  -5.446   3.421  0.00  0.00    -0.131 OA
ATOM     17  O   UNL     1       3.374  -5.324   1.299  0.00  0.00    -0.131 OA
BRANCH  15  18
ATOM     18  C   UNL     1       4.771  -3.304   2.022  0.00  0.00    +0.128 A 
ATOM     19  C   UNL     1       4.499  -2.683   0.817  0.00  0.00    +0.031 A 
ATOM     20  C   UNL     1       5.210  -1.562   0.439  0.00  0.00    +0.015 A 
ATOM     21  C   UNL     1       6.205  -1.056   1.276  0.00  0.00    +0.037 A 
ATOM     22  C   UNL     1       6.474  -1.687   2.491  0.00  0.00    +0.015 A 
ATOM     23  C   UNL     1       5.753  -2.804   2.860  0.00  0.00    +0.031 A 
BRANCH  21  24
ATOM     24  C   UNL     1       6.971   0.144   0.877  0.00  0.00    +0.242 C 
ATOM     25  O   UNL     1       6.734   0.692  -0.182  0.00  0.00    -0.270 OA
ATOM     26  N   UNL     1       7.931   0.631   1.688  0.00  0.00    -0.325 N 
ATOM     27  H   UNL     1       8.120   0.194   2.533  0.00  0.00    +0.145 HD
ATOM     28  H   UNL     1       8.434   1.418   1.426  0.00  0.00    +0.145 HD
ENDBRANCH  21  24
ENDBRANCH  15  18
ENDBRANCH   1  15
TORSDOF 4
