REMARK  Name = ZINC51332521
REMARK  6 active torsions:
REMARK  status: ('A' for Active; 'I' for Inactive)
REMARK    1  A    between atoms: C_1  and  C_2
REMARK    2  A    between atoms: C_6  and  S_8
REMARK    3  A    between atoms: S_8  and  C_9
REMARK    4  A    between atoms: C_9  and  C_10
REMARK    5  A    between atoms: C_14  and  C_20
REMARK    6  A    between atoms: C_15  and  C_19
REMARK                            x       y       z     vdW  Elec       q    Type
REMARK                         _______ _______ _______ _____ _____    ______ ____
ROOT
ATOM      1  C   UNL     1       0.101  -6.053   2.975  0.00  0.00    +0.143 A 
ATOM      2  N   UNL     1       1.262  -6.462   3.455  0.00  0.00    -0.216 NA
ATOM      3  C   UNL     1       1.349  -7.234   4.525  0.00  0.00    +0.128 A 
ATOM      4  C   UNL     1       0.157  -7.641   5.186  0.00  0.00    +0.050 A 
ATOM      5  C   UNL     1      -0.014  -8.475   6.363  0.00  0.00    -0.028 A 
ATOM      6  C   UNL     1      -1.252  -8.728   6.812  0.00  0.00    -0.008 A 
ATOM      7  S   UNL     1      -2.298  -7.848   5.666  0.00  0.00    -0.074 S 
ATOM      8  C   UNL     1      -1.043  -7.165   4.616  0.00  0.00    +0.114 A 
ATOM      9  N   UNL     1      -1.038  -6.393   3.547  0.00  0.00    -0.224 NA
ATOM     10  C   UNL     1      -1.662  -9.557   8.001  0.00  0.00    +0.052 C 
ATOM     11  C   UNL     1       1.186  -9.050   7.071  0.00  0.00    +0.045 C 
ATOM     12  N   UNL     1       2.585  -7.641   4.996  0.00  0.00    -0.343 N 
ATOM     13  H   UNL     1       3.350  -7.653   4.401  0.00  0.00    +0.144 HD
ATOM     14  H   UNL     1       2.685  -7.915   5.921  0.00  0.00    +0.144 HD
ENDROOT
BRANCH   1  15
ATOM     15  C   UNL     1       0.077  -5.174   1.751  0.00  0.00    +0.153 C 
BRANCH  15  16
ATOM     16  S   UNL     1       0.153  -3.433   2.256  0.00  0.00    -0.078 S 
BRANCH  16  22
ATOM     17  C   UNL     1       0.184   0.980  -0.336  0.00  0.00    +0.066 C 
ATOM     18  C   UNL     1       0.135  -0.526  -0.370  0.00  0.00    +0.043 A 
ATOM     19  C   UNL     1       0.063  -1.199  -1.580  0.00  0.00    +0.043 A 
ATOM     20  C   UNL     1       0.020  -2.584  -1.566  0.00  0.00    +0.115 A 
ATOM     21  N   UNL     1       0.048  -3.220  -0.406  0.00  0.00    -0.230 NA
ATOM     22  C   UNL     1       0.117  -2.546   0.733  0.00  0.00    +0.189 A 
ATOM     23  N   UNL     1       0.165  -1.222   0.755  0.00  0.00    -0.227 NA
ENDBRANCH  16  22
ENDBRANCH  15  16
ENDBRANCH   1  15
TORSDOF 3
