REMARK  Name = ZINC59489354
REMARK  9 active torsions:
REMARK  status: ('A' for Active; 'I' for Inactive)
REMARK    1  A    between atoms: C_1  and  C_2
REMARK    2  A    between atoms: C_5  and  N_8
REMARK    3  A    between atoms: C_12  and  S_16
REMARK    4  A    between atoms: S_16  and  C_17
REMARK    5  A    between atoms: N_19  and  N_20
REMARK    6  A    between atoms: C_21  and  C_22
REMARK    7  A    between atoms: C_21  and  C_23
REMARK    8  A    between atoms: C_26  and  O_30
REMARK    9  A    between atoms: O_30  and  C_31
REMARK                            x       y       z     vdW  Elec       q    Type
REMARK                         _______ _______ _______ _____ _____    ______ ____
ROOT
ATOM      1  C   UNL     1       1.612  -7.213   2.995  0.00  0.00    +0.146 C 
ATOM      2  N   UNL     1       0.567  -6.726   3.606  0.00  0.00    -0.380 N 
ATOM      3  N   UNL     1       2.642  -7.763   3.726  0.00  0.00    -0.217 N 
ATOM      4  H   UNL     1       0.516  -6.751   4.574  0.00  0.00    +0.158 HD
ATOM      5  H   UNL     1       3.418  -8.126   3.272  0.00  0.00    +0.176 HD
ATOM      6  H   UNL     1      -0.158  -6.338   3.092  0.00  0.00    +0.158 HD
ENDROOT
BRANCH   3   7
ATOM      7  N   UNL     1       2.567  -7.800   5.124  0.00  0.00    -0.185 NA
ATOM      8  C   UNL     1       3.538  -8.318   5.812  0.00  0.00    +0.063 C 
ATOM      9  C   UNL     1       4.745  -8.881   5.107  0.00  0.00    +0.068 C 
BRANCH   8  10
ATOM     10  C   UNL     1       3.459  -8.356   7.284  0.00  0.00    -0.001 A 
ATOM     11  C   UNL     1       4.506  -8.909   8.027  0.00  0.00    +0.013 A 
ATOM     12  C   UNL     1       4.429  -8.942   9.403  0.00  0.00    +0.047 A 
ATOM     13  C   UNL     1       3.314  -8.427  10.051  0.00  0.00    +0.134 A 
ATOM     14  C   UNL     1       2.271  -7.877   9.317  0.00  0.00    +0.060 A 
ATOM     15  C   UNL     1       2.341  -7.835   7.940  0.00  0.00    +0.028 A 
ATOM     16 BR   UNL     1       0.754  -7.180  10.206  0.00  0.00    -0.046 Br
BRANCH  13  17
ATOM     17  O   UNL     1       3.243  -8.462  11.408  0.00  0.00    -0.494 OA
ATOM     18  C   UNL     1       4.349  -9.042  12.101  0.00  0.00    +0.277 C 
ENDBRANCH  13  17
ENDBRANCH   8  10
ENDBRANCH   3   7
BRANCH   1  19
ATOM     19  S   UNL     1       1.706  -7.168   1.237  0.00  0.00    -0.078 S 
BRANCH  19  24
ATOM     20  N   UNL     1       0.059  -4.172  -0.021  0.00  0.00    -0.209 N 
ATOM     21  C   UNL     1      -0.030  -4.892  -1.146  0.00  0.00    +0.228 C 
ATOM     22  O   UNL     1      -0.134  -4.436  -2.265  0.00  0.00    -0.275 OA
ATOM     23  C   UNL     1       0.020  -6.364  -0.801  0.00  0.00    +0.120 C 
ATOM     24  C   UNL     1       0.155  -6.371   0.735  0.00  0.00    +0.149 C 
ATOM     25  C   UNL     1       0.172  -4.902   1.096  0.00  0.00    +0.240 C 
ATOM     26  O   UNL     1       0.271  -4.455   2.219  0.00  0.00    -0.274 OA
BRANCH  20  31
ATOM     27  C   UNL     1      -0.016   1.503   0.009  0.00  0.00    +0.044 C 
ATOM     28  C   UNL     1       0.004  -0.004   0.001  0.00  0.00    -0.050 A 
ATOM     29  C   UNL     1       1.156  -0.681   0.357  0.00  0.00    +0.005 A 
ATOM     30  C   UNL     1       1.177  -2.062   0.351  0.00  0.00    +0.024 A 
ATOM     31  C   UNL     1       0.040  -2.771  -0.013  0.00  0.00    +0.044 A 
ATOM     32  C   UNL     1      -1.115  -2.088  -0.370  0.00  0.00    +0.024 A 
ATOM     33  C   UNL     1      -1.132  -0.707  -0.357  0.00  0.00    +0.005 A 
ENDBRANCH  20  31
ENDBRANCH  19  24
ENDBRANCH   1  19
TORSDOF 6
