REMARK  Name = ZINC38490649
REMARK  9 active torsions:
REMARK  status: ('A' for Active; 'I' for Inactive)
REMARK    1  A    between atoms: C_1  and  C_2
REMARK    2  A    between atoms: C_5  and  N_12
REMARK    3  A    between atoms: C_8  and  C_10
REMARK    4  A    between atoms: C_8  and  C_11
REMARK    5  A    between atoms: C_13  and  C_15
REMARK    6  A    between atoms: C_16  and  C_28
REMARK    7  A    between atoms: N_17  and  C_20
REMARK    8  A    between atoms: C_28  and  S_29
REMARK    9  A    between atoms: S_29  and  C_30
REMARK                            x       y       z     vdW  Elec       q    Type
REMARK                         _______ _______ _______ _____ _____    ______ ____
ROOT
ATOM      1  C   UNL     1      -4.849  -3.213  -1.132  0.00  0.00    +0.171 A 
ATOM      2  C   UNL     1      -5.641  -3.398  -2.230  0.00  0.00    +0.087 A 
ATOM      3  N   UNL     1      -6.822  -3.877  -1.784  0.00  0.00    -0.215 N 
ATOM      4  N   UNL     1      -6.718  -3.974  -0.389  0.00  0.00    -0.060 NA
ATOM      5  N   UNL     1      -5.543  -3.580  -0.041  0.00  0.00    -0.124 NA
ENDROOT
BRANCH   3   6
ATOM      6  C   UNL     1      -7.938  -4.211  -2.565  0.00  0.00    +0.070 A 
ATOM      7  C   UNL     1      -8.234  -3.477  -3.705  0.00  0.00    +0.048 A 
ATOM      8  C   UNL     1      -9.334  -3.809  -4.473  0.00  0.00    +0.044 A 
ATOM      9  C   UNL     1     -10.140  -4.872  -4.107  0.00  0.00    +0.040 A 
ATOM     10  C   UNL     1      -9.847  -5.606  -2.970  0.00  0.00    +0.044 A 
ATOM     11  C   UNL     1      -8.744  -5.281  -2.202  0.00  0.00    +0.048 A 
ATOM     12 CL   UNL     1     -10.860  -6.939  -2.514  0.00  0.00    -0.083 Cl
ATOM     13 CL   UNL     1      -9.705  -2.890  -5.899  0.00  0.00    -0.083 Cl
ENDBRANCH   3   6
BRANCH   1  15
ATOM     14  N   UNL     1      -2.787  -2.571   0.015  0.00  0.00    -0.307 N 
ATOM     15  C   UNL     1      -3.466  -2.702  -1.142  0.00  0.00    +0.266 C 
ATOM     16  O   UNL     1      -2.937  -2.400  -2.195  0.00  0.00    -0.268 OA
ATOM     17  H   UNL     1      -3.209  -2.812   0.855  0.00  0.00    +0.149 HD
BRANCH  14  21
ATOM     18  C   UNL     1      -0.019   1.526   0.010  0.00  0.00    +0.007 C 
ATOM     19  C   UNL     1       0.002  -0.004   0.002  0.00  0.00    -0.012 C 
ATOM     20  C   UNL     1      -1.433  -0.534   0.013  0.00  0.00    +0.025 C 
ATOM     21  C   UNL     1      -1.413  -2.063   0.004  0.00  0.00    +0.074 C 
ATOM     22  C   UNL     1      -0.673  -2.570   1.244  0.00  0.00    +0.028 C 
ATOM     23  C   UNL     1       0.763  -2.041   1.233  0.00  0.00    -0.033 C 
ATOM     24  C   UNL     1       0.742  -0.511   1.242  0.00  0.00    +0.009 C 
ATOM     25  C   UNL     1       1.479  -2.534  -0.026  0.00  0.00    +0.011 C 
ATOM     26  C   UNL     1       1.503  -2.548   2.473  0.00  0.00    +0.011 C 
ENDBRANCH  14  21
ENDBRANCH   1  15
BRANCH   2  27
ATOM     27  C   UNL     1      -5.267  -3.120  -3.663  0.00  0.00    +0.135 C 
BRANCH  27  28
ATOM     28  S   UNL     1      -5.706  -1.411  -4.083  0.00  0.00    -0.080 S 
BRANCH  28  29
ATOM     29  C   UNL     1      -5.214  -1.245  -5.766  0.00  0.00    +0.189 A 
ATOM     30  N   UNL     1      -4.669  -2.282  -6.386  0.00  0.00    -0.230 NA
ATOM     31  C   UNL     1      -4.289  -2.191  -7.650  0.00  0.00    +0.115 A 
ATOM     32  C   UNL     1      -4.466  -0.994  -8.325  0.00  0.00    +0.039 A 
ATOM     33  C   UNL     1      -5.039   0.071  -7.647  0.00  0.00    +0.115 A 
ATOM     34  N   UNL     1      -5.402  -0.088  -6.385  0.00  0.00    -0.230 NA
ENDBRANCH  28  29
ENDBRANCH  27  28
ENDBRANCH   2  27
TORSDOF 6
