REMARK  Name = ZINC01434766
REMARK  8 active torsions:
REMARK  status: ('A' for Active; 'I' for Inactive)
REMARK    1  A    between atoms: C_1  and  C_2
REMARK    2  A    between atoms: C_3  and  C_35
REMARK    3  A    between atoms: C_4  and  C_23
REMARK    4  A    between atoms: C_10  and  C_15
REMARK    5  A    between atoms: C_19  and  O_21
REMARK    6  A    between atoms: O_21  and  C_22
REMARK    7  A    between atoms: C_35  and  O_37
REMARK    8  A    between atoms: O_37  and  C_38
REMARK                            x       y       z     vdW  Elec       q    Type
REMARK                         _______ _______ _______ _____ _____    ______ ____
ROOT
ATOM      1  C   UNL     1      -2.238   7.358  -2.431  0.00  0.00    +0.061 C 
ATOM      2  C   UNL     1      -2.189   6.546  -1.163  0.00  0.00    +0.016 C 
ATOM      3  C   UNL     1      -2.499   5.238  -1.194  0.00  0.00    +0.065 C 
ATOM      4  C   UNL     1      -2.452   4.397   0.048  0.00  0.00    +0.099 C 
ATOM      5  C   UNL     1      -2.457   5.258   1.286  0.00  0.00    +0.024 C 
ATOM      6  C   UNL     1      -2.150   6.570   1.214  0.00  0.00    +0.016 C 
ATOM      7  N   UNL     1      -1.829   7.144   0.013  0.00  0.00    -0.321 N 
ATOM      8  C   UNL     1      -2.155   7.439   2.447  0.00  0.00    +0.059 C 
ATOM      9  C   UNL     1      -1.785   6.596   3.670  0.00  0.00    +0.032 C 
ATOM     10  C   UNL     1      -2.792   5.448   3.792  0.00  0.00    +0.088 C 
ATOM     11  C   UNL     1      -2.788   4.656   2.513  0.00  0.00    +0.162 C 
ATOM     12  O   UNL     1      -3.075   3.476   2.540  0.00  0.00    -0.292 OA
ATOM     13  H   UNL     1      -1.276   8.095  -0.001  0.00  0.00    +0.152 HD
ENDROOT
BRANCH   4  14
ATOM     14  C   UNL     1      -1.199   3.560   0.032  0.00  0.00    +0.047 A 
ATOM     15  C   UNL     1       0.010   4.152   0.023  0.00  0.00    +0.204 A 
ATOM     16  O   UNL     1       1.155   3.462   0.009  0.00  0.00    -0.462 OA
ATOM     17  C   UNL     1       1.187   2.113   0.002  0.00  0.00    +0.138 A 
ATOM     18  C   UNL     1       2.394   1.426  -0.013  0.00  0.00    +0.048 A 
ATOM     19  C   UNL     1       2.401   0.048  -0.021  0.00  0.00    +0.023 A 
ATOM     20  C   UNL     1       1.211  -0.667  -0.013  0.00  0.00    +0.042 A 
ATOM     21  C   UNL     1       0.002  -0.004   0.002  0.00  0.00    +0.035 A 
ATOM     22  C   UNL     1      -0.017   1.390   0.010  0.00  0.00    +0.066 A 
ATOM     23  C   UNL     1      -1.286   2.143   0.020  0.00  0.00    +0.197 A 
ATOM     24  O   UNL     1      -2.363   1.573   0.022  0.00  0.00    -0.287 OA
ATOM     25 CL   UNL     1       1.245  -2.403  -0.023  0.00  0.00    -0.084 Cl
ENDBRANCH   4  14
BRANCH   9  26
ATOM     26  C   UNL     1      -1.836   7.453   4.909  0.00  0.00    -0.040 A 
ATOM     27  C   UNL     1      -3.019   8.069   5.275  0.00  0.00    +0.004 A 
ATOM     28  C   UNL     1      -3.069   8.855   6.412  0.00  0.00    +0.004 A 
ATOM     29  C   UNL     1      -1.937   9.027   7.184  0.00  0.00    +0.045 A 
ATOM     30  C   UNL     1      -0.749   8.411   6.819  0.00  0.00    +0.120 A 
ATOM     31  C   UNL     1      -0.703   7.618   5.681  0.00  0.00    +0.049 A 
BRANCH  30  32
ATOM     32  O   UNL     1       0.366   8.578   7.577  0.00  0.00    -0.495 OA
ATOM     33  C   UNL     1       0.244   9.403   8.738  0.00  0.00    +0.277 C 
ENDBRANCH  30  32
ENDBRANCH   9  26
BRANCH   3  34
ATOM     34  C   UNL     1      -2.876   4.644  -2.421  0.00  0.00    +0.337 C 
ATOM     35  O   UNL     1      -2.917   5.315  -3.435  0.00  0.00    -0.245 OA
BRANCH  34  36
ATOM     36  O   UNL     1      -3.190   3.332  -2.467  0.00  0.00    -0.465 OA
ATOM     37  C   UNL     1      -3.562   2.799  -3.739  0.00  0.00    +0.280 C 
ENDBRANCH  34  36
ENDBRANCH   3  34
TORSDOF 5
