REMARK  Name = ZINC37995770
REMARK  5 active torsions:
REMARK  status: ('A' for Active; 'I' for Inactive)
REMARK    1  A    between atoms: C_6  and  C_7
REMARK    2  A    between atoms: C_9  and  C_12
REMARK    3  A    between atoms: C_12  and  S_13
REMARK    4  A    between atoms: S_13  and  C_14
REMARK    5  A    between atoms: C_17  and  O_20
REMARK                            x       y       z     vdW  Elec       q    Type
REMARK                         _______ _______ _______ _____ _____    ______ ____
ROOT
ATOM      1  C   UNL     1      -1.272  -0.766   0.011  0.00  0.00    +0.202 A 
ATOM      2  N   UNL     1      -1.384  -2.106   0.010  0.00  0.00    -0.191 NA
ATOM      3  C   UNL     1      -2.641  -2.448   0.019  0.00  0.00    +0.238 A 
ATOM      4  O   UNL     1      -3.384  -1.334   0.026  0.00  0.00    -0.337 OA
ATOM      5  N   UNL     1      -2.474  -0.245   0.026  0.00  0.00    -0.056 NA
ENDROOT
BRANCH   1  11
ATOM      6  C   UNL     1      -0.017   1.389   0.010  0.00  0.00    +0.013 A 
ATOM      7  C   UNL     1       1.170   2.093   0.002  0.00  0.00    +0.021 A 
ATOM      8  C   UNL     1       2.378   1.417  -0.013  0.00  0.00    +0.041 A 
ATOM      9  C   UNL     1       2.402   0.033  -0.022  0.00  0.00    +0.021 A 
ATOM     10  C   UNL     1       1.221  -0.680  -0.014  0.00  0.00    +0.013 A 
ATOM     11  C   UNL     1       0.002  -0.004   0.002  0.00  0.00    +0.023 A 
ATOM     12 CL   UNL     1       3.868   2.308  -0.024  0.00  0.00    -0.084 Cl
ENDBRANCH   1  11
BRANCH   3  13
ATOM     13  C   UNL     1      -3.169  -3.860   0.021  0.00  0.00    +0.173 C 
BRANCH  13  14
ATOM     14  S   UNL     1      -3.369  -4.428   1.732  0.00  0.00    -0.116 S 
BRANCH  14  15
ATOM     15  C   UNL     1      -3.985  -6.071   1.566  0.00  0.00    +0.009 A 
ATOM     16  C   UNL     1      -4.191  -6.612   0.303  0.00  0.00    +0.018 A 
ATOM     17  C   UNL     1      -4.675  -7.899   0.174  0.00  0.00    +0.046 A 
ATOM     18  C   UNL     1      -4.954  -8.652   1.305  0.00  0.00    +0.117 A 
ATOM     19  C   UNL     1      -4.748  -8.113   2.567  0.00  0.00    +0.046 A 
ATOM     20  C   UNL     1      -4.259  -6.828   2.698  0.00  0.00    +0.018 A 
BRANCH  18  21
ATOM     21  O   UNL     1      -5.430  -9.919   1.177  0.00  0.00    -0.507 OA
ATOM     22  H   UNL     1      -4.740 -10.596   1.137  0.00  0.00    +0.292 HD
ENDBRANCH  18  21
ENDBRANCH  14  15
ENDBRANCH  13  14
ENDBRANCH   3  13
TORSDOF 5
