REMARK  Name = ZINC41585860
REMARK  6 active torsions:
REMARK  status: ('A' for Active; 'I' for Inactive)
REMARK    1  A    between atoms: C_1  and  C_2
REMARK    2  A    between atoms: C_4  and  O_38
REMARK    3  A    between atoms: C_5  and  C_25
REMARK    4  A    between atoms: C_11  and  C_12
REMARK    5  A    between atoms: C_15  and  C_18
REMARK    6  A    between atoms: C_25  and  N_26
REMARK                            x       y       z     vdW  Elec       q    Type
REMARK                         _______ _______ _______ _____ _____    ______ ____
ROOT
ATOM      1  C   UNL     1       1.360   1.233  -0.087  0.00  0.00    +0.045 C 
ATOM      2  C   UNL     1       0.939  -0.214  -0.096  0.00  0.00    -0.033 A 
ATOM      3  C   UNL     1       0.807  -0.881  -1.281  0.00  0.00    +0.050 A 
ATOM      4  C   UNL     1       0.418  -2.217  -1.292  0.00  0.00    +0.125 A 
ATOM      5  C   UNL     1       0.162  -2.887  -0.105  0.00  0.00    +0.051 A 
ATOM      6  C   UNL     1       0.292  -2.224   1.108  0.00  0.00    +0.148 A 
ATOM      7  C   UNL     1       0.690  -0.876   1.106  0.00  0.00    +0.071 A 
ATOM      8  C   UNL     1       0.745  -0.458   2.519  0.00  0.00    +0.232 C 
ATOM      9  O   UNL     1       1.042   0.638   2.961  0.00  0.00    -0.283 OA
ATOM     10  C   UNL     1       0.359  -1.659   3.275  0.00  0.00    +0.176 C 
ATOM     11  C   UNL     1       0.265  -1.762   4.625  0.00  0.00    +0.058 C 
ATOM     12  O   UNL     1       0.104  -2.642   2.379  0.00  0.00    -0.451 OA
ENDROOT
BRANCH  11  13
ATOM     13  C   UNL     1       0.384  -0.561   5.462  0.00  0.00    -0.021 A 
ATOM     14  C   UNL     1      -0.255   0.625   5.081  0.00  0.00    +0.008 A 
ATOM     15  C   UNL     1      -0.144   1.741   5.862  0.00  0.00    +0.009 A 
ATOM     16  C   UNL     1       0.607   1.698   7.039  0.00  0.00    -0.018 A 
ATOM     17  C   UNL     1       1.244   0.517   7.420  0.00  0.00    +0.009 A 
ATOM     18  C   UNL     1       1.132  -0.603   6.646  0.00  0.00    +0.008 A 
BRANCH  16  19
ATOM     19  C   UNL     1       0.726   2.910   7.884  0.00  0.00    -0.018 A 
ATOM     20  C   UNL     1       0.086   4.091   7.509  0.00  0.00    +0.008 A 
ATOM     21  C   UNL     1       0.201   5.215   8.300  0.00  0.00    +0.001 A 
ATOM     22  C   UNL     1       0.949   5.173   9.463  0.00  0.00    +0.000 A 
ATOM     23  C   UNL     1       1.587   4.005   9.840  0.00  0.00    +0.001 A 
ATOM     24  C   UNL     1       1.475   2.872   9.060  0.00  0.00    +0.008 A 
ENDBRANCH  16  19
ENDBRANCH  11  13
BRANCH   4  25
ATOM     25  O   UNL     1       0.289  -2.871  -2.474  0.00  0.00    -0.506 OA
ATOM     26  H   UNL     1       1.099  -3.307  -2.773  0.00  0.00    +0.292 HD
ENDBRANCH   4  25
BRANCH   5  27
ATOM     27  C   UNL     1      -0.258  -4.334  -0.132  0.00  0.00    +0.127 C 
BRANCH  27  28
ATOM     28  N   UNL     1       0.934  -5.191  -0.073  0.00  0.00    -0.295 NA
ATOM     29  C   UNL     1       1.624  -5.043   1.216  0.00  0.00    +0.103 C 
ATOM     30  C   UNL     1       2.951  -5.809   1.171  0.00  0.00    +0.122 C 
ATOM     31  N   UNL     1       2.676  -7.196   0.767  0.00  0.00    -0.314 N 
ATOM     32  C   UNL     1       1.871  -7.423  -0.442  0.00  0.00    +0.122 C 
ATOM     33  C   UNL     1       0.587  -6.594  -0.334  0.00  0.00    +0.103 C 
ATOM     34  C   UNL     1       3.165  -8.265   1.510  0.00  0.00    +0.099 A 
ATOM     35  C   UNL     1       3.005  -9.564   1.036  0.00  0.00    +0.042 A 
ATOM     36  C   UNL     1       3.496 -10.618   1.785  0.00  0.00    +0.005 A 
ATOM     37  C   UNL     1       4.134 -10.337   2.986  0.00  0.00    +0.018 A 
ATOM     38  C   UNL     1       4.258  -9.025   3.396  0.00  0.00    +0.084 A 
ATOM     39  N   UNL     1       3.784  -8.038   2.658  0.00  0.00    -0.350 N 
ATOM     40  H   UNL     1       3.888  -7.124   2.967  0.00  0.00    +0.166 HD
ENDBRANCH  27  28
ENDBRANCH   5  27
TORSDOF 5
