REMARK  Name = ZINC09353994
REMARK  8 active torsions:
REMARK  status: ('A' for Active; 'I' for Inactive)
REMARK    1  A    between atoms: C_1  and  C_2
REMARK    2  A    between atoms: C_5  and  N_9
REMARK    3  A    between atoms: C_10  and  C_12
REMARK    4  A    between atoms: C_12  and  S_13
REMARK    5  A    between atoms: S_13  and  C_14
REMARK    6  A    between atoms: C_15  and  C_31
REMARK    7  A    between atoms: C_16  and  C_22
REMARK    8  A    between atoms: C_25  and  N_28
REMARK                            x       y       z     vdW  Elec       q    Type
REMARK                         _______ _______ _______ _____ _____    ______ ____
ROOT
ATOM      1  C   UNL     1      -4.616   6.154  -1.158  0.00  0.00    +0.082 C 
ATOM      2  C   UNL     1      -5.143   4.899  -1.170  0.00  0.00    +0.065 C 
ATOM      3  C   UNL     1      -5.054   4.030   0.058  0.00  0.00    +0.070 C 
ATOM      4  C   UNL     1      -5.149   4.905   1.309  0.00  0.00    +0.109 C 
ATOM      5  C   UNL     1      -4.216   6.080   1.175  0.00  0.00    +0.218 C 
ATOM      6  O   UNL     1      -3.658   6.521   2.157  0.00  0.00    -0.275 OA
ATOM      7  N   UNL     1      -3.997   6.644  -0.027  0.00  0.00    -0.279 N 
ATOM      8  H   UNL     1      -3.316   7.504  -0.102  0.00  0.00    +0.155 HD
ENDROOT
BRANCH   3   9
ATOM      9  C   UNL     1      -3.739   3.295   0.058  0.00  0.00    -0.039 A 
ATOM     10  C   UNL     1      -3.720   1.913   0.054  0.00  0.00    +0.006 A 
ATOM     11  C   UNL     1      -2.513   1.238   0.054  0.00  0.00    +0.033 A 
ATOM     12  C   UNL     1      -1.325   1.945   0.059  0.00  0.00    +0.126 A 
ATOM     13  C   UNL     1      -1.344   3.327   0.068  0.00  0.00    +0.033 A 
ATOM     14  C   UNL     1      -2.551   4.002   0.062  0.00  0.00    +0.006 A 
BRANCH  12  15
ATOM     15  N   UNL     1      -0.034   1.223   0.060  0.00  0.00    +0.056 N 
ATOM     16  O   UNL     1      -0.017   0.005   0.057  0.00  0.00    -0.126 OA
ATOM     17  O   UNL     1       1.013   1.846   0.058  0.00  0.00    -0.126 OA
ENDBRANCH  12  15
ENDBRANCH   3   9
BRANCH   2  18
ATOM     18  C   UNL     1      -5.783   4.404  -2.351  0.00  0.00    +0.098 C 
ATOM     19  N   UNL     1      -6.291   4.011  -3.288  0.00  0.00    -0.191 NA
ENDBRANCH   2  18
BRANCH   1  20
ATOM     20  S   UNL     1      -4.726   7.162  -2.600  0.00  0.00    -0.100 S 
BRANCH  20  21
ATOM     21  C   UNL     1      -3.887   8.652  -2.006  0.00  0.00    +0.171 C 
BRANCH  21  23
ATOM     22  N   UNL     1      -3.283  10.883  -2.888  0.00  0.00    -0.285 N 
ATOM     23  C   UNL     1      -3.861   9.684  -3.104  0.00  0.00    +0.227 C 
ATOM     24  O   UNL     1      -4.359   9.437  -4.181  0.00  0.00    -0.275 OA
ATOM     25  H   UNL     1      -2.898  11.136  -1.889  0.00  0.00    +0.155 HD
BRANCH  22  30
ATOM     26  C   UNL     1      -2.830  14.621  -7.132  0.00  0.00    +0.045 C 
ATOM     27  C   UNL     1      -2.950  13.629  -6.005  0.00  0.00    -0.032 A 
ATOM     28  C   UNL     1      -1.952  13.542  -5.052  0.00  0.00    +0.006 A 
ATOM     29  C   UNL     1      -2.062  12.636  -4.015  0.00  0.00    +0.023 A 
ATOM     30  C   UNL     1      -3.171  11.804  -3.935  0.00  0.00    +0.035 A 
ATOM     31  C   UNL     1      -4.173  11.893  -4.893  0.00  0.00    +0.043 A 
ATOM     32  C   UNL     1      -4.060  12.805  -5.926  0.00  0.00    +0.046 A 
ATOM     33 CL   UNL     1      -5.311  12.918  -7.124  0.00  0.00    -0.083 Cl
ENDBRANCH  22  30
ENDBRANCH  21  23
ENDBRANCH  20  21
ENDBRANCH   1  20
TORSDOF 7
