REMARK  Name = ZINC36504780
REMARK  13 active torsions:
REMARK  status: ('A' for Active; 'I' for Inactive)
REMARK    1  A    between atoms: C_1  and  C_2
REMARK    2  A    between atoms: C_2  and  C_3
REMARK    3  A    between atoms: C_2  and  C_4
REMARK    4  A    between atoms: C_2  and  N_5
REMARK    5  A    between atoms: C_6  and  C_8
REMARK    6  A    between atoms: C_8  and  C_10
REMARK    7  A    between atoms: C_8  and  N_23
REMARK    8  A    between atoms: C_10  and  C_11
REMARK    9  A    between atoms: C_10  and  C_17
REMARK   10  A    between atoms: N_23  and  C_24
REMARK   11  A    between atoms: C_24  and  C_25
REMARK   12  A    between atoms: C_30  and  C_32
REMARK   13  A    between atoms: C_36  and  N_38
REMARK                            x       y       z     vdW  Elec       q    Type
REMARK                         _______ _______ _______ _____ _____    ______ ____
ROOT
ATOM      1  C   UNL     1       2.432  -0.288  -2.501  0.00  0.00    +0.174 C 
ENDROOT
BRANCH   1   3
ATOM      2  N   UNL     1       1.750   0.879  -0.430  0.00  0.00    -0.309 N 
ATOM      3  C   UNL     1       2.695   0.187  -1.095  0.00  0.00    +0.235 C 
ATOM      4  O   UNL     1       3.759  -0.052  -0.563  0.00  0.00    -0.274 OA
ATOM      5  H   UNL     1       0.899   1.071  -0.855  0.00  0.00    +0.149 HD
BRANCH   2   7
ATOM      6  C   UNL     1       3.218   2.275   0.941  0.00  0.00    +0.031 C 
ATOM      7  C   UNL     1       2.006   1.341   0.937  0.00  0.00    +0.026 C 
ATOM      8  C   UNL     1       2.286   0.137   1.838  0.00  0.00    +0.031 C 
ATOM      9  C   UNL     1       0.780   2.094   1.459  0.00  0.00    +0.031 C 
ENDBRANCH   2   7
ENDBRANCH   1   3
BRANCH   1  10
ATOM     10  N   UNL     1       3.605  -1.009  -3.001  0.00  0.00    -0.278 N 
ATOM     11  C   UNL     1       4.441  -0.413  -3.874  0.00  0.00    +0.248 C 
ATOM     12  O   UNL     1       4.280   0.755  -4.169  0.00  0.00    -0.270 OA
BRANCH  11  13
ATOM     13  C   UNL     1       5.555  -1.179  -4.472  0.00  0.00    +0.039 A 
ATOM     14  C   UNL     1       6.483  -1.823  -3.652  0.00  0.00    +0.013 A 
ATOM     15  C   UNL     1       7.519  -2.537  -4.216  0.00  0.00    +0.003 A 
ATOM     16  C   UNL     1       7.641  -2.616  -5.593  0.00  0.00    +0.033 A 
ATOM     17  C   UNL     1       6.725  -1.979  -6.411  0.00  0.00    +0.127 A 
ATOM     18  C   UNL     1       5.680  -1.267  -5.859  0.00  0.00    +0.045 A 
BRANCH  17  19
ATOM     19  N   UNL     1       6.862  -2.068  -7.882  0.00  0.00    +0.056 N 
ATOM     20  O   UNL     1       7.774  -2.696  -8.367  0.00  0.00    -0.126 OA
ATOM     21  O   UNL     1       6.062  -1.512  -8.599  0.00  0.00    -0.126 OA
ENDBRANCH  17  19
ENDBRANCH  11  13
BRANCH  10  22
ATOM     22  C   UNL     1       3.870  -2.378  -2.552  0.00  0.00    +0.183 C 
BRANCH  22  23
ATOM     23  C   UNL     1       4.351  -2.354  -1.123  0.00  0.00    +0.122 A 
ATOM     24  C   UNL     1       3.583  -2.526  -0.032  0.00  0.00    +0.046 A 
ATOM     25  C   UNL     1       4.438  -2.427   1.089  0.00  0.00    +0.041 A 
ATOM     26  C   UNL     1       5.677  -2.201   0.617  0.00  0.00    +0.195 A 
ATOM     27  O   UNL     1       5.619  -2.164  -0.725  0.00  0.00    -0.466 OA
ENDBRANCH  22  23
ENDBRANCH  10  22
ENDBRANCH   1  10
BRANCH   1  28
ATOM     28  C   UNL     1       1.220  -1.222  -2.505  0.00  0.00    +0.078 C 
BRANCH  28  29
ATOM     29  C   UNL     1      -0.018  -0.439  -2.150  0.00  0.00    -0.038 A 
ATOM     30  C   UNL     1      -0.448   0.586  -2.972  0.00  0.00    +0.004 A 
ATOM     31  C   UNL     1      -1.583   1.304  -2.646  0.00  0.00    +0.000 A 
ATOM     32  C   UNL     1      -2.289   0.996  -1.498  0.00  0.00    +0.000 A 
ATOM     33  C   UNL     1      -1.860  -0.029  -0.676  0.00  0.00    +0.000 A 
ATOM     34  C   UNL     1      -0.727  -0.750  -1.004  0.00  0.00    +0.004 A 
ENDBRANCH  28  29
BRANCH  28  35
ATOM     35  C   UNL     1       1.056  -1.826  -3.876  0.00  0.00    -0.038 A 
ATOM     36  C   UNL     1       0.746  -3.167  -4.007  0.00  0.00    +0.004 A 
ATOM     37  C   UNL     1       0.595  -3.721  -5.265  0.00  0.00    +0.000 A 
ATOM     38  C   UNL     1       0.754  -2.935  -6.390  0.00  0.00    +0.000 A 
ATOM     39  C   UNL     1       1.064  -1.594  -6.259  0.00  0.00    +0.000 A 
ATOM     40  C   UNL     1       1.210  -1.038  -5.001  0.00  0.00    +0.004 A 
ENDBRANCH  28  35
ENDBRANCH   1  28
TORSDOF 10
