REMARK  Name = ZINC06631342
REMARK  13 active torsions:
REMARK  status: ('A' for Active; 'I' for Inactive)
REMARK    1  A    between atoms: C_1  and  C_2
REMARK    2  A    between atoms: C_2  and  O_3
REMARK    3  A    between atoms: O_3  and  C_4
REMARK    4  A    between atoms: C_8  and  C_11
REMARK    5  A    between atoms: C_9  and  O_10
REMARK    6  A    between atoms: C_11  and  C_12
REMARK    7  A    between atoms: C_11  and  C_26
REMARK    8  A    between atoms: C_13  and  C_25
REMARK    9  A    between atoms: N_14  and  C_24
REMARK   10  A    between atoms: N_15  and  C_18
REMARK   11  A    between atoms: C_27  and  C_39
REMARK   12  A    between atoms: N_28  and  C_38
REMARK   13  A    between atoms: N_29  and  C_32
REMARK                            x       y       z     vdW  Elec       q    Type
REMARK                         _______ _______ _______ _____ _____    ______ ____
ROOT
ATOM      1  C   UNL     1       1.602   1.480  -1.653  0.00  0.00    +0.097 C 
ENDROOT
BRANCH   1   2
ATOM      2  C   UNL     1       1.075   2.862  -1.940  0.00  0.00    +0.051 A 
ATOM      3  C   UNL     1       0.124   3.509  -1.235  0.00  0.00    +0.042 A 
ATOM      4  N   UNL     1      -0.075   4.735  -1.802  0.00  0.00    -0.284 N 
ATOM      5  N   UNL     1       0.778   4.849  -2.908  0.00  0.00    -0.217 N 
ATOM      6  C   UNL     1       1.486   3.705  -2.998  0.00  0.00    +0.276 A 
ATOM      7  O   UNL     1       2.328   3.444  -3.839  0.00  0.00    -0.266 OA
ATOM      8  C   UNL     1      -1.022   5.753  -1.339  0.00  0.00    +0.171 C 
ATOM      9  C   UNL     1      -0.593   2.971  -0.023  0.00  0.00    +0.065 C 
BRANCH   5  10
ATOM     10  C   UNL     1       0.877   5.950  -3.764  0.00  0.00    +0.067 A 
ATOM     11  C   UNL     1      -0.268   6.504  -4.322  0.00  0.00    +0.028 A 
ATOM     12  C   UNL     1      -0.167   7.595  -5.162  0.00  0.00    +0.002 A 
ATOM     13  C   UNL     1       1.074   8.130  -5.457  0.00  0.00    +0.000 A 
ATOM     14  C   UNL     1       2.217   7.578  -4.908  0.00  0.00    +0.002 A 
ATOM     15  C   UNL     1       2.122   6.490  -4.062  0.00  0.00    +0.028 A 
ENDBRANCH   5  10
ENDBRANCH   1   2
BRANCH   1  16
ATOM     16  C   UNL     1       3.075   1.429  -1.966  0.00  0.00    +0.051 A 
ATOM     17  C   UNL     1       3.687   0.517  -2.748  0.00  0.00    +0.042 A 
ATOM     18  N   UNL     1       5.021   0.808  -2.789  0.00  0.00    -0.284 N 
ATOM     19  N   UNL     1       5.246   1.940  -1.994  0.00  0.00    -0.217 N 
ATOM     20  C   UNL     1       4.057   2.326  -1.486  0.00  0.00    +0.276 A 
ATOM     21  O   UNL     1       3.865   3.276  -0.749  0.00  0.00    -0.266 OA
ATOM     22  C   UNL     1       6.041   0.064  -3.531  0.00  0.00    +0.171 C 
ATOM     23  C   UNL     1       3.014  -0.629  -3.459  0.00  0.00    +0.065 C 
BRANCH  19  24
ATOM     24  C   UNL     1       6.480   2.558  -1.768  0.00  0.00    +0.067 A 
ATOM     25  C   UNL     1       6.861   2.899  -0.476  0.00  0.00    +0.028 A 
ATOM     26  C   UNL     1       8.083   3.504  -0.256  0.00  0.00    +0.002 A 
ATOM     27  C   UNL     1       8.921   3.781  -1.320  0.00  0.00    +0.000 A 
ATOM     28  C   UNL     1       8.542   3.448  -2.607  0.00  0.00    +0.002 A 
ATOM     29  C   UNL     1       7.324   2.838  -2.834  0.00  0.00    +0.028 A 
ENDBRANCH  19  24
ENDBRANCH   1  16
BRANCH   1  34
ATOM     30  C   UNL     1       0.497  -0.295   1.503  0.00  0.00    +0.162 A 
ATOM     31  C   UNL     1       0.993   0.553   2.479  0.00  0.00    +0.049 A 
ATOM     32  C   UNL     1       1.678   1.698   2.117  0.00  0.00    +0.004 A 
ATOM     33  C   UNL     1       1.874   1.997   0.781  0.00  0.00    +0.008 A 
ATOM     34  C   UNL     1       1.386   1.151  -0.198  0.00  0.00    +0.010 A 
ATOM     35  C   UNL     1       0.699   0.002   0.158  0.00  0.00    +0.163 A 
BRANCH  35  36
ATOM     36  O   UNL     1       0.218  -0.831  -0.803  0.00  0.00    -0.503 OA
ATOM     37  H   UNL     1       0.839  -1.522  -1.071  0.00  0.00    +0.292 HD
ENDBRANCH  35  36
BRANCH  30  38
ATOM     38  O   UNL     1      -0.182  -1.419   1.857  0.00  0.00    -0.489 OA
BRANCH  38  40
ATOM     39  C   UNL     1      -1.132  -2.961   3.458  0.00  0.00    +0.048 C 
ATOM     40  C   UNL     1      -0.351  -1.661   3.256  0.00  0.00    +0.226 C 
ENDBRANCH  38  40
ENDBRANCH  30  38
ENDBRANCH   1  34
TORSDOF 8
