REMARK  Name = ZINC45839770
REMARK  10 active torsions:
REMARK  status: ('A' for Active; 'I' for Inactive)
REMARK    1  A    between atoms: C_1  and  C_2
REMARK    2  A    between atoms: C_7  and  N_8
REMARK    3  A    between atoms: C_9  and  C_11
REMARK    4  A    between atoms: C_11  and  C_13
REMARK    5  A    between atoms: C_11  and  S_14
REMARK    6  A    between atoms: S_14  and  C_15
REMARK    7  A    between atoms: C_18  and  C_21
REMARK    8  A    between atoms: N_19  and  N_20
REMARK    9  A    between atoms: C_24  and  O_27
REMARK   10  A    between atoms: O_27  and  C_28
REMARK                            x       y       z     vdW  Elec       q    Type
REMARK                         _______ _______ _______ _____ _____    ______ ____
ROOT
ATOM      1  C   UNL     1       0.406   0.070   7.641  0.00  0.00    +0.209 A 
ATOM      2  N   UNL     1      -0.015   1.315   7.668  0.00  0.00    -0.121 NA
ATOM      3  N   UNL     1       0.077   1.786   8.860  0.00  0.00    -0.127 NA
ATOM      4  C   UNL     1       0.564   0.872   9.667  0.00  0.00    +0.182 A 
ATOM      5  N   UNL     1       0.784  -0.257   8.913  0.00  0.00    -0.224 N 
ENDROOT
BRANCH   4   6
ATOM      6  C   UNL     1       0.821   1.025  11.115  0.00  0.00    +0.021 A 
ATOM      7  C   UNL     1       1.625   0.101  11.784  0.00  0.00    +0.015 A 
ATOM      8  C   UNL     1       1.863   0.247  13.134  0.00  0.00    +0.046 A 
ATOM      9  C   UNL     1       1.304   1.312  13.828  0.00  0.00    +0.127 A 
ATOM     10  C   UNL     1       0.503   2.234  13.166  0.00  0.00    +0.046 A 
ATOM     11  C   UNL     1       0.265   2.098  11.815  0.00  0.00    +0.015 A 
BRANCH   9  12
ATOM     12  O   UNL     1       1.540   1.453  15.159  0.00  0.00    -0.434 OA
BRANCH  12  13
ATOM     13  C   UNL     1       0.934   2.571  15.811  0.00  0.00    +0.541 C 
ATOM     14  F   UNL     1       1.387   3.756  15.221  0.00  0.00    -0.166 F 
ATOM     15  F   UNL     1      -0.457   2.488  15.683  0.00  0.00    -0.166 F 
ENDBRANCH  12  13
ENDBRANCH   9  12
ENDBRANCH   4   6
BRANCH   5  16
ATOM     16  N   UNL     1       1.280  -1.454   9.344  0.00  0.00    -0.295 N 
ATOM     17  H   UNL     1       2.287  -1.475   9.274  0.00  0.00    +0.163 HD
ATOM     18  H   UNL     1       0.979  -1.653  10.286  0.00  0.00    +0.163 HD
ENDBRANCH   5  16
BRANCH   1  19
ATOM     19  S   UNL     1       0.465  -0.982   6.229  0.00  0.00    -0.072 S 
BRANCH  19  20
ATOM     20  C   UNL     1      -0.169   0.054   4.882  0.00  0.00    +0.137 C 
ATOM     21  C   UNL     1      -1.636   0.397   5.149  0.00  0.00    +0.029 C 
BRANCH  20  23
ATOM     22  N   UNL     1       0.025  -0.014   2.417  0.00  0.00    -0.284 N 
ATOM     23  C   UNL     1      -0.057  -0.693   3.578  0.00  0.00    +0.230 C 
ATOM     24  O   UNL     1      -0.040  -1.906   3.574  0.00  0.00    -0.274 OA
ATOM     25  H   UNL     1       0.077   0.955   2.425  0.00  0.00    +0.155 HD
BRANCH  22  32
ATOM     26  C   UNL     1      -1.265   1.183   0.181  0.00  0.00    +0.046 C 
ATOM     27  C   UNL     1      -0.584  -0.158   0.084  0.00  0.00    -0.028 A 
ATOM     28  C   UNL     1      -0.569  -0.841  -1.116  0.00  0.00    +0.025 A 
ATOM     29  C   UNL     1       0.056  -2.072  -1.206  0.00  0.00    +0.041 A 
ATOM     30  C   UNL     1       0.668  -2.623  -0.093  0.00  0.00    +0.022 A 
ATOM     31  C   UNL     1       0.656  -1.944   1.109  0.00  0.00    +0.025 A 
ATOM     32  C   UNL     1       0.034  -0.706   1.201  0.00  0.00    +0.036 A 
ATOM     33 CL   UNL     1       0.072  -2.928  -2.716  0.00  0.00    -0.084 Cl
ENDBRANCH  22  32
ENDBRANCH  20  23
ENDBRANCH  19  20
ENDBRANCH   1  19
TORSDOF 8
