REMARK  Name = ZINC12010216
REMARK  5 active torsions:
REMARK  status: ('A' for Active; 'I' for Inactive)
REMARK    1  A    between atoms: C_1  and  C_2
REMARK    2  A    between atoms: C_4  and  C_33
REMARK    3  A    between atoms: C_6  and  C_8
REMARK    4  A    between atoms: N_10  and  C_11
REMARK    5  A    between atoms: C_13  and  C_28
REMARK                            x       y       z     vdW  Elec       q    Type
REMARK                         _______ _______ _______ _____ _____    ______ ____
ROOT
ATOM      1  C   UNL     1       1.269   1.840  -0.000  0.00  0.00    +0.133 A 
ATOM      2  C   UNL     1      -0.017   1.407   0.010  0.00  0.00    +0.077 A 
ATOM      3  C   UNL     1       0.002  -0.004   0.002  0.00  0.00    +0.130 A 
ATOM      4  N   UNL     1       1.259  -0.399  -0.012  0.00  0.00    -0.159 NA
ATOM      5  N   UNL     1       2.077   0.738  -0.014  0.00  0.00    -0.184 N 
ATOM      6  C   UNL     1       3.459   0.745  -0.027  0.00  0.00    +0.234 A 
ATOM      7  N   UNL     1       4.133  -0.436  -0.038  0.00  0.00    -0.291 N 
ATOM      8  H   UNL     1       3.648  -1.276  -0.041  0.00  0.00    +0.172 HD
ATOM      9  C   UNL     1       5.481  -0.430  -0.047  0.00  0.00    +0.256 A 
ATOM     10  O   UNL     1       6.104  -1.479  -0.059  0.00  0.00    -0.267 OA
ATOM     11  C   UNL     1       6.162   0.807  -0.041  0.00  0.00    +0.038 A 
ATOM     12  C   UNL     1       5.437   1.954  -0.037  0.00  0.00    +0.053 A 
ATOM     13  N   UNL     1       4.099   1.890  -0.033  0.00  0.00    -0.217 NA
ATOM     14  C   UNL     1       6.074   3.319  -0.053  0.00  0.00    +0.056 C 
ATOM     15  C   UNL     1       7.537   3.233   0.378  0.00  0.00    +0.006 C 
ATOM     16  C   UNL     1       8.224   2.145  -0.456  0.00  0.00    +0.005 C 
ATOM     17  C   UNL     1       7.667   0.788  -0.029  0.00  0.00    +0.042 C 
ENDROOT
BRANCH   3  18
ATOM     18  C   UNL     1      -1.183  -0.887   0.009  0.00  0.00    +0.155 A 
ATOM     19  C   UNL     1      -1.166  -2.246  -0.004  0.00  0.00    +0.051 A 
ATOM     20  C   UNL     1      -2.510  -2.670   0.013  0.00  0.00    +0.042 A 
ATOM     21  C   UNL     1      -3.273  -1.560   0.026  0.00  0.00    +0.196 A 
ATOM     22  O   UNL     1      -2.468  -0.484   0.024  0.00  0.00    -0.461 OA
ENDBRANCH   3  18
BRANCH   1  25
ATOM     23  C   UNL     1       0.780   4.162   0.018  0.00  0.00    +0.249 C 
ATOM     24  O   UNL     1      -0.407   3.900   0.028  0.00  0.00    -0.270 OA
ATOM     25  N   UNL     1       1.689   3.167   0.003  0.00  0.00    -0.266 N 
ATOM     26  H   UNL     1       2.637   3.376  -0.005  0.00  0.00    +0.157 HD
BRANCH  23  32
ATOM     27  C   UNL     1       4.468   7.522  -0.002  0.00  0.00    +0.044 C 
ATOM     28  C   UNL     1       2.998   7.192   0.012  0.00  0.00    -0.049 A 
ATOM     29  C   UNL     1       2.062   8.211   0.028  0.00  0.00    +0.006 A 
ATOM     30  C   UNL     1       0.710   7.916   0.039  0.00  0.00    -0.049 A 
ATOM     31  C   UNL     1       0.287   6.603   0.036  0.00  0.00    +0.016 A 
ATOM     32  C   UNL     1       1.226   5.571   0.021  0.00  0.00    +0.038 A 
ATOM     33  C   UNL     1       2.589   5.875   0.015  0.00  0.00    +0.016 A 
ATOM     34  C   UNL     1      -0.302   9.033   0.056  0.00  0.00    +0.044 C 
ENDBRANCH  23  32
ENDBRANCH   1  25
TORSDOF 3
