REMARK  Name = ZINC06794637
REMARK  8 active torsions:
REMARK  status: ('A' for Active; 'I' for Inactive)
REMARK    1  A    between atoms: C_1  and  C_2
REMARK    2  A    between atoms: C_2  and  C_4
REMARK    3  A    between atoms: C_2  and  N_21
REMARK    4  A    between atoms: C_4  and  N_5
REMARK    5  A    between atoms: C_6  and  C_8
REMARK    6  A    between atoms: C_17  and  C_19
REMARK    7  A    between atoms: C_22  and  C_24
REMARK    8  A    between atoms: C_33  and  C_35
REMARK                            x       y       z     vdW  Elec       q    Type
REMARK                         _______ _______ _______ _____ _____    ______ ____
ROOT
ATOM      1  C   UNL     1      -0.443   1.487   7.934  0.00  0.00    +0.029 C 
ATOM      2  C   UNL     1       0.056   1.078   6.547  0.00  0.00    +0.087 C 
ENDROOT
BRANCH   2   3
ATOM      3  N   UNL     1       1.009  -0.028   6.677  0.00  0.00    -0.311 N 
ATOM      4  C   UNL     1       0.562  -1.297   6.748  0.00  0.00    +0.217 C 
ATOM      5  O   UNL     1      -0.629  -1.519   6.798  0.00  0.00    -0.275 OA
ATOM      6  H   UNL     1       1.961   0.154   6.711  0.00  0.00    +0.149 HD
BRANCH   4   7
ATOM      7  C   UNL     1       1.544  -2.441   6.766  0.00  0.00    +0.092 C 
ATOM      8  C   UNL     1       1.466  -3.245   5.433  0.00  0.00    +0.002 C 
ATOM      9  C   UNL     1      -0.058  -3.499   5.218  0.00  0.00    +0.004 C 
ATOM     10  C   UNL     1      -0.442  -4.521   6.319  0.00  0.00    +0.004 C 
ATOM     11  C   UNL     1       0.887  -4.787   7.090  0.00  0.00    +0.004 C 
ATOM     12  C   UNL     1       1.929  -4.664   5.923  0.00  0.00    +0.008 C 
ATOM     13  C   UNL     1       1.162  -3.461   7.864  0.00  0.00    +0.117 C 
BRANCH  13  14
ATOM     14  C   UNL     1      -0.077  -3.009   8.593  0.00  0.00    +0.360 C 
ATOM     15  O   UNL     1      -1.008  -3.767   8.731  0.00  0.00    -0.246 OA
ATOM     16  O   UNL     1      -0.147  -1.764   9.089  0.00  0.00    -0.246 OA
ENDBRANCH  13  14
ENDBRANCH   4   7
ENDBRANCH   2   3
BRANCH   2  17
ATOM     17  C   UNL     1       0.747   2.270   5.881  0.00  0.00    +0.126 C 
BRANCH  17  18
ATOM     18  N   UNL     1       1.329   1.847   4.605  0.00  0.00    -0.313 N 
ATOM     19  C   UNL     1       1.991   2.737   3.839  0.00  0.00    +0.217 C 
ATOM     20  O   UNL     1       2.184   3.863   4.246  0.00  0.00    -0.275 OA
ATOM     21  H   UNL     1       1.238   0.927   4.311  0.00  0.00    +0.149 HD
BRANCH  19  22
ATOM     22  C   UNL     1       2.491   2.332   2.476  0.00  0.00    +0.092 C 
ATOM     23  C   UNL     1       4.047   2.230   2.477  0.00  0.00    +0.002 C 
ATOM     24  C   UNL     1       4.525   3.555   3.145  0.00  0.00    +0.004 C 
ATOM     25  C   UNL     1       4.207   4.654   2.106  0.00  0.00    +0.004 C 
ATOM     26  C   UNL     1       3.566   3.889   0.907  0.00  0.00    +0.004 C 
ATOM     27  C   UNL     1       4.359   2.536   0.969  0.00  0.00    +0.008 C 
ATOM     28  C   UNL     1       2.172   3.432   1.437  0.00  0.00    +0.117 C 
BRANCH  28  29
ATOM     29  C   UNL     1       1.453   4.582   2.093  0.00  0.00    +0.360 C 
ATOM     30  O   UNL     1       1.819   5.716   1.893  0.00  0.00    -0.246 OA
ATOM     31  O   UNL     1       0.406   4.346   2.899  0.00  0.00    -0.246 OA
ENDBRANCH  28  29
ENDBRANCH  19  22
ENDBRANCH  17  18
ENDBRANCH   2  17
TORSDOF 7
