REMARK  Name = ZINC17354233
REMARK  4 active torsions:
REMARK  status: ('A' for Active; 'I' for Inactive)
REMARK    1  A    between atoms: C_1  and  O_2
REMARK    2  A    between atoms: O_2  and  C_3
REMARK    3  A    between atoms: C_6  and  N_7
REMARK    4  A    between atoms: N_7  and  N_8
REMARK                            x       y       z     vdW  Elec       q    Type
REMARK                         _______ _______ _______ _____ _____    ______ ____
ROOT
ATOM      1  C   UNL     1       0.606  -0.608  -1.057  0.00  0.00    +0.168 C 
ATOM      2  C   UNL     1       1.162   0.146  -2.043  0.00  0.00    +0.058 C 
ATOM      3  C   UNL     1       1.790  -0.484  -3.142  0.00  0.00    -0.006 C 
ATOM      4  C   UNL     1       2.363   0.288  -4.158  0.00  0.00    +0.092 C 
ATOM      5  C   UNL     1       1.838  -1.893  -3.213  0.00  0.00    +0.027 C 
ATOM      6  C   UNL     1       1.282  -2.643  -2.226  0.00  0.00    +0.064 C 
ATOM      7  C   UNL     1       0.662  -2.017  -1.129  0.00  0.00    +0.233 C 
ATOM      8  O   UNL     1       0.166  -2.695  -0.238  0.00  0.00    -0.283 OA
ATOM      9  I   UNL     1       1.354  -4.734  -2.333  0.00  0.00    -0.040 I 
ENDROOT
BRANCH   1  11
ATOM     10  C   UNL     1      -0.017   1.425   0.010  0.00  0.00    +0.277 C 
ATOM     11  O   UNL     1       0.002  -0.004   0.002  0.00  0.00    -0.491 OA
ENDBRANCH   1  11
BRANCH   4  12
ATOM     12  N   UNL     1       2.959  -0.310  -5.201  0.00  0.00    -0.284 N 
ATOM     13  H   UNL     1       2.992  -1.278  -5.250  0.00  0.00    +0.166 HD
BRANCH  12  14
ATOM     14  N   UNL     1       3.518   0.444  -6.193  0.00  0.00    -0.230 NA
ATOM     15  C   UNL     1       2.754   0.316  -7.450  0.00  0.00    +0.105 C 
ATOM     16  C   UNL     1       2.901   1.604  -8.219  0.00  0.00    +0.017 C 
ATOM     17  C   UNL     1       4.040   1.522  -9.250  0.00  0.00    +0.001 C 
ATOM     18  C   UNL     1       5.275   0.790  -8.688  0.00  0.00    +0.001 C 
ATOM     19  C   UNL     1       5.580   1.178  -7.264  0.00  0.00    +0.017 C 
ATOM     20  C   UNL     1       4.886   0.182  -6.310  0.00  0.00    +0.105 C 
ENDBRANCH  12  14
ENDBRANCH   4  12
TORSDOF 3
