REMARK  Name = ZINC39884382
REMARK  10 active torsions:
REMARK  status: ('A' for Active; 'I' for Inactive)
REMARK    1  A    between atoms: C_1  and  C_2
REMARK    2  A    between atoms: C_2  and  O_3
REMARK    3  A    between atoms: O_3  and  C_4
REMARK    4  A    between atoms: C_4  and  C_6
REMARK    5  A    between atoms: C_10  and  N_11
REMARK    6  A    between atoms: C_12  and  C_14
REMARK    7  A    between atoms: C_17  and  C_19
REMARK    8  A    between atoms: C_19  and  S_20
REMARK    9  A    between atoms: S_20  and  C_21
REMARK   10  A    between atoms: C_28  and  C_32
REMARK                            x       y       z     vdW  Elec       q    Type
REMARK                         _______ _______ _______ _____ _____    ______ ____
ROOT
ATOM      1  N   UNL     1      -3.035  -2.523   2.497  0.00  0.00    -0.273 N 
ATOM      2  C   UNL     1      -3.810  -2.866   3.545  0.00  0.00    +0.284 C 
ATOM      3  O   UNL     1      -4.915  -3.340   3.355  0.00  0.00    -0.266 OA
ATOM      4  H   UNL     1      -2.154  -2.146   2.649  0.00  0.00    +0.156 HD
ENDROOT
BRANCH   1   9
ATOM      5  C   UNL     1      -2.842  -2.416   0.016  0.00  0.00    +0.091 A 
ATOM      6  C   UNL     1      -3.548  -2.714  -1.219  0.00  0.00    -0.021 A 
ATOM      7  C   UNL     1      -4.777  -3.243  -1.039  0.00  0.00    -0.004 A 
ATOM      8  S   UNL     1      -4.974  -3.336   0.716  0.00  0.00    -0.077 S 
ATOM      9  C   UNL     1      -3.495  -2.708   1.205  0.00  0.00    +0.087 A 
ATOM     10  C   UNL     1      -5.745  -3.652  -2.106  0.00  0.00    +0.046 C 
ATOM     11  C   UNL     1      -5.287  -3.033  -3.435  0.00  0.00    -0.009 C 
ATOM     12  C   UNL     1      -3.790  -3.299  -3.616  0.00  0.00    +0.008 C 
ATOM     13  C   UNL     1      -2.988  -2.468  -2.612  0.00  0.00    +0.037 C 
ATOM     14  C   UNL     1      -6.066  -3.666  -4.590  0.00  0.00    +0.008 C 
BRANCH   5  15
ATOM     15  C   UNL     1      -1.497  -1.838   0.006  0.00  0.00    +0.342 C 
ATOM     16  O   UNL     1      -0.522  -2.566  -0.007  0.00  0.00    -0.245 OA
BRANCH  15  17
ATOM     17  O   UNL     1      -1.339  -0.499   0.012  0.00  0.00    -0.461 OA
BRANCH  17  19
ATOM     18  C   UNL     1      -0.019   1.526   0.010  0.00  0.00    +0.048 C 
ATOM     19  C   UNL     1       0.002  -0.004   0.002  0.00  0.00    +0.229 C 
ENDBRANCH  17  19
ENDBRANCH  15  17
ENDBRANCH   5  15
ENDBRANCH   1   9
BRANCH   2  20
ATOM     20  C   UNL     1      -3.322  -2.670   4.913  0.00  0.00    +0.190 A 
ATOM     21  C   UNL     1      -3.999  -2.978   6.059  0.00  0.00    +0.055 A 
ATOM     22  C   UNL     1      -3.162  -2.627   7.129  0.00  0.00    +0.046 A 
ATOM     23  C   UNL     1      -2.025  -2.126   6.597  0.00  0.00    +0.116 A 
ATOM     24  O   UNL     1      -2.123  -2.158   5.262  0.00  0.00    -0.454 OA
BRANCH  23  25
ATOM     25  C   UNL     1      -0.840  -1.620   7.378  0.00  0.00    +0.148 C 
BRANCH  25  26
ATOM     26  S   UNL     1       0.318  -2.985   7.673  0.00  0.00    -0.117 S 
BRANCH  26  27
ATOM     27  C   UNL     1       1.631  -2.242   8.583  0.00  0.00    +0.008 A 
ATOM     28  C   UNL     1       1.579  -0.890   8.902  0.00  0.00    +0.015 A 
ATOM     29  C   UNL     1       2.610  -0.311   9.615  0.00  0.00    +0.001 A 
ATOM     30  C   UNL     1       3.692  -1.074  10.013  0.00  0.00    +0.000 A 
ATOM     31  C   UNL     1       3.747  -2.420   9.697  0.00  0.00    +0.001 A 
ATOM     32  C   UNL     1       2.717  -3.007   8.989  0.00  0.00    +0.015 A 
ENDBRANCH  26  27
ENDBRANCH  25  26
ENDBRANCH  23  25
ENDBRANCH   2  20
TORSDOF 8
