REMARK  Name = ZINC38596362
REMARK  12 active torsions:
REMARK  status: ('A' for Active; 'I' for Inactive)
REMARK    1  A    between atoms: C_1  and  C_2
REMARK    2  A    between atoms: C_2  and  O_3
REMARK    3  A    between atoms: O_3  and  C_4
REMARK    4  A    between atoms: C_7  and  S_11
REMARK    5  A    between atoms: S_11  and  N_14
REMARK    6  A    between atoms: N_14  and  C_15
REMARK    7  A    between atoms: C_15  and  C_17
REMARK    8  A    between atoms: C_15  and  C_18
REMARK    9  A    between atoms: C_18  and  C_20
REMARK   10  A    between atoms: C_18  and  N_25
REMARK   11  A    between atoms: N_28  and  C_31
REMARK   12  A    between atoms: C_31  and  C_32
REMARK                            x       y       z     vdW  Elec       q    Type
REMARK                         _______ _______ _______ _____ _____    ______ ____
ROOT
ATOM      1  C   UNL     1      -1.306  -7.330  -4.844  0.00  0.00    +0.112 C 
ENDROOT
BRANCH   1   2
ATOM      2  N   UNL     1      -1.405  -6.932  -6.255  0.00  0.00    -0.297 NA
ATOM      3  C   UNL     1      -1.787  -5.518  -6.378  0.00  0.00    +0.066 C 
ATOM      4  C   UNL     1      -1.821  -5.129  -7.857  0.00  0.00    -0.063 C 
ATOM      5  N   UNL     1      -2.787  -5.978  -8.565  0.00  0.00    +0.384 N 
ATOM      6  C   UNL     1      -2.379  -7.385  -8.455  0.00  0.00    -0.063 C 
ATOM      7  C   UNL     1      -2.350  -7.793  -6.980  0.00  0.00    +0.066 C 
ATOM      8  H   UNL     1      -3.702  -5.860  -8.156  0.00  0.00    -0.081 HD
BRANCH   5   9
ATOM      9  C   UNL     1      -2.833  -5.591  -9.982  0.00  0.00    -0.043 C 
BRANCH   9  10
ATOM     10  C   UNL     1      -3.910  -6.378 -10.683  0.00  0.00    -0.064 A 
ATOM     11  C   UNL     1      -3.612  -7.598 -11.259  0.00  0.00    +0.002 A 
ATOM     12  C   UNL     1      -4.601  -8.319 -11.902  0.00  0.00    +0.000 A 
ATOM     13  C   UNL     1      -5.888  -7.820 -11.969  0.00  0.00    +0.000 A 
ATOM     14  C   UNL     1      -6.186  -6.600 -11.392  0.00  0.00    +0.000 A 
ATOM     15  C   UNL     1      -5.199  -5.881 -10.745  0.00  0.00    +0.002 A 
ENDBRANCH   9  10
ENDBRANCH   5   9
ENDBRANCH   1   2
BRANCH   1  16
ATOM     16  C   UNL     1      -0.935  -8.788  -4.759  0.00  0.00    +0.008 A 
ATOM     17  C   UNL     1      -1.397  -9.739  -3.910  0.00  0.00    +0.013 A 
ATOM     18  C   UNL     1      -0.908 -11.027  -4.016  0.00  0.00    +0.008 A 
ATOM     19  C   UNL     1       0.020 -11.302  -4.965  0.00  0.00    +0.045 A 
ATOM     20  S   UNL     1       0.223  -9.713  -5.754  0.00  0.00    -0.100 S 
ENDBRANCH   1  16
BRANCH   1  21
ATOM     21  C   UNL     1      -0.233  -6.489  -4.151  0.00  0.00    +0.095 C 
ATOM     22  C   UNL     1      -0.121  -6.912  -2.685  0.00  0.00    +0.027 C 
BRANCH  21  23
ATOM     23  N   UNL     1       1.055  -6.693  -4.818  0.00  0.00    -0.185 NA
ATOM     24  H   UNL     1       1.279  -7.563  -5.183  0.00  0.00    +0.148 HD
BRANCH  23  25
ATOM     25  S   UNL     1       2.128  -5.439  -4.949  0.00  0.00    +0.059 S 
ATOM     26  O   UNL     1       1.395  -4.328  -5.446  0.00  0.00    -0.153 OA
ATOM     27  O   UNL     1       3.275  -5.953  -5.611  0.00  0.00    -0.153 OA
BRANCH  25  31
ATOM     28  C   UNL     1       3.438  -4.354  -0.750  0.00  0.00    +0.156 A 
ATOM     29  C   UNL     1       4.142  -5.304  -1.475  0.00  0.00    +0.050 A 
ATOM     30  C   UNL     1       3.740  -5.633  -2.755  0.00  0.00    +0.032 A 
ATOM     31  C   UNL     1       2.637  -5.016  -3.315  0.00  0.00    +0.108 A 
ATOM     32  C   UNL     1       1.932  -4.069  -2.597  0.00  0.00    +0.070 A 
ATOM     33  C   UNL     1       2.326  -3.740  -1.312  0.00  0.00    +0.167 A 
ATOM     34  F   UNL     1       1.634  -2.818  -0.607  0.00  0.00    -0.202 F 
BRANCH  28  35
ATOM     35  O   UNL     1       3.832  -4.029   0.510  0.00  0.00    -0.489 OA
BRANCH  35  37
ATOM     36  C   UNL     1       5.272  -4.207   2.442  0.00  0.00    +0.048 C 
ATOM     37  C   UNL     1       4.984  -4.700   1.023  0.00  0.00    +0.226 C 
ENDBRANCH  35  37
ENDBRANCH  28  35
ENDBRANCH  25  31
ENDBRANCH  23  25
ENDBRANCH  21  23
ENDBRANCH   1  21
TORSDOF 10
