REMARK  Name = ZINC43578183
REMARK  6 active torsions:
REMARK  status: ('A' for Active; 'I' for Inactive)
REMARK    1  A    between atoms: C_1  and  C_2
REMARK    2  A    between atoms: C_2  and  C_3
REMARK    3  A    between atoms: C_3  and  C_4
REMARK    4  A    between atoms: C_3  and  C_5
REMARK    5  A    between atoms: C_3  and  N_18
REMARK    6  A    between atoms: C_7  and  C_10
REMARK                            x       y       z     vdW  Elec       q    Type
REMARK                         _______ _______ _______ _____ _____    ______ ____
ROOT
ATOM      1  C   UNL     1       0.739  -2.004  -1.265  0.00  0.00    +0.161 A 
ATOM      2  N   UNL     1       1.369  -2.765  -2.163  0.00  0.00    -0.193 NA
ATOM      3  C   UNL     1       1.186  -4.036  -1.882  0.00  0.00    +0.258 A 
ATOM      4  O   UNL     1       0.422  -4.112  -0.779  0.00  0.00    -0.333 OA
ATOM      5  N   UNL     1       0.149  -2.773  -0.394  0.00  0.00    -0.062 NA
ENDROOT
BRANCH   3   6
ATOM      6  C   UNL     1       1.726  -5.180  -2.645  0.00  0.00    +0.042 A 
ATOM      7  C   UNL     1       2.515  -4.959  -3.776  0.00  0.00    +0.014 A 
ATOM      8  C   UNL     1       3.016  -6.030  -4.485  0.00  0.00    +0.019 A 
ATOM      9  C   UNL     1       2.739  -7.324  -4.079  0.00  0.00    +0.053 A 
ATOM     10  C   UNL     1       1.957  -7.552  -2.957  0.00  0.00    +0.138 A 
ATOM     11  C   UNL     1       1.454  -6.486  -2.235  0.00  0.00    +0.052 A 
ATOM     12  F   UNL     1       1.690  -8.817  -2.566  0.00  0.00    -0.204 F 
ATOM     13 BR   UNL     1       3.431  -8.787  -5.057  0.00  0.00    -0.047 Br
ENDBRANCH   3   6
BRANCH   1  14
ATOM     14  C   UNL     1       0.718  -0.497  -1.257  0.00  0.00    -0.009 C 
ATOM     15  C   UNL     1      -0.022   0.009  -2.496  0.00  0.00    -0.003 C 
BRANCH  14  16
ATOM     16  N   UNL     1       2.096   0.011  -1.267  0.00  0.00    +0.386 N 
ATOM     17  H   UNL     1       2.584  -0.323  -0.450  0.00  0.00    -0.089 HD
ATOM     18  H   UNL     1       2.569  -0.314  -2.097  0.00  0.00    -0.089 HD
ATOM     19  H   UNL     1       2.083   1.020  -1.262  0.00  0.00    -0.089 HD
ENDBRANCH  14  16
BRANCH  14  21
ATOM     20  C   UNL     1      -0.019   1.526   0.010  0.00  0.00    +0.003 C 
ATOM     21  C   UNL     1       0.002  -0.004   0.002  0.00  0.00    -0.009 C 
ENDBRANCH  14  21
ENDBRANCH   1  14
TORSDOF 4
