REMARK  Name = ZINC09455877
REMARK  14 active torsions:
REMARK  status: ('A' for Active; 'I' for Inactive)
REMARK    1  A    between atoms: C_1  and  C_2
REMARK    2  A    between atoms: C_4  and  C_35
REMARK    3  A    between atoms: C_5  and  C_34
REMARK    4  A    between atoms: C_6  and  S_9
REMARK    5  A    between atoms: C_7  and  C_8
REMARK    6  A    between atoms: S_9  and  N_12
REMARK    7  A    between atoms: C_15  and  C_18
REMARK    8  A    between atoms: N_20  and  C_21
REMARK    9  A    between atoms: C_21  and  C_22
REMARK   10  A    between atoms: C_22  and  C_23
REMARK   11  A    between atoms: C_22  and  C_24
REMARK   12  A    between atoms: C_22  and  N_77
REMARK   13  A    between atoms: C_26  and  C_33
REMARK   14  A    between atoms: C_29  and  C_32
REMARK                            x       y       z     vdW  Elec       q    Type
REMARK                         _______ _______ _______ _____ _____    ______ ____
ROOT
ATOM      1  N   UNL     1      -2.787  -0.026   0.075  0.00  0.00    -0.177 NA
ATOM      2  C   UNL     1      -2.920  -0.045  -1.389  0.00  0.00    +0.110 C 
ATOM      3  C   UNL     1      -1.713   0.672  -2.002  0.00  0.00    +0.030 C 
ATOM      4  C   UNL     1      -0.425   0.031  -1.480  0.00  0.00    +0.077 C 
ATOM      5  C   UNL     1      -0.357   0.186   0.041  0.00  0.00    +0.030 C 
ATOM      6  C   UNL     1      -1.548  -0.536   0.678  0.00  0.00    +0.110 C 
ENDROOT
BRANCH   4   7
ATOM      7  C   UNL     1       0.764   0.712  -2.108  0.00  0.00    +0.216 C 
ATOM      8  O   UNL     1       0.598   1.619  -2.895  0.00  0.00    -0.276 OA
ATOM      9  N   UNL     1       2.012   0.311  -1.795  0.00  0.00    -0.316 N 
ATOM     10  H   UNL     1       2.145  -0.415  -1.166  0.00  0.00    +0.149 HD
BRANCH   9  11
ATOM     11  C   UNL     1       3.168   0.973  -2.405  0.00  0.00    +0.092 C 
BRANCH  11  12
ATOM     12  C   UNL     1       4.456   0.406  -1.804  0.00  0.00    -0.055 C 
ATOM     13  C   UNL     1       4.544  -1.091  -2.107  0.00  0.00    -0.008 C 
ATOM     14  C   UNL     1       5.662   1.122  -2.415  0.00  0.00    -0.008 C 
BRANCH  12  22
ATOM     15  C   UNL     1       4.272   2.033  -0.019  0.00  0.00    -0.046 C 
ATOM     16  C   UNL     1       4.211   2.194   1.502  0.00  0.00    +0.099 C 
ATOM     17  O   UNL     1       5.399   1.648   2.082  0.00  0.00    -0.378 OA
ATOM     18  C   UNL     1       5.603   0.265   1.781  0.00  0.00    +0.099 C 
ATOM     19  C   UNL     1       5.678   0.084   0.263  0.00  0.00    -0.046 C 
ATOM     20  C   UNL     1       4.437  -0.556   2.336  0.00  0.00    +0.036 C 
ATOM     21  C   UNL     1       4.107   3.679   1.854  0.00  0.00    +0.036 C 
ATOM     22  N   UNL     1       4.429   0.599  -0.338  0.00  0.00    +0.387 N 
ATOM     23  H   UNL     1       3.632   0.081   0.052  0.00  0.00    -0.081 HD
ENDBRANCH  12  22
ENDBRANCH  11  12
ENDBRANCH   9  11
ENDBRANCH   4   7
BRANCH   1  24
ATOM     24  S   UNL     1      -4.011   0.557   1.026  0.00  0.00    +0.061 S 
ATOM     25  O   UNL     1      -3.415   0.963   2.251  0.00  0.00    -0.153 OA
ATOM     26  O   UNL     1      -4.767   1.446   0.215  0.00  0.00    -0.153 OA
BRANCH  24  32
ATOM     27  C   UNL     1      -5.623  -3.249   4.225  0.00  0.00    +0.044 C 
ATOM     28  C   UNL     1      -5.766  -2.528   2.909  0.00  0.00    -0.045 A 
ATOM     29  C   UNL     1      -6.726  -2.932   2.001  0.00  0.00    +0.007 A 
ATOM     30  C   UNL     1      -6.857  -2.269   0.794  0.00  0.00    -0.045 A 
ATOM     31  C   UNL     1      -6.028  -1.204   0.496  0.00  0.00    -0.021 A 
ATOM     32  C   UNL     1      -5.068  -0.801   1.405  0.00  0.00    +0.112 A 
ATOM     33  C   UNL     1      -4.934  -1.466   2.610  0.00  0.00    -0.021 A 
ATOM     34  C   UNL     1      -3.883  -1.030   3.598  0.00  0.00    +0.046 C 
ATOM     35  C   UNL     1      -6.171  -0.483  -0.819  0.00  0.00    +0.046 C 
ATOM     36  C   UNL     1      -7.904  -2.709  -0.196  0.00  0.00    +0.044 C 
ENDBRANCH  24  32
ENDBRANCH   1  24
TORSDOF 6
