REMARK  Name = ZINC01472232
REMARK  10 active torsions:
REMARK  status: ('A' for Active; 'I' for Inactive)
REMARK    1  A    between atoms: C_1  and  C_2
REMARK    2  A    between atoms: C_2  and  O_3
REMARK    3  A    between atoms: O_3  and  C_4
REMARK    4  A    between atoms: C_8  and  C_20
REMARK    5  A    between atoms: C_9  and  O_10
REMARK    6  A    between atoms: O_10  and  C_11
REMARK    7  A    between atoms: C_11  and  C_12
REMARK    8  A    between atoms: C_23  and  C_34
REMARK    9  A    between atoms: C_29  and  N_33
REMARK   10  A    between atoms: C_30  and  C_31
REMARK                            x       y       z     vdW  Elec       q    Type
REMARK                         _______ _______ _______ _____ _____    ______ ____
ROOT
ATOM      1  C   UNL     1      -0.416   1.181   2.037  0.00  0.00    +0.162 A 
ATOM      2  C   UNL     1       0.674   0.345   1.857  0.00  0.00    +0.049 A 
ATOM      3  C   UNL     1       1.461  -0.005   2.938  0.00  0.00    +0.004 A 
ATOM      4  C   UNL     1       1.164   0.477   4.199  0.00  0.00    +0.008 A 
ATOM      5  C   UNL     1       0.078   1.312   4.385  0.00  0.00    +0.011 A 
ATOM      6  C   UNL     1      -0.712   1.671   3.305  0.00  0.00    +0.166 A 
ENDROOT
BRANCH   5   7
ATOM      7  C   UNL     1      -0.243   1.836   5.761  0.00  0.00    +0.105 C 
ATOM      8  C   UNL     1      -0.554   3.308   5.685  0.00  0.00    +0.049 A 
ATOM      9  C   UNL     1       0.304   4.378   5.467  0.00  0.00    +0.068 A 
ATOM     10  N   UNL     1      -0.407   5.480   5.480  0.00  0.00    -0.176 NA
ATOM     11  N   UNL     1      -1.749   5.139   5.710  0.00  0.00    -0.246 N 
ATOM     12  H   UNL     1      -2.516   5.777   5.771  0.00  0.00    +0.192 HD
ATOM     13  C   UNL     1      -1.819   3.804   5.833  0.00  0.00    +0.222 A 
ATOM     14  O   UNL     1      -2.895   3.010   6.062  0.00  0.00    -0.423 OA
ATOM     15  C   UNL     1      -2.662   1.730   6.417  0.00  0.00    +0.200 C 
ATOM     16  C   UNL     1      -1.458   1.126   6.305  0.00  0.00    +0.098 C 
ATOM     17  C   UNL     1       1.793   4.288   5.252  0.00  0.00    +0.068 C 
BRANCH  15  18
ATOM     18  N   UNL     1      -3.708   0.998   6.920  0.00  0.00    -0.328 N 
ATOM     19  H   UNL     1      -3.572   0.074   7.184  0.00  0.00    +0.145 HD
ATOM     20  H   UNL     1      -4.584   1.404   7.011  0.00  0.00    +0.145 HD
ENDBRANCH  15  18
BRANCH  16  21
ATOM     21  C   UNL     1      -1.331  -0.239   6.719  0.00  0.00    +0.101 C 
ATOM     22  N   UNL     1      -1.230  -1.322   7.048  0.00  0.00    -0.191 NA
ENDBRANCH  16  21
ENDBRANCH   5   7
BRANCH   1  23
ATOM     23  O   UNL     1      -1.192   1.527   0.975  0.00  0.00    -0.489 OA
BRANCH  23  25
ATOM     24  C   UNL     1      -1.806   1.487  -1.362  0.00  0.00    +0.048 C 
ATOM     25  C   UNL     1      -0.825   0.991  -0.298  0.00  0.00    +0.226 C 
ENDBRANCH  23  25
ENDBRANCH   1  23
BRANCH   6  26
ATOM     26  O   UNL     1      -1.778   2.497   3.485  0.00  0.00    -0.483 OA
BRANCH  26  27
ATOM     27  C   UNL     1      -3.071   1.890   3.517  0.00  0.00    +0.266 C 
BRANCH  27  28
ATOM     28  C   UNL     1      -4.128   2.963   3.566  0.00  0.00    +0.008 A 
ATOM     29  C   UNL     1      -3.761   4.295   3.579  0.00  0.00    +0.010 A 
ATOM     30  C   UNL     1      -4.730   5.279   3.618  0.00  0.00    +0.020 A 
ATOM     31  C   UNL     1      -6.069   4.931   3.655  0.00  0.00    +0.042 A 
ATOM     32  C   UNL     1      -6.437   3.598   3.647  0.00  0.00    +0.040 A 
ATOM     33  C   UNL     1      -5.466   2.613   3.603  0.00  0.00    +0.049 A 
ATOM     34 CL   UNL     1      -5.928   0.940   3.592  0.00  0.00    -0.083 Cl
ATOM     35 CL   UNL     1      -7.287   6.168   3.711  0.00  0.00    -0.083 Cl
ENDBRANCH  27  28
ENDBRANCH  26  27
ENDBRANCH   6  26
TORSDOF 8
