REMARK  Name = ZINC45045183
REMARK  10 active torsions:
REMARK  status: ('A' for Active; 'I' for Inactive)
REMARK    1  A    between atoms: C_1  and  C_2
REMARK    2  A    between atoms: C_2  and  O_3
REMARK    3  A    between atoms: O_3  and  C_4
REMARK    4  A    between atoms: N_6  and  C_7
REMARK    5  A    between atoms: C_7  and  C_9
REMARK    6  A    between atoms: C_7  and  C_12
REMARK    7  A    between atoms: C_9  and  C_10
REMARK    8  A    between atoms: C_9  and  C_11
REMARK    9  A    between atoms: N_14  and  C_15
REMARK   10  A    between atoms: C_19  and  C_21
REMARK                            x       y       z     vdW  Elec       q    Type
REMARK                         _______ _______ _______ _____ _____    ______ ____
ROOT
ATOM      1  C   UNL     1       2.176  -4.020  -4.054  0.00  0.00    +0.238 C 
ATOM      2  O   UNL     1       2.534  -3.203  -4.876  0.00  0.00    -0.273 OA
ATOM      3  N   UNL     1       2.831  -5.192  -3.939  0.00  0.00    -0.284 N 
ATOM      4  H   UNL     1       2.601  -5.809  -3.227  0.00  0.00    +0.155 HD
ENDROOT
BRANCH   3   5
ATOM      5  C   UNL     1       3.843  -5.520  -4.848  0.00  0.00    +0.034 A 
ATOM      6  C   UNL     1       4.679  -4.528  -5.346  0.00  0.00    +0.023 A 
ATOM      7  C   UNL     1       5.677  -4.855  -6.243  0.00  0.00    +0.002 A 
ATOM      8  C   UNL     1       5.845  -6.167  -6.645  0.00  0.00    +0.005 A 
ATOM      9  C   UNL     1       5.014  -7.157  -6.152  0.00  0.00    -0.023 A 
ATOM     10  C   UNL     1       4.018  -6.837  -5.249  0.00  0.00    +0.028 A 
BRANCH   9  11
ATOM     11  C   UNL     1       5.201  -8.585  -6.593  0.00  0.00    +0.133 C 
ATOM     12  S   UNL     1       6.874  -9.143  -6.160  0.00  0.00    -0.142 S 
ATOM     13  C   UNL     1       6.968 -10.811  -6.865  0.00  0.00    +0.071 C 
ATOM     14  C   UNL     1       6.810 -10.748  -8.380  0.00  0.00    +0.021 C 
ATOM     15  C   UNL     1       5.369 -10.433  -8.763  0.00  0.00    +0.071 C 
ATOM     16  S   UNL     1       4.992  -8.698  -8.394  0.00  0.00    -0.142 S 
ENDBRANCH   9  11
ENDBRANCH   3   5
BRANCH   1  17
ATOM     17  C   UNL     1       0.998  -3.725  -3.162  0.00  0.00    +0.165 C 
BRANCH  17  20
ATOM     18  C   UNL     1       0.142  -1.724  -2.064  0.00  0.00    +0.401 C 
ATOM     19  O   UNL     1      -0.225  -2.424  -1.141  0.00  0.00    -0.226 OA
ATOM     20  N   UNL     1       0.764  -2.279  -3.124  0.00  0.00    -0.270 N 
ATOM     21  H   UNL     1       1.058  -1.720  -3.861  0.00  0.00    +0.153 HD
BRANCH  18  22
ATOM     22  O   UNL     1      -0.072  -0.396  -2.029  0.00  0.00    -0.451 OA
BRANCH  22  24
ATOM     23  C   UNL     1      -0.889   1.640  -1.014  0.00  0.00    +0.048 C 
ATOM     24  C   UNL     1      -0.736   0.124  -0.875  0.00  0.00    +0.230 C 
ENDBRANCH  22  24
ENDBRANCH  18  22
ENDBRANCH  17  20
BRANCH  17  25
ATOM     25  C   UNL     1      -0.246  -4.427  -3.711  0.00  0.00    +0.012 C 
ATOM     26  C   UNL     1      -1.408  -4.245  -2.732  0.00  0.00    +0.009 C 
ATOM     27  C   UNL     1      -0.619  -3.820  -5.065  0.00  0.00    +0.009 C 
ENDBRANCH  17  25
ENDBRANCH   1  17
TORSDOF 7
