REMARK  Name = ZINC02372869
REMARK  13 active torsions:
REMARK  status: ('A' for Active; 'I' for Inactive)
REMARK    1  A    between atoms: C_1  and  C_2
REMARK    2  A    between atoms: C_2  and  C_3
REMARK    3  A    between atoms: C_2  and  C_4
REMARK    4  A    between atoms: C_2  and  C_5
REMARK    5  A    between atoms: C_8  and  C_11
REMARK    6  A    between atoms: C_14  and  S_22
REMARK    7  A    between atoms: N_15  and  C_16
REMARK    8  A    between atoms: S_22  and  C_23
REMARK    9  A    between atoms: C_23  and  C_24
REMARK   10  A    between atoms: N_26  and  N_27
REMARK   11  A    between atoms: C_28  and  C_29
REMARK   12  A    between atoms: C_32  and  O_36
REMARK   13  A    between atoms: C_33  and  O_35
REMARK                            x       y       z     vdW  Elec       q    Type
REMARK                         _______ _______ _______ _____ _____    ______ ____
ROOT
ATOM      1  C   UNL     1      -2.501   0.983  -0.131  0.00  0.00    +0.169 A 
ATOM      2  N   UNL     1      -2.643  -0.299   0.109  0.00  0.00    -0.128 NA
ATOM      3  N   UNL     1      -3.890  -0.589   0.227  0.00  0.00    -0.122 NA
ATOM      4  C   UNL     1      -4.622   0.491   0.070  0.00  0.00    +0.197 A 
ATOM      5  N   UNL     1      -3.764   1.532  -0.158  0.00  0.00    -0.270 N 
ENDROOT
BRANCH   1   9
ATOM      6  C   UNL     1       1.164   3.055  -0.695  0.00  0.00    -0.042 A 
ATOM      7  C   UNL     1      -0.024   3.632  -1.109  0.00  0.00    +0.005 A 
ATOM      8  C   UNL     1      -1.218   2.963  -0.932  0.00  0.00    +0.012 A 
ATOM      9  C   UNL     1      -1.225   1.704  -0.329  0.00  0.00    +0.020 A 
ATOM     10  C   UNL     1      -0.023   1.126   0.082  0.00  0.00    +0.012 A 
ATOM     11  C   UNL     1       1.163   1.806  -0.101  0.00  0.00    +0.005 A 
BRANCH   6  13
ATOM     12  C   UNL     1       2.414   5.123  -0.139  0.00  0.00    +0.015 C 
ATOM     13  C   UNL     1       2.463   3.792  -0.892  0.00  0.00    -0.013 C 
ATOM     14  C   UNL     1       3.617   2.944  -0.353  0.00  0.00    +0.015 C 
ATOM     15  C   UNL     1       2.679   4.058  -2.383  0.00  0.00    +0.015 C 
ENDBRANCH   6  13
ENDBRANCH   1   9
BRANCH   5  16
ATOM     16  C   UNL     1      -4.100   2.875  -0.377  0.00  0.00    +0.051 A 
ATOM     17  C   UNL     1      -3.775   3.837   0.571  0.00  0.00    +0.026 A 
ATOM     18  C   UNL     1      -4.102   5.160   0.350  0.00  0.00    +0.002 A 
ATOM     19  C   UNL     1      -4.764   5.527  -0.808  0.00  0.00    +0.000 A 
ATOM     20  C   UNL     1      -5.094   4.571  -1.751  0.00  0.00    +0.002 A 
ATOM     21  C   UNL     1      -4.764   3.246  -1.538  0.00  0.00    +0.026 A 
ENDBRANCH   5  16
BRANCH   4  22
ATOM     22  S   UNL     1      -6.380   0.583   0.147  0.00  0.00    -0.076 S 
BRANCH  22  23
ATOM     23  C   UNL     1      -6.771  -1.152   0.482  0.00  0.00    +0.174 C 
BRANCH  23  24
ATOM     24  C   UNL     1      -8.265  -1.319   0.592  0.00  0.00    +0.242 C 
ATOM     25  O   UNL     1      -8.993  -0.358   0.456  0.00  0.00    -0.273 OA
ATOM     26  N   UNL     1      -8.791  -2.534   0.840  0.00  0.00    -0.206 N 
ATOM     27  H   UNL     1      -8.208  -3.302   0.948  0.00  0.00    +0.177 HD
BRANCH  26  28
ATOM     28  N   UNL     1     -10.180  -2.689   0.942  0.00  0.00    -0.188 NA
ATOM     29  C   UNL     1     -10.686  -3.860   1.181  0.00  0.00    +0.138 C 
BRANCH  29  30
ATOM     30  C   UNL     1     -12.148  -4.022   1.288  0.00  0.00    -0.002 A 
ATOM     31  C   UNL     1     -12.988  -2.917   1.138  0.00  0.00    +0.013 A 
ATOM     32  C   UNL     1     -14.355  -3.072   1.233  0.00  0.00    +0.050 A 
ATOM     33  C   UNL     1     -14.898  -4.323   1.488  0.00  0.00    +0.158 A 
ATOM     34  C   UNL     1     -14.066  -5.429   1.645  0.00  0.00    +0.159 A 
ATOM     35  C   UNL     1     -12.695  -5.282   1.546  0.00  0.00    +0.058 A 
BRANCH  34  36
ATOM     36  O   UNL     1     -14.602  -6.653   1.896  0.00  0.00    -0.503 OA
ATOM     37  H   UNL     1     -14.711  -6.850   2.836  0.00  0.00    +0.292 HD
ENDBRANCH  34  36
BRANCH  33  38
ATOM     38  O   UNL     1     -16.246  -4.470   1.586  0.00  0.00    -0.503 OA
ATOM     39  H   UNL     1     -16.590  -4.354   2.483  0.00  0.00    +0.292 HD
ENDBRANCH  33  38
ENDBRANCH  29  30
ENDBRANCH  26  28
ENDBRANCH  23  24
ENDBRANCH  22  23
ENDBRANCH   4  22
TORSDOF 10
