REMARK  Name = ZINC01044424
REMARK  5 active torsions:
REMARK  status: ('A' for Active; 'I' for Inactive)
REMARK    1  A    between atoms: C_1  and  C_2
REMARK    2  A    between atoms: C_2  and  C_23
REMARK    3  A    between atoms: C_10  and  C_16
REMARK    4  A    between atoms: C_12  and  O_15
REMARK    5  A    between atoms: C_17  and  C_18
REMARK                            x       y       z     vdW  Elec       q    Type
REMARK                         _______ _______ _______ _____ _____    ______ ____
ROOT
ATOM      1  C   UNL     1      -0.019   1.526   0.010  0.00  0.00    +0.020 C 
ATOM      2  C   UNL     1       0.002  -0.004   0.002  0.00  0.00    +0.037 C 
ATOM      3  C   UNL     1       0.816  -0.516  -1.168  0.00  0.00    -0.016 A 
ATOM      4  C   UNL     1       0.701  -0.279  -2.524  0.00  0.00    +0.006 A 
ATOM      5  C   UNL     1       1.591  -0.858  -3.409  0.00  0.00    +0.000 A 
ATOM      6  C   UNL     1       2.599  -1.677  -2.934  0.00  0.00    +0.002 A 
ATOM      7  C   UNL     1       2.713  -1.924  -1.583  0.00  0.00    +0.023 A 
ATOM      8  C   UNL     1       1.813  -1.352  -0.682  0.00  0.00    +0.036 A 
ATOM      9  N   UNL     1       1.715  -1.500   0.695  0.00  0.00    -0.301 N 
ATOM     10  C   UNL     1       0.738  -0.537   1.235  0.00  0.00    +0.159 C 
ATOM     11  N   UNL     1      -0.147  -1.259   2.140  0.00  0.00    -0.224 NA
ATOM     12  C   UNL     1       0.106  -2.428   2.580  0.00  0.00    +0.186 C 
ATOM     13  C   UNL     1       1.286  -3.286   2.247  0.00  0.00    +0.114 C 
ATOM     14  C   UNL     1       2.395  -2.468   1.568  0.00  0.00    +0.117 C 
ATOM     15  C   UNL     1      -1.423  -0.557  -0.050  0.00  0.00    +0.020 C 
ENDROOT
BRANCH  12  16
ATOM     16  O   UNL     1      -0.790  -2.951   3.444  0.00  0.00    -0.496 OA
ATOM     17  H   UNL     1      -1.537  -2.368   3.635  0.00  0.00    +0.293 HD
ENDBRANCH  12  16
BRANCH  10  18
ATOM     18  C   UNL     1       1.445   0.585   1.950  0.00  0.00    +0.024 C 
ATOM     19  C   UNL     1       1.139   0.866   3.213  0.00  0.00    +0.015 C 
BRANCH  19  20
ATOM     20  C   UNL     1       1.829   1.961   3.912  0.00  0.00    +0.012 A 
ATOM     21  C   UNL     1       1.666   2.403   5.201  0.00  0.00    +0.015 A 
ATOM     22  C   UNL     1       2.434   3.458   5.639  0.00  0.00    +0.008 A 
ATOM     23  C   UNL     1       3.325   4.028   4.788  0.00  0.00    +0.046 A 
ATOM     24  S   UNL     1       3.102   3.057   3.307  0.00  0.00    -0.097 S 
ENDBRANCH  19  20
ENDBRANCH  10  18
TORSDOF 3
