REMARK  Name = ZINC20079803
REMARK  7 active torsions:
REMARK  status: ('A' for Active; 'I' for Inactive)
REMARK    1  A    between atoms: C_1  and  C_2
REMARK    2  A    between atoms: C_6  and  C_15
REMARK    3  A    between atoms: C_13  and  C_14
REMARK    4  A    between atoms: C_15  and  C_17
REMARK    5  A    between atoms: C_15  and  N_30
REMARK    6  A    between atoms: N_21  and  C_22
REMARK    7  A    between atoms: C_22  and  C_23
REMARK                            x       y       z     vdW  Elec       q    Type
REMARK                         _______ _______ _______ _____ _____    ______ ____
ROOT
ATOM      1  C   UNL     1      -1.288  -0.811   0.761  0.00  0.00    +0.163 C 
ENDROOT
BRANCH   1   7
ATOM      2  C   UNL     1      -4.425  -6.979  -2.020  0.00  0.00    +0.044 C 
ATOM      3  C   UNL     1      -3.510  -6.300  -1.034  0.00  0.00    -0.047 A 
ATOM      4  C   UNL     1      -3.363  -4.942  -1.070  0.00  0.00    +0.013 A 
ATOM      5  C   UNL     1      -2.513  -4.312  -0.156  0.00  0.00    -0.001 A 
ATOM      6  C   UNL     1      -2.333  -2.859  -0.166  0.00  0.00    +0.021 A 
ATOM      7  C   UNL     1      -1.496  -2.304   0.745  0.00  0.00    +0.042 A 
ATOM      8  C   UNL     1      -0.814  -3.119   1.674  0.00  0.00    +0.254 A 
ATOM      9  O   UNL     1      -0.063  -2.599   2.481  0.00  0.00    -0.268 OA
ATOM     10  N   UNL     1      -0.978  -4.453   1.695  0.00  0.00    -0.322 N 
ATOM     11  H   UNL     1      -0.441  -5.061   2.438  0.00  0.00    +0.169 HD
ATOM     12  C   UNL     1      -1.814  -5.080   0.796  0.00  0.00    +0.049 A 
ATOM     13  C   UNL     1      -1.979  -6.460   0.813  0.00  0.00    +0.030 A 
ATOM     14  C   UNL     1      -2.822  -7.060  -0.098  0.00  0.00    -0.046 A 
ATOM     15  C   UNL     1      -3.000  -8.556  -0.077  0.00  0.00    +0.044 C 
ENDBRANCH   1   7
BRANCH   1  16
ATOM     16  N   UNL     1       0.145  -0.515   0.629  0.00  0.00    -0.284 NA
ATOM     17  C   UNL     1       0.376   0.934   0.522  0.00  0.00    +0.090 C 
ATOM     18  C   UNL     1       1.862   1.207   0.756  0.00  0.00    +0.051 C 
ATOM     19  C   UNL     1       2.695   0.307  -0.119  0.00  0.00    -0.042 A 
ATOM     20  C   UNL     1       4.028   0.629  -0.322  0.00  0.00    +0.004 A 
ATOM     21  C   UNL     1       4.828  -0.173  -1.110  0.00  0.00    +0.000 A 
ATOM     22  C   UNL     1       4.297  -1.304  -1.701  0.00  0.00    +0.000 A 
ATOM     23  C   UNL     1       2.969  -1.625  -1.502  0.00  0.00    +0.005 A 
ATOM     24  C   UNL     1       2.164  -0.819  -0.712  0.00  0.00    -0.030 A 
ATOM     25  C   UNL     1       0.720  -1.208  -0.528  0.00  0.00    +0.120 C 
ENDBRANCH   1  16
BRANCH   1  26
ATOM     26  C   UNL     1      -1.800  -0.247   2.061  0.00  0.00    +0.173 A 
ATOM     27  N   UNL     1      -1.199  -0.294   3.225  0.00  0.00    -0.111 NA
ATOM     28  N   UNL     1      -1.953   0.298   4.086  0.00  0.00    -0.023 NA
ATOM     29  N   UNL     1      -3.022   0.715   3.503  0.00  0.00    -0.044 NA
ATOM     30  N   UNL     1      -2.966   0.398   2.254  0.00  0.00    -0.223 N 
BRANCH  30  31
ATOM     31  C   UNL     1      -3.979   0.685   1.236  0.00  0.00    +0.182 C 
BRANCH  31  32
ATOM     32  C   UNL     1      -3.761   2.072   0.688  0.00  0.00    -0.026 A 
ATOM     33  C   UNL     1      -4.356   3.159   1.300  0.00  0.00    +0.008 A 
ATOM     34  C   UNL     1      -4.153   4.431   0.800  0.00  0.00    +0.038 A 
ATOM     35  C   UNL     1      -3.361   4.616  -0.320  0.00  0.00    +0.123 A 
ATOM     36  C   UNL     1      -2.770   3.526  -0.936  0.00  0.00    +0.038 A 
ATOM     37  C   UNL     1      -2.971   2.255  -0.432  0.00  0.00    +0.008 A 
ATOM     38  F   UNL     1      -3.166   5.859  -0.812  0.00  0.00    -0.205 F 
ENDBRANCH  31  32
ENDBRANCH  30  31
ENDBRANCH   1  26
TORSDOF 5
