REMARK  Name = ZINC40372741
REMARK  6 active torsions:
REMARK  status: ('A' for Active; 'I' for Inactive)
REMARK    1  A    between atoms: C_1  and  C_2
REMARK    2  A    between atoms: C_2  and  C_3
REMARK    3  A    between atoms: C_6  and  C_9
REMARK    4  A    between atoms: C_6  and  N_13
REMARK    5  A    between atoms: N_10  and  O_11
REMARK    6  A    between atoms: C_14  and  C_16
REMARK                            x       y       z     vdW  Elec       q    Type
REMARK                         _______ _______ _______ _____ _____    ______ ____
ROOT
ATOM      1  C   UNL     1      -1.225  -0.510  -0.013  0.00  0.00    -0.011 C 
ATOM      2  C   UNL     1      -2.021  -0.111  -1.257  0.00  0.00    +0.006 C 
ATOM      3  C   UNL     1      -1.373  -0.728  -2.497  0.00  0.00    +0.034 C 
ATOM      4  C   UNL     1      -1.365  -2.252  -2.364  0.00  0.00    +0.093 C 
ATOM      5  C   UNL     1      -0.569  -2.651  -1.119  0.00  0.00    +0.034 C 
ATOM      6  C   UNL     1      -1.218  -2.034   0.121  0.00  0.00    +0.006 C 
ENDROOT
BRANCH   4   7
ATOM      7  C   UNL     1      -0.726  -2.861  -3.586  0.00  0.00    +0.155 C 
ATOM      8  N   UNL     1      -0.266  -2.098  -4.521  0.00  0.00    -0.075 NA
ATOM      9  N   UNL     1      -0.632  -4.229  -3.704  0.00  0.00    -0.342 N 
ATOM     10  H   UNL     1      -1.043  -4.803  -3.039  0.00  0.00    +0.144 HD
ATOM     11  H   UNL     1      -0.156  -4.620  -4.454  0.00  0.00    +0.144 HD
BRANCH   8  12
ATOM     12  O   UNL     1       0.335  -2.669  -5.669  0.00  0.00    -0.408 OA
ATOM     13  H   UNL     1       0.648  -2.020  -6.313  0.00  0.00    +0.328 HD
ENDBRANCH   8  12
ENDBRANCH   4   7
BRANCH   4  14
ATOM     14  N   UNL     1      -2.741  -2.739  -2.239  0.00  0.00    -0.303 N 
ATOM     15  C   UNL     1      -3.600  -2.602  -3.269  0.00  0.00    +0.217 C 
ATOM     16  O   UNL     1      -3.261  -1.997  -4.265  0.00  0.00    -0.275 OA
ATOM     17  H   UNL     1      -3.035  -3.159  -1.416  0.00  0.00    +0.150 HD
BRANCH  15  18
ATOM     18  C   UNL     1      -4.981  -3.199  -3.184  0.00  0.00    +0.075 C 
ATOM     19  C   UNL     1      -5.296  -4.383  -4.101  0.00  0.00    +0.013 C 
ATOM     20  C   UNL     1      -5.909  -3.010  -4.385  0.00  0.00    +0.013 C 
ENDBRANCH  15  18
ENDBRANCH   4  14
BRANCH   1  22
ATOM     21  C   UNL     1       0.214   1.528  -0.151  0.00  0.00    +0.004 C 
ATOM     22  C   UNL     1       0.212  -0.002  -0.142  0.00  0.00    -0.000 C 
ENDBRANCH   1  22
TORSDOF 5
