REMARK  Name = ZINC07264471
REMARK  10 active torsions:
REMARK  status: ('A' for Active; 'I' for Inactive)
REMARK    1  A    between atoms: C_1  and  C_2
REMARK    2  A    between atoms: C_2  and  C_3
REMARK    3  A    between atoms: C_3  and  C_4
REMARK    4  A    between atoms: C_4  and  C_5
REMARK    5  A    between atoms: C_5  and  C_6
REMARK    6  A    between atoms: C_6  and  C_8
REMARK    7  A    between atoms: C_6  and  N_9
REMARK    8  A    between atoms: C_10  and  C_12
REMARK    9  A    between atoms: N_21  and  C_23
REMARK   10  A    between atoms: C_23  and  C_24
REMARK                            x       y       z     vdW  Elec       q    Type
REMARK                         _______ _______ _______ _____ _____    ______ ____
ROOT
ATOM      1  C   UNL     1       3.687   1.656   3.269  0.00  0.00    +0.154 A 
ATOM      2  C   UNL     1       4.779   0.983   3.990  0.00  0.00    +0.020 A 
ATOM      3  C   UNL     1       4.616  -0.237   4.638  0.00  0.00    +0.011 A 
ATOM      4  C   UNL     1       5.690  -0.807   5.288  0.00  0.00    +0.001 A 
ATOM      5  C   UNL     1       6.929  -0.181   5.298  0.00  0.00    +0.001 A 
ATOM      6  C   UNL     1       7.114   1.026   4.658  0.00  0.00    +0.014 A 
ATOM      7  C   UNL     1       6.043   1.618   3.996  0.00  0.00    +0.050 A 
ATOM      8  C   UNL     1       6.152   2.902   3.289  0.00  0.00    +0.275 A 
ATOM      9  O   UNL     1       7.208   3.507   3.256  0.00  0.00    -0.266 OA
ATOM     10  N   UNL     1       5.055   3.394   2.678  0.00  0.00    -0.224 N 
ATOM     11  N   UNL     1       3.921   2.802   2.679  0.00  0.00    -0.163 NA
ENDROOT
BRANCH   1  13
ATOM     12  N   UNL     1       1.346   1.674   2.558  0.00  0.00    -0.307 N 
ATOM     13  C   UNL     1       2.342   1.049   3.216  0.00  0.00    +0.265 C 
ATOM     14  O   UNL     1       2.133  -0.015   3.766  0.00  0.00    -0.268 OA
ATOM     15  H   UNL     1       1.512   2.523   2.120  0.00  0.00    +0.149 HD
BRANCH  12  16
ATOM     16  C   UNL     1       0.011   1.072   2.506  0.00  0.00    +0.070 C 
ATOM     17  C   UNL     1      -0.772   1.460   3.762  0.00  0.00    +0.028 C 
BRANCH  16  18
ATOM     18  C   UNL     1      -0.729   1.579   1.267  0.00  0.00    +0.022 C 
BRANCH  18  19
ATOM     19  C   UNL     1      -0.013   1.086   0.008  0.00  0.00    +0.002 C 
BRANCH  19  20
ATOM     20  C   UNL     1      -0.753   1.593  -1.232  0.00  0.00    -0.000 C 
BRANCH  20  22
ATOM     21  C   UNL     1      -0.777   1.606  -3.730  0.00  0.00    +0.004 C 
ATOM     22  C   UNL     1      -0.037   1.099  -2.490  0.00  0.00    -0.003 C 
ENDBRANCH  20  22
ENDBRANCH  19  20
ENDBRANCH  18  19
ENDBRANCH  16  18
ENDBRANCH  12  16
ENDBRANCH   1  13
BRANCH  10  23
ATOM     23  C   UNL     1       5.169   4.674   1.974  0.00  0.00    +0.182 C 
BRANCH  23  24
ATOM     24  C   UNL     1       5.565   4.426   0.541  0.00  0.00    -0.026 A 
ATOM     25  C   UNL     1       6.902   4.384   0.191  0.00  0.00    +0.005 A 
ATOM     26  C   UNL     1       7.265   4.152  -1.122  0.00  0.00    +0.000 A 
ATOM     27  C   UNL     1       6.292   3.972  -2.087  0.00  0.00    +0.000 A 
ATOM     28  C   UNL     1       4.955   4.019  -1.738  0.00  0.00    +0.000 A 
ATOM     29  C   UNL     1       4.592   4.246  -0.423  0.00  0.00    +0.005 A 
ENDBRANCH  23  24
ENDBRANCH  10  23
TORSDOF 8
