REMARK  Name = ZINC63085459
REMARK  9 active torsions:
REMARK  status: ('A' for Active; 'I' for Inactive)
REMARK    1  A    between atoms: C_1  and  C_2
REMARK    2  A    between atoms: C_2  and  N_3
REMARK    3  A    between atoms: C_9  and  C_11
REMARK    4  A    between atoms: C_11  and  C_13
REMARK    5  A    between atoms: C_11  and  N_14
REMARK    6  A    between atoms: N_14  and  C_15
REMARK    7  A    between atoms: C_15  and  C_16
REMARK    8  A    between atoms: C_16  and  C_18
REMARK    9  A    between atoms: C_16  and  C_24
REMARK                            x       y       z     vdW  Elec       q    Type
REMARK                         _______ _______ _______ _____ _____    ______ ____
ROOT
ATOM      1  C   UNL     1       1.534  -6.362   5.439  0.00  0.00    -0.073 C 
ENDROOT
BRANCH   1   2
ATOM      2  N   UNL     1       1.114  -4.961   5.581  0.00  0.00    +0.387 N 
ATOM      3  H   UNL     1       1.527  -4.569   6.413  0.00  0.00    -0.085 HD
ATOM      4  H   UNL     1       0.108  -4.917   5.652  0.00  0.00    -0.085 HD
BRANCH   2   5
ATOM      5  C   UNL     1       1.556  -4.196   4.407  0.00  0.00    +0.013 C 
ATOM      6  C   UNL     1       3.085  -4.158   4.370  0.00  0.00    -0.004 C 
BRANCH   5  13
ATOM      7  N   UNL     1      -0.073  -0.967   1.018  0.00  0.00    -0.300 NA
ATOM      8  C   UNL     1      -0.717  -0.620   2.291  0.00  0.00    +0.103 C 
ATOM      9  C   UNL     1       0.315  -0.700   3.421  0.00  0.00    +0.123 C 
ATOM     10  N   UNL     1       0.946  -2.029   3.384  0.00  0.00    -0.300 N 
ATOM     11  C   UNL     1       1.494  -2.503   2.104  0.00  0.00    +0.123 C 
ATOM     12  C   UNL     1       0.415  -2.352   1.026  0.00  0.00    +0.103 C 
ATOM     13  C   UNL     1       1.021  -2.790   4.493  0.00  0.00    +0.201 C 
ATOM     14  O   UNL     1       0.657  -2.344   5.561  0.00  0.00    -0.277 OA
BRANCH   7  16
ATOM     15  C   UNL     1      -1.272   0.761  -0.237  0.00  0.00    +0.020 C 
ATOM     16  C   UNL     1      -0.983  -0.736  -0.113  0.00  0.00    +0.081 C 
ENDBRANCH   7  16
ENDBRANCH   5  13
ENDBRANCH   2   5
ENDBRANCH   1   2
BRANCH   1  17
ATOM     17  C   UNL     1       1.040  -7.166   6.644  0.00  0.00    +0.014 C 
BRANCH  17  18
ATOM     18  C   UNL     1       1.743  -6.689   7.888  0.00  0.00    -0.039 C 
ATOM     19  C   UNL     1       1.169  -6.170   8.998  0.00  0.00    -0.001 A 
ATOM     20  C   UNL     1      -0.228  -5.903   9.363  0.00  0.00    +0.010 A 
ATOM     21  C   UNL     1      -0.498  -5.364  10.573  0.00  0.00    +0.001 A 
ATOM     22  C   UNL     1       0.519  -5.053  11.485  0.00  0.00    +0.002 A 
ATOM     23  C   UNL     1       1.826  -5.269  11.222  0.00  0.00    +0.026 A 
ATOM     24  C   UNL     1       2.225  -5.833   9.979  0.00  0.00    +0.043 A 
ATOM     25  N   UNL     1       3.406  -6.133   9.495  0.00  0.00    -0.380 N 
ATOM     26  C   UNL     1       3.232  -6.700   8.153  0.00  0.00    +0.145 C 
ATOM     27  H   UNL     1       4.253  -6.005   9.950  0.00  0.00    +0.160 HD
ENDBRANCH  17  18
BRANCH  17  28
ATOM     28  C   UNL     1       1.343  -8.650   6.424  0.00  0.00    +0.060 C 
ATOM     29  C   UNL     1       0.548  -9.221   5.220  0.00  0.00    +0.042 C 
ATOM     30  C   UNL     1       0.072 -10.608   5.510  0.00  0.00    -0.019 C 
ATOM     31  C   UNL     1       0.025 -11.039   6.755  0.00  0.00    +0.036 C 
ATOM     32  S   UNL     1       0.623  -9.691   7.762  0.00  0.00    -0.129 S 
ENDBRANCH  17  28
ENDBRANCH   1  17
TORSDOF 7
