REMARK  Name = ZINC05413604
REMARK  10 active torsions:
REMARK  status: ('A' for Active; 'I' for Inactive)
REMARK    1  A    between atoms: C_1  and  C_2
REMARK    2  A    between atoms: C_2  and  O_3
REMARK    3  A    between atoms: O_3  and  C_4
REMARK    4  A    between atoms: C_4  and  C_6
REMARK    5  A    between atoms: C_10  and  N_11
REMARK    6  A    between atoms: C_12  and  C_14
REMARK    7  A    between atoms: C_14  and  N_15
REMARK    8  A    between atoms: N_15  and  C_16
REMARK    9  A    between atoms: C_19  and  C_23
REMARK   10  A    between atoms: C_25  and  C_29
REMARK                            x       y       z     vdW  Elec       q    Type
REMARK                         _______ _______ _______ _____ _____    ______ ____
ROOT
ATOM      1  C   UNL     1      -1.256  -0.753   0.010  0.00  0.00    +0.091 A 
ATOM      2  C   UNL     1      -1.892  -1.146   1.257  0.00  0.00    -0.021 A 
ATOM      3  C   UNL     1      -3.047  -1.832   1.122  0.00  0.00    -0.004 A 
ATOM      4  S   UNL     1      -3.296  -1.961  -0.626  0.00  0.00    -0.077 S 
ATOM      5  C   UNL     1      -1.889  -1.111  -1.173  0.00  0.00    +0.086 A 
ATOM      6  C   UNL     1      -3.916  -2.363   2.220  0.00  0.00    +0.046 C 
ATOM      7  C   UNL     1      -3.111  -2.340   3.528  0.00  0.00    -0.009 C 
ATOM      8  C   UNL     1      -2.442  -0.970   3.671  0.00  0.00    +0.008 C 
ATOM      9  C   UNL     1      -1.327  -0.824   2.634  0.00  0.00    +0.037 C 
ATOM     10  C   UNL     1      -4.048  -2.583   4.712  0.00  0.00    +0.008 C 
ENDROOT
BRANCH   5  11
ATOM     11  N   UNL     1      -1.491  -0.852  -2.475  0.00  0.00    -0.278 N 
ATOM     12  C   UNL     1      -2.243  -1.282  -3.508  0.00  0.00    +0.235 C 
ATOM     13  O   UNL     1      -3.268  -1.896  -3.298  0.00  0.00    -0.274 OA
ATOM     14  H   UNL     1      -0.671  -0.361  -2.643  0.00  0.00    +0.155 HD
BRANCH  12  15
ATOM     15  C   UNL     1      -1.810  -1.001  -4.924  0.00  0.00    +0.198 C 
BRANCH  15  16
ATOM     16  N   UNL     1      -2.788  -1.568  -5.855  0.00  0.00    -0.335 N 
ATOM     17  H   UNL     1      -3.567  -2.037  -5.515  0.00  0.00    +0.147 HD
BRANCH  16  18
ATOM     18  C   UNL     1      -2.601  -1.433  -7.233  0.00  0.00    +0.029 A 
ATOM     19  C   UNL     1      -3.528  -1.970  -8.117  0.00  0.00    +0.023 A 
ATOM     20  C   UNL     1      -3.340  -1.835  -9.479  0.00  0.00    +0.006 A 
ATOM     21  C   UNL     1      -2.231  -1.166  -9.963  0.00  0.00    -0.032 A 
ATOM     22  C   UNL     1      -1.305  -0.630  -9.085  0.00  0.00    +0.046 A 
ATOM     23  C   UNL     1      -1.490  -0.757  -7.721  0.00  0.00    +0.043 A 
ATOM     24 CL   UNL     1       0.086   0.210  -9.697  0.00  0.00    -0.083 Cl
ATOM     25  C   UNL     1      -2.030  -1.020 -11.449  0.00  0.00    +0.045 C 
ENDBRANCH  16  18
ENDBRANCH  15  16
ENDBRANCH  12  15
ENDBRANCH   5  11
BRANCH   1  26
ATOM     26  C   UNL     1       0.002  -0.004   0.002  0.00  0.00    +0.342 C 
ATOM     27  O   UNL     1       1.064  -0.598  -0.011  0.00  0.00    -0.245 OA
BRANCH  26  28
ATOM     28  O   UNL     1      -0.016   1.345   0.009  0.00  0.00    -0.461 OA
BRANCH  28  30
ATOM     29  C   UNL     1       1.047   3.535   0.011  0.00  0.00    +0.048 C 
ATOM     30  C   UNL     1       1.268   2.021   0.001  0.00  0.00    +0.229 C 
ENDBRANCH  28  30
ENDBRANCH  26  28
ENDBRANCH   1  26
TORSDOF 7
