REMARK  Name = ZINC64733848
REMARK  9 active torsions:
REMARK  status: ('A' for Active; 'I' for Inactive)
REMARK    1  A    between atoms: C_1  and  C_2
REMARK    2  A    between atoms: C_2  and  C_3
REMARK    3  A    between atoms: C_2  and  C_4
REMARK    4  A    between atoms: C_4  and  C_6
REMARK    5  A    between atoms: C_4  and  N_17
REMARK    6  A    between atoms: C_18  and  C_20
REMARK    7  A    between atoms: C_20  and  N_21
REMARK    8  A    between atoms: C_24  and  C_29
REMARK    9  A    between atoms: C_29  and  C_30
REMARK                            x       y       z     vdW  Elec       q    Type
REMARK                         _______ _______ _______ _____ _____    ______ ____
ROOT
ATOM      1  C   UNL     1      -3.456   1.665  -2.381  0.00  0.00    +0.213 C 
ENDROOT
BRANCH   1   2
ATOM      2  N   UNL     1      -3.999   2.999  -2.114  0.00  0.00    -0.216 N 
ATOM      3  C   UNL     1      -5.221   3.229  -1.595  0.00  0.00    +0.244 C 
ATOM      4  O   UNL     1      -6.048   2.403  -1.274  0.00  0.00    -0.273 OA
ATOM      5  C   UNL     1      -5.347   4.737  -1.497  0.00  0.00    +0.165 C 
ATOM      6  N   UNL     1      -4.060   5.227  -2.021  0.00  0.00    -0.287 N 
ATOM      7  C   UNL     1      -3.340   4.140  -2.350  0.00  0.00    +0.310 C 
ATOM      8  O   UNL     1      -2.217   4.188  -2.813  0.00  0.00    -0.252 OA
ATOM      9  H   UNL     1      -3.785   6.153  -2.108  0.00  0.00    +0.151 HD
BRANCH   5  10
ATOM     10  C   UNL     1      -5.538   5.167  -0.041  0.00  0.00    +0.065 C 
BRANCH  10  11
ATOM     11  C   UNL     1      -5.783   6.653   0.016  0.00  0.00    -0.039 C 
ATOM     12  C   UNL     1      -6.982   7.279   0.057  0.00  0.00    -0.001 A 
ATOM     13  C   UNL     1      -8.363   6.782   0.060  0.00  0.00    +0.010 A 
ATOM     14  C   UNL     1      -9.380   7.672   0.107  0.00  0.00    +0.001 A 
ATOM     15  C   UNL     1      -9.148   9.054   0.153  0.00  0.00    +0.002 A 
ATOM     16  C   UNL     1      -7.908   9.586   0.153  0.00  0.00    +0.026 A 
ATOM     17  C   UNL     1      -6.764   8.742   0.106  0.00  0.00    +0.043 A 
ATOM     18  N   UNL     1      -5.481   9.011   0.096  0.00  0.00    -0.380 N 
ATOM     19  C   UNL     1      -4.739   7.746   0.045  0.00  0.00    +0.144 C 
ATOM     20  H   UNL     1      -5.088   9.897   0.121  0.00  0.00    +0.160 HD
ENDBRANCH  10  11
ENDBRANCH   5  10
ENDBRANCH   1   2
BRANCH   1  22
ATOM     21  N   UNL     1      -2.142  -0.048  -1.174  0.00  0.00    -0.307 N 
ATOM     22  C   UNL     1      -2.727   1.166  -1.160  0.00  0.00    +0.231 C 
ATOM     23  O   UNL     1      -2.667   1.857  -0.165  0.00  0.00    -0.274 OA
ATOM     24  H   UNL     1      -2.190  -0.601  -1.970  0.00  0.00    +0.149 HD
BRANCH  21  25
ATOM     25  C   UNL     1      -1.433  -0.534   0.013  0.00  0.00    +0.106 C 
BRANCH  25  26
ATOM     26  C   UNL     1      -1.413  -2.041   0.005  0.00  0.00    -0.023 A 
ATOM     27  C   UNL     1      -1.201  -2.720  -1.181  0.00  0.00    +0.009 A 
ATOM     28  C   UNL     1      -1.181  -4.103  -1.196  0.00  0.00    +0.050 A 
ATOM     29  C   UNL     1      -1.373  -4.806  -0.018  0.00  0.00    +0.162 A 
ATOM     30  C   UNL     1      -1.585  -4.123   1.171  0.00  0.00    +0.162 A 
ATOM     31  C   UNL     1      -1.601  -2.739   1.184  0.00  0.00    +0.055 A 
ATOM     32  O   UNL     1      -1.772  -4.825   2.327  0.00  0.00    -0.488 OA
ATOM     33  C   UNL     1      -2.989  -5.571   2.415  0.00  0.00    +0.232 C 
ATOM     34  C   UNL     1      -2.839  -6.928   1.746  0.00  0.00    +0.082 C 
ATOM     35  C   UNL     1      -2.602  -6.813   0.249  0.00  0.00    +0.232 C 
ATOM     36  O   UNL     1      -1.353  -6.170  -0.019  0.00  0.00    -0.488 OA
ENDBRANCH  25  26
BRANCH  25  38
ATOM     37  C   UNL     1      -0.019   1.526   0.010  0.00  0.00    +0.009 C 
ATOM     38  C   UNL     1       0.002  -0.004   0.002  0.00  0.00    +0.008 C 
ATOM     39  C   UNL     1       0.742  -0.511   1.242  0.00  0.00    +0.009 C 
ENDBRANCH  25  38
ENDBRANCH  21  25
ENDBRANCH   1  22
TORSDOF 7
