REMARK  Name = ZINC14732044
REMARK  7 active torsions:
REMARK  status: ('A' for Active; 'I' for Inactive)
REMARK    1  A    between atoms: C_1  and  C_2
REMARK    2  A    between atoms: N_4  and  C_5
REMARK    3  A    between atoms: C_8  and  C_10
REMARK    4  A    between atoms: C_10  and  N_63
REMARK    5  A    between atoms: C_16  and  C_24
REMARK    6  A    between atoms: N_19  and  C_20
REMARK    7  A    between atoms: C_20  and  C_21
REMARK                            x       y       z     vdW  Elec       q    Type
REMARK                         _______ _______ _______ _____ _____    ______ ____
ROOT
ATOM      1  C   UNL     1       5.537   2.690   1.394  0.00  0.00    -0.072 C 
ATOM      2  C   UNL     1       5.809   3.129   2.832  0.00  0.00    +0.035 C 
ATOM      3  C   UNL     1       5.610   1.969   3.776  0.00  0.00    +0.022 A 
ATOM      4  C   UNL     1       4.926   0.863   3.408  0.00  0.00    -0.044 A 
ATOM      5  C   UNL     1       4.749  -0.187   4.323  0.00  0.00    +0.017 A 
ATOM      6  C   UNL     1       5.281  -0.080   5.597  0.00  0.00    +0.047 A 
ATOM      7  C   UNL     1       5.996   1.095   5.939  0.00  0.00    +0.259 A 
ATOM      8  O   UNL     1       6.479   1.218   7.052  0.00  0.00    -0.267 OA
ATOM      9  N   UNL     1       6.139   2.073   5.029  0.00  0.00    -0.311 N 
ATOM     10  C   UNL     1       4.335   0.704   2.031  0.00  0.00    -0.041 C 
ATOM     11  N   UNL     1       4.224   2.015   1.373  0.00  0.00    +0.386 N 
ATOM     12  H   UNL     1       3.542   2.590   1.882  0.00  0.00    -0.081 HD
ENDROOT
BRANCH   6  13
ATOM     13  C   UNL     1       5.108  -1.171   6.581  0.00  0.00    -0.005 A 
ATOM     14  C   UNL     1       6.165  -2.013   6.889  0.00  0.00    +0.009 A 
ATOM     15  C   UNL     1       6.008  -3.040   7.813  0.00  0.00    +0.001 A 
ATOM     16  C   UNL     1       4.816  -3.249   8.442  0.00  0.00    +0.010 A 
ATOM     17  C   UNL     1       3.720  -2.419   8.161  0.00  0.00    +0.001 A 
ATOM     18  C   UNL     1       3.865  -1.364   7.224  0.00  0.00    -0.007 A 
ATOM     19  C   UNL     1       2.754  -0.546   6.966  0.00  0.00    +0.029 A 
ATOM     20  C   UNL     1       1.589  -0.796   7.628  0.00  0.00    +0.111 A 
ATOM     21  N   UNL     1       1.480  -1.786   8.503  0.00  0.00    -0.263 NA
ATOM     22  C   UNL     1       2.474  -2.596   8.784  0.00  0.00    +0.119 A 
ENDBRANCH   6  13
BRANCH  11  23
ATOM     23  C   UNL     1       3.762   1.844  -0.024  0.00  0.00    -0.035 C 
BRANCH  23  27
ATOM     24  C   UNL     1       0.002  -0.004   0.002  0.00  0.00    +0.072 A 
ATOM     25  C   UNL     1      -0.016   1.358   0.009  0.00  0.00    +0.031 A 
ATOM     26  C   UNL     1       1.186   2.041   0.002  0.00  0.00    +0.011 A 
ATOM     27  C   UNL     1       2.343   1.336  -0.013  0.00  0.00    -0.025 A 
ATOM     28  S   UNL     1       1.754  -0.349  -0.017  0.00  0.00    -0.080 S 
BRANCH  24  32
ATOM     29  C   UNL     1      -1.999  -3.192   0.003  0.00  0.00    +0.109 C 
ATOM     30  C   UNL     1      -0.841  -2.227  -0.002  0.00  0.00    +0.214 C 
ATOM     31  O   UNL     1       0.297  -2.645  -0.015  0.00  0.00    -0.276 OA
ATOM     32  N   UNL     1      -1.071  -0.899   0.007  0.00  0.00    -0.280 N 
ATOM     33  H   UNL     1      -1.982  -0.564   0.017  0.00  0.00    +0.155 HD
ENDBRANCH  24  32
ENDBRANCH  23  27
ENDBRANCH  11  23
BRANCH   9  34
ATOM     34  C   UNL     1       6.883   3.283   5.392  0.00  0.00    +0.128 C 
BRANCH  34  35
ATOM     35  C   UNL     1       8.362   3.092   5.053  0.00  0.00    +0.009 C 
ATOM     36  C   UNL     1       9.360   3.102   6.213  0.00  0.00    +0.005 C 
ATOM     37  C   UNL     1       9.292   4.291   5.251  0.00  0.00    +0.005 C 
ENDBRANCH  34  35
ENDBRANCH   9  34
TORSDOF 6
