REMARK  Name = ZINC36341822
REMARK  6 active torsions:
REMARK  status: ('A' for Active; 'I' for Inactive)
REMARK    1  A    between atoms: C_4  and  C_7
REMARK    2  A    between atoms: C_7  and  N_8
REMARK    3  A    between atoms: N_11  and  C_14
REMARK    4  A    between atoms: C_14  and  C_15
REMARK    5  A    between atoms: C_18  and  C_30
REMARK    6  A    between atoms: C_21  and  C_23
REMARK                            x       y       z     vdW  Elec       q    Type
REMARK                         _______ _______ _______ _____ _____    ______ ____
ROOT
ATOM      1  C   UNL     1       6.872  -3.436   4.896  0.00  0.00    +0.219 C 
ATOM      2  O   UNL     1       7.424  -3.713   3.852  0.00  0.00    -0.276 OA
ATOM      3  N   UNL     1       7.474  -3.711   6.070  0.00  0.00    -0.187 N 
ATOM      4  C   UNL     1       8.796  -4.337   6.228  0.00  0.00    +0.137 C 
ATOM      5  C   UNL     1       8.981  -4.411   7.757  0.00  0.00    +0.087 C 
ATOM      6  C   UNL     1       7.711  -3.802   8.307  0.00  0.00    +0.072 C 
ATOM      7  N   UNL     1       6.948  -3.444   7.333  0.00  0.00    -0.181 NA
ENDROOT
BRANCH   4   8
ATOM      8  C   UNL     1       9.866  -3.482   5.602  0.00  0.00    -0.021 A 
ATOM      9  C   UNL     1       9.803  -2.105   5.714  0.00  0.00    +0.009 A 
ATOM     10  C   UNL     1      10.782  -1.316   5.141  0.00  0.00    +0.050 A 
ATOM     11  C   UNL     1      11.831  -1.903   4.452  0.00  0.00    +0.166 A 
ATOM     12  C   UNL     1      11.896  -3.290   4.339  0.00  0.00    +0.167 A 
ATOM     13  C   UNL     1      10.913  -4.075   4.921  0.00  0.00    +0.055 A 
ATOM     14  O   UNL     1      13.010  -3.618   3.623  0.00  0.00    -0.453 OA
ATOM     15  C   UNL     1      13.405  -2.407   2.951  0.00  0.00    +0.466 C 
ATOM     16  O   UNL     1      12.906  -1.362   3.807  0.00  0.00    -0.453 OA
ENDBRANCH   4   8
BRANCH   6  17
ATOM     17  C   UNL     1       7.396  -3.639   9.738  0.00  0.00    +0.033 A 
ATOM     18  C   UNL     1       8.309  -4.057  10.710  0.00  0.00    +0.012 A 
ATOM     19  C   UNL     1       8.008  -3.901  12.046  0.00  0.00    +0.001 A 
ATOM     20  C   UNL     1       6.805  -3.333  12.428  0.00  0.00    +0.003 A 
ATOM     21  C   UNL     1       5.895  -2.917  11.474  0.00  0.00    +0.039 A 
ATOM     22  C   UNL     1       6.184  -3.060  10.130  0.00  0.00    +0.132 A 
ATOM     23  F   UNL     1       5.298  -2.648   9.198  0.00  0.00    -0.205 F 
ENDBRANCH   6  17
BRANCH   1  24
ATOM     24  C   UNL     1       5.513  -2.784   4.880  0.00  0.00    +0.021 C 
BRANCH  24  28
ATOM     25  N   UNL     1       4.153  -0.953   1.342  0.00  0.00    -0.302 NA
ATOM     26  C   UNL     1       3.246  -1.885   2.027  0.00  0.00    +0.066 C 
ATOM     27  C   UNL     1       3.706  -2.068   3.475  0.00  0.00    -0.063 C 
ATOM     28  N   UNL     1       5.078  -2.592   3.490  0.00  0.00    +0.387 N 
ATOM     29  C   UNL     1       5.976  -1.639   2.824  0.00  0.00    -0.063 C 
ATOM     30  C   UNL     1       5.535  -1.453   1.371  0.00  0.00    +0.066 C 
ATOM     31  H   UNL     1       5.106  -3.476   3.005  0.00  0.00    -0.081 HD
BRANCH  25  32
ATOM     32  C   UNL     1       3.711  -0.707  -0.038  0.00  0.00    +0.119 C 
BRANCH  32  36
ATOM     33  C   UNL     1      -0.017   1.378   0.010  0.00  0.00    +0.000 A 
ATOM     34  C   UNL     1       1.171   2.086   0.002  0.00  0.00    +0.000 A 
ATOM     35  C   UNL     1       2.377   1.411  -0.013  0.00  0.00    +0.005 A 
ATOM     36  C   UNL     1       2.396   0.029  -0.020  0.00  0.00    -0.033 A 
ATOM     37  C   UNL     1       1.208  -0.679  -0.012  0.00  0.00    +0.005 A 
ATOM     38  C   UNL     1       0.002  -0.004   0.002  0.00  0.00    +0.000 A 
ENDBRANCH  32  36
ENDBRANCH  25  32
ENDBRANCH  24  28
ENDBRANCH   1  24
TORSDOF 6
