REMARK  Name = ZINC33757582
REMARK  15 active torsions:
REMARK  status: ('A' for Active; 'I' for Inactive)
REMARK    1  A    between atoms: C_1  and  C_2
REMARK    2  A    between atoms: C_2  and  C_4
REMARK    3  A    between atoms: C_2  and  N_19
REMARK    4  A    between atoms: N_14  and  C_15
REMARK    5  A    between atoms: C_15  and  C_16
REMARK    6  A    between atoms: C_16  and  O_17
REMARK    7  A    between atoms: O_17  and  C_18
REMARK    8  A    between atoms: N_19  and  C_20
REMARK    9  A    between atoms: C_20  and  C_21
REMARK   10  A    between atoms: C_21  and  C_22
REMARK   11  A    between atoms: C_22  and  C_23
REMARK   12  A    between atoms: C_23  and  C_24
REMARK   13  A    between atoms: C_24  and  C_25
REMARK   14  A    between atoms: C_25  and  N_26
REMARK   15  A    between atoms: C_27  and  C_29
REMARK                            x       y       z     vdW  Elec       q    Type
REMARK                         _______ _______ _______ _____ _____    ______ ____
ROOT
ATOM      1  N   UNL     1       2.808  -3.280  -0.429  0.00  0.00    -0.288 N 
ATOM      2  C   UNL     1       2.297  -2.889  -1.614  0.00  0.00    +0.247 C 
ATOM      3  O   UNL     1       3.010  -2.345  -2.434  0.00  0.00    -0.270 OA
ENDROOT
BRANCH   2   4
ATOM      4  C   UNL     1       0.869  -3.123  -1.915  0.00  0.00    +0.037 A 
ATOM      5  C   UNL     1       0.163  -2.218  -2.711  0.00  0.00    +0.014 A 
ATOM      6  C   UNL     1      -1.169  -2.441  -2.988  0.00  0.00    +0.016 A 
ATOM      7  C   UNL     1      -1.807  -3.560  -2.479  0.00  0.00    +0.018 A 
ATOM      8  C   UNL     1      -1.113  -4.461  -1.690  0.00  0.00    +0.016 A 
ATOM      9  C   UNL     1       0.220  -4.249  -1.405  0.00  0.00    +0.014 A 
ATOM     10 BR   UNL     1      -3.634  -3.859  -2.864  0.00  0.00    -0.050 Br
ENDBRANCH   2   4
BRANCH   1  12
ATOM     11  C   UNL     1       1.230  -4.680   0.808  0.00  0.00    +0.036 C 
ATOM     12  C   UNL     1       2.565  -4.639   0.061  0.00  0.00    +0.139 C 
BRANCH  12  13
ATOM     13  C   UNL     1       2.518  -5.592  -1.105  0.00  0.00    +0.133 A 
ATOM     14  N   UNL     1       1.603  -6.513  -1.111  0.00  0.00    -0.232 NA
ATOM     15  C   UNL     1       1.496  -7.403  -2.129  0.00  0.00    +0.078 A 
ATOM     16  C   UNL     1       0.508  -8.390  -2.139  0.00  0.00    +0.028 A 
ATOM     17  C   UNL     1       0.440  -9.276  -3.191  0.00  0.00    +0.002 A 
ATOM     18  C   UNL     1       1.341  -9.200  -4.244  0.00  0.00    +0.001 A 
ATOM     19  C   UNL     1       2.325  -8.236  -4.257  0.00  0.00    +0.015 A 
ATOM     20  C   UNL     1       2.411  -7.330  -3.202  0.00  0.00    +0.065 A 
ATOM     21  C   UNL     1       3.439  -6.279  -3.162  0.00  0.00    +0.262 A 
ATOM     22  O   UNL     1       4.258  -6.160  -4.055  0.00  0.00    -0.267 OA
ATOM     23  N   UNL     1       3.439  -5.448  -2.093  0.00  0.00    -0.292 N 
BRANCH  23  24
ATOM     24  C   UNL     1       4.441  -4.383  -2.002  0.00  0.00    +0.154 C 
BRANCH  24  25
ATOM     25  C   UNL     1       5.661  -4.896  -1.233  0.00  0.00    +0.181 C 
BRANCH  25  26
ATOM     26  O   UNL     1       6.303  -5.923  -1.990  0.00  0.00    -0.381 OA
ATOM     27  C   UNL     1       7.461  -6.473  -1.358  0.00  0.00    +0.194 C 
ENDBRANCH  25  26
ENDBRANCH  24  25
ENDBRANCH  23  24
ENDBRANCH  12  13
ENDBRANCH   1  12
BRANCH   1  28
ATOM     28  C   UNL     1       3.607  -2.345   0.368  0.00  0.00    +0.109 C 
BRANCH  28  29
ATOM     29  C   UNL     1       2.677  -1.470   1.210  0.00  0.00    +0.019 C 
BRANCH  29  30
ATOM     30  C   UNL     1       3.511  -0.494   2.042  0.00  0.00    +0.001 C 
BRANCH  30  31
ATOM     31  C   UNL     1       2.582   0.382   2.885  0.00  0.00    -0.002 C 
BRANCH  31  32
ATOM     32  C   UNL     1       3.416   1.358   3.717  0.00  0.00    -0.020 C 
BRANCH  32  33
ATOM     33  C   UNL     1       2.486   2.234   4.560  0.00  0.00    -0.086 C 
BRANCH  33  34
ATOM     34  N   UNL     1       3.287   3.171   5.359  0.00  0.00    +0.378 N 
ATOM     35  H   UNL     1       2.619   3.800   5.965  0.00  0.00    -0.090 HD
ATOM     36  H   UNL     1       3.883   3.807   4.689  0.00  0.00    -0.090 HD
ATOM     37  H   UNL     1       3.959   2.606   6.022  0.00  0.00    -0.090 HD
ENDBRANCH  33  34
ENDBRANCH  32  33
ENDBRANCH  31  32
ENDBRANCH  30  31
ENDBRANCH  29  30
ENDBRANCH  28  29
ENDBRANCH   1  28
TORSDOF 13
