REMARK  Name = ZINC04525587
REMARK  7 active torsions:
REMARK  status: ('A' for Active; 'I' for Inactive)
REMARK    1  A    between atoms: C_1  and  C_2
REMARK    2  A    between atoms: C_10  and  C_11
REMARK    3  A    between atoms: C_11  and  O_13
REMARK    4  A    between atoms: O_13  and  C_14
REMARK    5  A    between atoms: C_14  and  C_16
REMARK    6  A    between atoms: C_14  and  C_17
REMARK    7  A    between atoms: N_22  and  C_23
REMARK                            x       y       z     vdW  Elec       q    Type
REMARK                         _______ _______ _______ _____ _____    ______ ____
ROOT
ATOM      1  C   UNL     1      -0.034  -0.705   2.285  0.00  0.00    +0.376 C 
ATOM      2  O   UNL     1      -1.233  -0.501   2.267  0.00  0.00    -0.241 OA
ENDROOT
BRANCH   1  12
ATOM      3  C   UNL     1      -1.505  -1.290   4.962  0.00  0.00    +0.048 C 
ATOM      4  C   UNL     1      -0.033  -1.448   4.682  0.00  0.00    +0.010 A 
ATOM      5  C   UNL     1       0.995  -1.909   5.615  0.00  0.00    +0.025 A 
ATOM      6  C   UNL     1       0.984  -2.321   6.949  0.00  0.00    +0.027 A 
ATOM      7  C   UNL     1       2.152  -2.701   7.550  0.00  0.00    +0.019 A 
ATOM      8  C   UNL     1       3.347  -2.681   6.842  0.00  0.00    +0.019 A 
ATOM      9  C   UNL     1       3.378  -2.278   5.525  0.00  0.00    +0.048 A 
ATOM     10  C   UNL     1       2.203  -1.886   4.893  0.00  0.00    +0.136 A 
ATOM     11  O   UNL     1       1.925  -1.458   3.646  0.00  0.00    -0.448 OA
ATOM     12  C   UNL     1       0.609  -1.192   3.512  0.00  0.00    +0.216 A 
ATOM     13 BR   UNL     1       2.140  -3.258   9.357  0.00  0.00    -0.050 Br
ENDBRANCH   1  12
BRANCH   1  14
ATOM     14  O   UNL     1       0.704  -0.485   1.178  0.00  0.00    -0.447 OA
BRANCH  14  15
ATOM     15  C   UNL     1       0.002  -0.004   0.002  0.00  0.00    +0.259 C 
ATOM     16  C   UNL     1      -0.019   1.526   0.010  0.00  0.00    +0.062 C 
BRANCH  15  17
ATOM     17  C   UNL     1       0.707  -0.490  -1.238  0.00  0.00    +0.261 C 
ATOM     18  O   UNL     1       1.753  -1.097  -1.142  0.00  0.00    -0.271 OA
ATOM     19  N   UNL     1       0.176  -0.250  -2.453  0.00  0.00    -0.237 N 
ATOM     20  C   UNL     1       0.807  -0.685  -3.562  0.00  0.00    +0.306 C 
ATOM     21  O   UNL     1       1.855  -1.293  -3.466  0.00  0.00    -0.252 OA
ATOM     22  N   UNL     1       0.276  -0.445  -4.777  0.00  0.00    -0.302 N 
ATOM     23  C   UNL     1       0.962  -0.917  -5.983  0.00  0.00    +0.129 C 
ATOM     24  H   UNL     1      -0.660   0.235  -2.530  0.00  0.00    +0.159 HD
ATOM     25  H   UNL     1      -0.560   0.041  -4.854  0.00  0.00    +0.150 HD
ENDBRANCH  15  17
ENDBRANCH  14  15
ENDBRANCH   1  14
TORSDOF 4
