REMARK  Name = ZINC34923702
REMARK  10 active torsions:
REMARK  status: ('A' for Active; 'I' for Inactive)
REMARK    1  A    between atoms: C_1  and  C_2
REMARK    2  A    between atoms: C_3  and  C_31
REMARK    3  A    between atoms: C_4  and  C_24
REMARK    4  A    between atoms: C_7  and  C_12
REMARK    5  A    between atoms: C_13  and  N_15
REMARK    6  A    between atoms: N_15  and  C_16
REMARK    7  A    between atoms: N_15  and  C_17
REMARK    8  A    between atoms: N_21  and  C_23
REMARK    9  A    between atoms: C_31  and  O_33
REMARK   10  A    between atoms: O_33  and  C_34
REMARK                            x       y       z     vdW  Elec       q    Type
REMARK                         _______ _______ _______ _____ _____    ______ ____
ROOT
ATOM      1  C   UNL     1       0.300   1.291   0.679  0.00  0.00    +0.066 C 
ATOM      2  C   UNL     1       0.242  -0.172   0.322  0.00  0.00    +0.053 C 
ATOM      3  C   UNL     1      -0.981  -0.809   0.234  0.00  0.00    +0.082 C 
ATOM      4  C   UNL     1      -0.987  -2.277  -0.128  0.00  0.00    +0.150 C 
ATOM      5  N   UNL     1       0.333  -2.922  -0.361  0.00  0.00    -0.267 N 
ATOM      6  C   UNL     1       0.566  -4.240  -0.699  0.00  0.00    +0.048 C 
ATOM      7  C   UNL     1       1.850  -4.627  -0.867  0.00  0.00    +0.072 C 
ATOM      8  S   UNL     1       2.736  -3.116  -0.543  0.00  0.00    -0.060 S 
ATOM      9  C   UNL     1       1.427  -2.115  -0.223  0.00  0.00    +0.166 C 
ATOM     10  N   UNL     1       1.363  -0.837   0.091  0.00  0.00    -0.230 NA
ENDROOT
BRANCH   4  11
ATOM     11  C   UNL     1      -1.678  -3.026   0.982  0.00  0.00    -0.021 A 
ATOM     12  C   UNL     1      -1.030  -3.231   2.186  0.00  0.00    +0.006 A 
ATOM     13  C   UNL     1      -1.664  -3.918   3.205  0.00  0.00    +0.002 A 
ATOM     14  C   UNL     1      -2.946  -4.400   3.020  0.00  0.00    +0.020 A 
ATOM     15  C   UNL     1      -3.595  -4.194   1.816  0.00  0.00    +0.041 A 
ATOM     16  C   UNL     1      -2.963  -3.502   0.799  0.00  0.00    +0.025 A 
ATOM     17 CL   UNL     1      -5.206  -4.799   1.583  0.00  0.00    -0.084 Cl
ENDBRANCH   4  11
BRANCH   6  18
ATOM     18  C   UNL     1      -0.543  -5.189  -0.871  0.00  0.00    +0.091 C 
ATOM     19  C   UNL     1      -0.287  -6.496  -1.073  0.00  0.00    +0.241 C 
ATOM     20  O   UNL     1       0.985  -6.957  -0.992  0.00  0.00    -0.271 OA
BRANCH  19  21
ATOM     21  N   UNL     1      -1.323  -7.368  -1.362  0.00  0.00    -0.300 N 
ATOM     22  C   UNL     1      -2.711  -6.909  -1.282  0.00  0.00    +0.132 C 
BRANCH  21  23
ATOM     23  C   UNL     1      -1.030  -8.751  -1.749  0.00  0.00    +0.058 C 
ATOM     24  C   UNL     1      -1.850  -9.735  -0.884  0.00  0.00    +0.002 C 
ATOM     25  C   UNL     1      -3.071 -10.052  -1.783  0.00  0.00    -0.077 C 
ATOM     26  N   UNL     1      -2.486 -10.100  -3.147  0.00  0.00    +0.379 N 
ATOM     27  C   UNL     1      -1.485  -9.009  -3.197  0.00  0.00    -0.057 C 
ATOM     28  C   UNL     1      -3.530  -9.876  -4.155  0.00  0.00    -0.096 C 
ATOM     29  H   UNL     1      -2.036 -10.990  -3.301  0.00  0.00    -0.082 HD
ENDBRANCH  21  23
ENDBRANCH  19  21
ENDBRANCH   6  18
BRANCH   3  30
ATOM     30  C   UNL     1      -2.175  -0.118   0.472  0.00  0.00    +0.339 C 
ATOM     31  O   UNL     1      -2.147   1.065   0.762  0.00  0.00    -0.245 OA
BRANCH  30  32
ATOM     32  O   UNL     1      -3.359  -0.763   0.379  0.00  0.00    -0.465 OA
ATOM     33  C   UNL     1      -4.537   0.004   0.634  0.00  0.00    +0.280 C 
ENDBRANCH  30  32
ENDBRANCH   3  30
TORSDOF 6
