REMARK  Name = ZINC20601401
REMARK  8 active torsions:
REMARK  status: ('A' for Active; 'I' for Inactive)
REMARK    1  A    between atoms: C_1  and  C_2
REMARK    2  A    between atoms: C_2  and  C_3
REMARK    3  A    between atoms: C_2  and  C_4
REMARK    4  A    between atoms: C_2  and  N_29
REMARK    5  A    between atoms: C_4  and  N_5
REMARK    6  A    between atoms: N_5  and  C_6
REMARK    7  A    between atoms: N_17  and  C_20
REMARK    8  A    between atoms: C_20  and  C_21
REMARK                            x       y       z     vdW  Elec       q    Type
REMARK                         _______ _______ _______ _____ _____    ______ ____
ROOT
ATOM      1  C   UNL     1       0.043   1.608  -0.015  0.00  0.00    -0.067 C 
ATOM      2  C   UNL     1       0.111   0.078  -0.036  0.00  0.00    -0.011 C 
ATOM      3  C   UNL     1       0.602  -0.401  -1.403  0.00  0.00    +0.035 C 
ATOM      4  C   UNL     1       1.905   0.317  -1.741  0.00  0.00    -0.023 A 
ATOM      5  C   UNL     1       2.248   1.458  -1.097  0.00  0.00    -0.006 A 
ATOM      6  S   UNL     1       3.809   1.934  -1.795  0.00  0.00    -0.073 S 
ATOM      7  C   UNL     1       3.997   0.609  -2.946  0.00  0.00    +0.116 A 
ATOM      8  C   UNL     1       2.833  -0.166  -2.747  0.00  0.00    +0.076 A 
ATOM      9  C   UNL     1       2.689  -1.343  -3.556  0.00  0.00    +0.263 A 
ATOM     10  O   UNL     1       1.723  -2.080  -3.462  0.00  0.00    -0.267 OA
ATOM     11  N   UNL     1       3.696  -1.583  -4.429  0.00  0.00    -0.294 N 
ATOM     12  C   UNL     1       4.779  -0.777  -4.549  0.00  0.00    +0.203 A 
ATOM     13  N   UNL     1       4.947   0.308  -3.826  0.00  0.00    -0.230 NA
ATOM     14  C   UNL     1       1.475   2.163  -0.026  0.00  0.00    +0.027 C 
ENDROOT
BRANCH   1  15
ATOM     15  N   UNL     1      -0.649   2.054   1.202  0.00  0.00    +0.382 N 
ATOM     16  H   UNL     1       0.079   2.099   2.025  0.00  0.00    -0.085 HD
ATOM     17  H   UNL     1      -1.435   1.324   1.448  0.00  0.00    -0.085 HD
BRANCH  15  18
ATOM     18  C   UNL     1      -1.253   3.378   1.008  0.00  0.00    -0.060 C 
BRANCH  18  20
ATOM     19  C   UNL     1      -2.467   5.245   2.143  0.00  0.00    +0.025 C 
ATOM     20  C   UNL     1      -1.963   3.808   2.294  0.00  0.00    +0.001 C 
ATOM     21  C   UNL     1      -3.149   2.877   2.557  0.00  0.00    +0.025 C 
BRANCH  20  22
ATOM     22  N   UNL     1      -1.023   3.734   3.421  0.00  0.00    -0.295 NA
ATOM     23  C   UNL     1      -1.712   3.972   4.697  0.00  0.00    +0.113 C 
ATOM     24  C   UNL     1      -0.710   3.828   5.846  0.00  0.00    +0.175 C 
ATOM     25  O   UNL     1       0.378   4.733   5.640  0.00  0.00    -0.377 OA
ATOM     26  C   UNL     1       1.071   4.529   4.406  0.00  0.00    +0.175 C 
ATOM     27  C   UNL     1       0.087   4.680   3.243  0.00  0.00    +0.113 C 
ENDBRANCH  20  22
ENDBRANCH  18  20
ENDBRANCH  15  18
ENDBRANCH   1  15
BRANCH  11  28
ATOM     28  C   UNL     1       3.611  -2.769  -5.285  0.00  0.00    +0.161 C 
BRANCH  28  29
ATOM     29  C   UNL     1       4.258  -3.938  -4.590  0.00  0.00    -0.026 A 
ATOM     30  C   UNL     1       5.604  -4.194  -4.774  0.00  0.00    +0.005 A 
ATOM     31  C   UNL     1       6.200  -5.263  -4.133  0.00  0.00    +0.002 A 
ATOM     32  C   UNL     1       5.447  -6.085  -3.314  0.00  0.00    +0.020 A 
ATOM     33  C   UNL     1       4.099  -5.833  -3.134  0.00  0.00    +0.041 A 
ATOM     34  C   UNL     1       3.505  -4.759  -3.772  0.00  0.00    +0.025 A 
ATOM     35 CL   UNL     1       3.153  -6.865  -2.106  0.00  0.00    -0.084 Cl
ENDBRANCH  28  29
ENDBRANCH  11  28
TORSDOF 6
