REMARK  Name = ZINC20182130
REMARK  3 active torsions:
REMARK  status: ('A' for Active; 'I' for Inactive)
REMARK    1  A    between atoms: C_1  and  C_2
REMARK    2  A    between atoms: N_17  and  C_18
REMARK    3  A    between atoms: C_22  and  C_24
REMARK                            x       y       z     vdW  Elec       q    Type
REMARK                         _______ _______ _______ _____ _____    ______ ____
ROOT
ATOM      1  C   UNL     1       4.388   0.903   1.982  0.00  0.00    +0.042 A 
ATOM      2  C   UNL     1       4.496  -0.294   1.284  0.00  0.00    +0.024 A 
ATOM      3  C   UNL     1       4.870  -1.451   1.941  0.00  0.00    +0.003 A 
ATOM      4  C   UNL     1       5.138  -1.425   3.295  0.00  0.00    +0.013 A 
ATOM      5  C   UNL     1       5.032  -0.228   4.005  0.00  0.00    +0.039 A 
ATOM      6  C   UNL     1       4.659   0.941   3.340  0.00  0.00    +0.036 A 
ENDROOT
BRANCH   1  22
ATOM      7  C   UNL     1       1.712   1.248   1.293  0.00  0.00    +0.079 C 
ATOM      8  C   UNL     1       2.609   2.486   1.345  0.00  0.00    +0.185 C 
ATOM      9  C   UNL     1       2.315   3.380   0.131  0.00  0.00    +0.096 C 
ATOM     10  C   UNL     1       3.328   4.535   0.172  0.00  0.00    +0.114 C 
ATOM     11  C   UNL     1       3.236   5.197   1.529  0.00  0.00    +0.016 A 
ATOM     12  C   UNL     1       3.648   6.511   1.662  0.00  0.00    +0.029 A 
ATOM     13  C   UNL     1       3.590   7.136   2.895  0.00  0.00    +0.042 A 
ATOM     14  C   UNL     1       3.112   6.446   3.996  0.00  0.00    +0.023 A 
ATOM     15  C   UNL     1       2.703   5.135   3.866  0.00  0.00    +0.047 A 
ATOM     16  C   UNL     1       2.757   4.504   2.626  0.00  0.00    +0.128 A 
ATOM     17  O   UNL     1       2.325   3.220   2.532  0.00  0.00    -0.468 OA
ATOM     18 CL   UNL     1       4.108   8.784   3.059  0.00  0.00    -0.084 Cl
ATOM     19  N   UNL     1       4.674   3.950   0.059  0.00  0.00    -0.292 N 
ATOM     20  C   UNL     1       4.945   2.779   0.658  0.00  0.00    +0.310 C 
ATOM     21  O   UNL     1       6.078   2.342   0.606  0.00  0.00    -0.252 OA
ATOM     22  N   UNL     1       4.010   2.072   1.311  0.00  0.00    -0.216 N 
ATOM     23  H   UNL     1       5.454   4.472  -0.515  0.00  0.00    +0.151 HD
ENDBRANCH   1  22
BRANCH   5  24
ATOM     24  C   UNL     1       5.318  -0.198   5.455  0.00  0.00    +0.247 C 
ATOM     25  O   UNL     1       4.577   0.403   6.208  0.00  0.00    -0.270 OA
ATOM     26  N   UNL     1       6.402  -0.835   5.941  0.00  0.00    -0.295 N 
ATOM     27  C   UNL     1       7.264  -1.638   5.061  0.00  0.00    +0.127 C 
ATOM     28  C   UNL     1       8.719  -1.187   5.270  0.00  0.00    +0.125 C 
ATOM     29  N   UNL     1       9.049  -1.264   6.699  0.00  0.00    -0.314 N 
ATOM     30  C   UNL     1       8.220  -0.342   7.488  0.00  0.00    +0.125 C 
ATOM     31  C   UNL     1       6.749  -0.752   7.368  0.00  0.00    +0.127 C 
ATOM     32  C   UNL     1      10.401  -1.025   6.912  0.00  0.00    +0.099 A 
ATOM     33  C   UNL     1      11.350  -1.799   6.251  0.00  0.00    +0.042 A 
ATOM     34  C   UNL     1      12.693  -1.550   6.472  0.00  0.00    +0.005 A 
ATOM     35  C   UNL     1      13.043  -0.531   7.349  0.00  0.00    +0.018 A 
ATOM     36  C   UNL     1      12.048   0.197   7.970  0.00  0.00    +0.084 A 
ATOM     37  N   UNL     1      10.775  -0.059   7.736  0.00  0.00    -0.350 N 
ATOM     38  H   UNL     1      10.017   0.553   8.246  0.00  0.00    +0.166 HD
ENDBRANCH   5  24
TORSDOF 2
