REMARK  Name = ZINC05106071
REMARK  7 active torsions:
REMARK  status: ('A' for Active; 'I' for Inactive)
REMARK    1  A    between atoms: C_1  and  C_2
REMARK    2  A    between atoms: C_2  and  O_3
REMARK    3  A    between atoms: O_3  and  C_4
REMARK    4  A    between atoms: C_17  and  C_20
REMARK    5  A    between atoms: N_22  and  C_23
REMARK    6  A    between atoms: C_23  and  C_24
REMARK    7  A    between atoms: C_24  and  C_25
REMARK                            x       y       z     vdW  Elec       q    Type
REMARK                         _______ _______ _______ _____ _____    ______ ____
ROOT
ATOM      1  C   UNL     1       1.176   1.790   0.000  0.00  0.00    +0.122 A 
ATOM      2  C   UNL     1       1.133   3.181   0.008  0.00  0.00    +0.048 A 
ATOM      3  C   UNL     1      -0.059   3.859   0.022  0.00  0.00    +0.032 A 
ATOM      4  C   UNL     1      -1.288   3.161   0.029  0.00  0.00    +0.081 A 
ATOM      5  C   UNL     1      -1.208   1.751   0.017  0.00  0.00    +0.044 A 
ATOM      6  C   UNL     1      -0.013   1.076   0.008  0.00  0.00    +0.063 A 
ATOM      7  S   UNL     1      -2.919   1.273   0.023  0.00  0.00    -0.052 S 
ATOM      8  C   UNL     1      -3.612   2.920   0.034  0.00  0.00    +0.162 A 
ATOM      9  N   UNL     1      -2.539   3.676   0.042  0.00  0.00    -0.225 NA
ATOM     10  N   UNL     1      -4.940   3.301   0.043  0.00  0.00    -0.309 N 
ATOM     11  C   UNL     1      -5.653   2.700   1.177  0.00  0.00    +0.107 C 
ATOM     12  C   UNL     1      -7.145   3.023   1.073  0.00  0.00    +0.020 C 
ATOM     13  C   UNL     1      -7.334   4.543   1.075  0.00  0.00    +0.016 C 
ATOM     14  C   UNL     1      -6.542   5.149  -0.087  0.00  0.00    +0.092 C 
ATOM     15  C   UNL     1      -5.067   4.764   0.050  0.00  0.00    +0.119 C 
ENDROOT
BRANCH  14  16
ATOM     16  C   UNL     1      -6.675   6.650  -0.057  0.00  0.00    +0.218 C 
ATOM     17  O   UNL     1      -7.340   7.183   0.805  0.00  0.00    -0.275 OA
ATOM     18  N   UNL     1      -6.054   7.400  -0.990  0.00  0.00    -0.315 N 
ATOM     19  H   UNL     1      -5.522   6.974  -1.680  0.00  0.00    +0.149 HD
BRANCH  18  20
ATOM     20  C   UNL     1      -6.184   8.859  -0.961  0.00  0.00    +0.108 C 
BRANCH  20  21
ATOM     21  C   UNL     1      -5.388   9.465  -2.119  0.00  0.00    +0.049 C 
BRANCH  21  22
ATOM     22  C   UNL     1      -5.521  10.966  -2.089  0.00  0.00    -0.072 C 
ATOM     23  C   UNL     1      -4.596  11.645  -1.490  0.00  0.00    -0.028 C 
ATOM     24  C   UNL     1      -4.596  13.141  -1.371  0.00  0.00    +0.027 C 
ATOM     25  C   UNL     1      -5.566  13.751  -2.385  0.00  0.00    +0.004 C 
ATOM     26  C   UNL     1      -6.909  13.019  -2.273  0.00  0.00    +0.005 C 
ATOM     27  C   UNL     1      -6.714  11.580  -2.761  0.00  0.00    +0.030 C 
ENDBRANCH  21  22
ENDBRANCH  20  21
ENDBRANCH  18  20
ENDBRANCH  14  16
BRANCH   1  28
ATOM     28  O   UNL     1       2.370   1.140  -0.013  0.00  0.00    -0.492 OA
BRANCH  28  30
ATOM     29  C   UNL     1       4.785   1.045  -0.036  0.00  0.00    +0.048 C 
ATOM     30  C   UNL     1       3.549   1.947  -0.021  0.00  0.00    +0.225 C 
ENDBRANCH  28  30
ENDBRANCH   1  28
TORSDOF 6
