REMARK  Name = ZINC49539733
REMARK  10 active torsions:
REMARK  status: ('A' for Active; 'I' for Inactive)
REMARK    1  A    between atoms: C_1  and  C_2
REMARK    2  A    between atoms: C_5  and  C_8
REMARK    3  A    between atoms: C_8  and  N_9
REMARK    4  A    between atoms: C_10  and  C_12
REMARK    5  A    between atoms: C_12  and  S_13
REMARK    6  A    between atoms: S_13  and  C_14
REMARK    7  A    between atoms: C_18  and  C_22
REMARK    8  A    between atoms: N_25  and  C_26
REMARK    9  A    between atoms: C_28  and  C_33
REMARK   10  A    between atoms: C_31  and  C_32
REMARK                            x       y       z     vdW  Elec       q    Type
REMARK                         _______ _______ _______ _____ _____    ______ ____
ROOT
ATOM      1  C   UNL     1       4.876  -8.769  -0.073  0.00  0.00    +0.177 A 
ATOM      2  N   UNL     1       5.741  -7.780  -0.067  0.00  0.00    -0.201 NA
ATOM      3  C   UNL     1       7.067  -8.018  -0.075  0.00  0.00    +0.187 A 
ATOM      4  C   UNL     1       7.516  -9.421  -0.091  0.00  0.00    +0.079 A 
ATOM      5  C   UNL     1       8.893  -9.395  -0.097  0.00  0.00    +0.046 A 
ATOM      6  N   UNL     1       9.277  -8.111  -0.087  0.00  0.00    -0.279 N 
ATOM      7  N   UNL     1       8.153  -7.276  -0.073  0.00  0.00    -0.153 NA
ATOM      8  H   UNL     1      10.198  -7.805  -0.088  0.00  0.00    +0.189 HD
ATOM      9  C   UNL     1       9.805 -10.594  -0.113  0.00  0.00    +0.066 C 
ATOM     10  C   UNL     1       6.487 -10.458  -0.096  0.00  0.00    +0.115 A 
ATOM     11  N   UNL     1       6.820 -11.792  -0.110  0.00  0.00    -0.344 N 
ATOM     12  N   UNL     1       5.214 -10.064  -0.082  0.00  0.00    -0.276 N 
ATOM     13  H   UNL     1       7.752 -12.060  -0.117  0.00  0.00    +0.144 HD
ATOM     14  H   UNL     1       6.122 -12.466  -0.114  0.00  0.00    +0.144 HD
ENDROOT
BRANCH  12  15
ATOM     15  C   UNL     1       4.218 -11.017  -0.081  0.00  0.00    +0.053 A 
ATOM     16  C   UNL     1       3.709 -11.498  -1.287  0.00  0.00    +0.030 A 
ATOM     17  C   UNL     1       2.712 -12.451  -1.280  0.00  0.00    -0.048 A 
ATOM     18  C   UNL     1       2.217 -12.930  -0.081  0.00  0.00    +0.004 A 
ATOM     19  C   UNL     1       2.717 -12.456   1.119  0.00  0.00    +0.005 A 
ATOM     20  C   UNL     1       3.719 -11.506   1.124  0.00  0.00    -0.026 A 
ATOM     21  C   UNL     1       4.268 -10.996   2.432  0.00  0.00    +0.046 C 
ATOM     22  C   UNL     1       2.161 -12.972  -2.583  0.00  0.00    +0.044 C 
ENDBRANCH  12  15
BRANCH   1  23
ATOM     23  S   UNL     1       3.161  -8.365  -0.061  0.00  0.00    -0.078 S 
BRANCH  23  24
ATOM     24  C   UNL     1       3.137  -6.551  -0.051  0.00  0.00    +0.173 C 
BRANCH  24  26
ATOM     25  N   UNL     1       1.447  -4.746  -0.032  0.00  0.00    -0.311 N 
ATOM     26  C   UNL     1       1.710  -6.067  -0.040  0.00  0.00    +0.224 C 
ATOM     27  O   UNL     1       0.799  -6.867  -0.040  0.00  0.00    -0.275 OA
ATOM     28  H   UNL     1       2.176  -4.106  -0.032  0.00  0.00    +0.149 HD
BRANCH  25  29
ATOM     29  C   UNL     1       0.059  -4.275  -0.021  0.00  0.00    +0.139 C 
BRANCH  29  34
ATOM     30  C   UNL     1      -0.018   1.503   0.010  0.00  0.00    +0.044 C 
ATOM     31  C   UNL     1       0.002  -0.004   0.002  0.00  0.00    -0.050 A 
ATOM     32  C   UNL     1       0.006  -0.689  -1.199  0.00  0.00    +0.003 A 
ATOM     33  C   UNL     1       0.025  -2.071  -1.206  0.00  0.00    +0.005 A 
ATOM     34  C   UNL     1       0.040  -2.768  -0.013  0.00  0.00    -0.030 A 
ATOM     35  C   UNL     1       0.037  -2.084   1.188  0.00  0.00    +0.005 A 
ATOM     36  C   UNL     1       0.023  -0.702   1.195  0.00  0.00    +0.003 A 
ENDBRANCH  29  34
ENDBRANCH  25  29
ENDBRANCH  24  26
ENDBRANCH  23  24
ENDBRANCH   1  23
TORSDOF 6
