REMARK  Name = ZINC34830407
REMARK  8 active torsions:
REMARK  status: ('A' for Active; 'I' for Inactive)
REMARK    1  A    between atoms: C_1  and  C_2
REMARK    2  A    between atoms: C_7  and  C_8
REMARK    3  A    between atoms: N_17  and  C_18
REMARK    4  A    between atoms: C_18  and  C_20
REMARK    5  A    between atoms: C_18  and  C_21
REMARK    6  A    between atoms: C_30  and  C_32
REMARK    7  A    between atoms: C_32  and  O_33
REMARK    8  A    between atoms: O_33  and  C_34
REMARK                            x       y       z     vdW  Elec       q    Type
REMARK                         _______ _______ _______ _____ _____    ______ ____
ROOT
ATOM      1  C   UNL     1       1.906  -0.983   3.065  0.00  0.00    +0.018 C 
ATOM      2  C   UNL     1       2.684  -2.053   3.835  0.00  0.00    -0.004 C 
ENDROOT
BRANCH   1   3
ATOM      3  C   UNL     1       1.773  -1.400   1.623  0.00  0.00    +0.202 C 
ATOM      4  O   UNL     1       0.766  -1.959   1.244  0.00  0.00    -0.277 OA
ATOM      5  N   UNL     1       2.773  -1.151   0.754  0.00  0.00    -0.301 N 
ATOM      6  C   UNL     1       2.633  -1.418  -0.634  0.00  0.00    +0.109 C 
ATOM      7  C   UNL     1       2.928  -2.897  -1.047  0.00  0.00    +0.038 C 
ATOM      8  C   UNL     1       4.128  -3.392  -0.176  0.00  0.00    +0.109 C 
ATOM      9  N   UNL     1       5.133  -2.414   0.058  0.00  0.00    -0.297 N 
ATOM     10  C   UNL     1       5.054  -1.655   1.332  0.00  0.00    +0.127 C 
ATOM     11  C   UNL     1       4.068  -0.581   1.206  0.00  0.00    +0.126 C 
ATOM     12  C   UNL     1       6.114  -2.186  -0.838  0.00  0.00    +0.253 C 
ATOM     13  O   UNL     1       6.153  -2.821  -1.870  0.00  0.00    -0.272 OA
BRANCH  12  14
ATOM     14  C   UNL     1       7.163  -1.141  -0.556  0.00  0.00    +0.324 C 
BRANCH  14  15
ATOM     15  O   UNL     1       8.085  -1.087  -1.646  0.00  0.00    -0.483 OA
BRANCH  15  16
ATOM     16  C   UNL     1       9.101  -0.189  -1.550  0.00  0.00    +0.121 A 
ATOM     17  C   UNL     1       9.211   0.619  -0.428  0.00  0.00    +0.045 A 
ATOM     18  C   UNL     1      10.245   1.530  -0.333  0.00  0.00    +0.004 A 
ATOM     19  C   UNL     1      11.169   1.638  -1.355  0.00  0.00    +0.000 A 
ATOM     20  C   UNL     1      11.062   0.835  -2.475  0.00  0.00    +0.004 A 
ATOM     21  C   UNL     1      10.033  -0.083  -2.572  0.00  0.00    +0.045 A 
ENDBRANCH  15  16
ENDBRANCH  14  15
ENDBRANCH  12  14
ENDBRANCH   1   3
BRANCH   1  30
ATOM     22  C   UNL     1       0.697  -0.218   4.984  0.00  0.00    -0.005 C 
ATOM     23  C   UNL     1      -0.682  -0.155   5.633  0.00  0.00    -0.047 A 
ATOM     24  C   UNL     1      -1.008   0.687   6.692  0.00  0.00    +0.010 A 
ATOM     25  C   UNL     1      -2.261   0.677   7.204  0.00  0.00    +0.045 A 
ATOM     26  S   UNL     1      -3.065  -0.555   6.189  0.00  0.00    -0.101 S 
ATOM     27  C   UNL     1      -1.678  -0.961   5.168  0.00  0.00    -0.010 A 
ATOM     28  C   UNL     1      -1.572  -1.947   4.051  0.00  0.00    +0.024 C 
ATOM     29  C   UNL     1      -0.077  -2.145   3.747  0.00  0.00    -0.071 C 
ATOM     30  N   UNL     1       0.570  -0.828   3.656  0.00  0.00    +0.395 N 
ATOM     31  H   UNL     1       0.015  -0.227   3.066  0.00  0.00    -0.079 HD
BRANCH  22  38
ATOM     32  C   UNL     1       2.251   0.932   7.132  0.00  0.00    +0.044 C 
ATOM     33  C   UNL     1       1.998   1.726   5.876  0.00  0.00    -0.049 A 
ATOM     34  C   UNL     1       2.515   3.002   5.749  0.00  0.00    +0.003 A 
ATOM     35  C   UNL     1       2.284   3.730   4.597  0.00  0.00    +0.000 A 
ATOM     36  C   UNL     1       1.536   3.181   3.572  0.00  0.00    +0.000 A 
ATOM     37  C   UNL     1       1.020   1.905   3.698  0.00  0.00    +0.002 A 
ATOM     38  C   UNL     1       1.255   1.176   4.849  0.00  0.00    -0.054 A 
ENDBRANCH  22  38
ENDBRANCH   1  30
TORSDOF 6
