REMARK  Name = ZINC13696307
REMARK  4 active torsions:
REMARK  status: ('A' for Active; 'I' for Inactive)
REMARK    1  A    between atoms: C_6  and  S_7
REMARK    2  A    between atoms: S_7  and  N_10
REMARK    3  A    between atoms: N_10  and  C_11
REMARK    4  A    between atoms: C_20  and  C_22
REMARK                            x       y       z     vdW  Elec       q    Type
REMARK                         _______ _______ _______ _____ _____    ______ ____
ROOT
ATOM      1  C   UNL     1      -0.880  -0.167   2.440  0.00  0.00    +0.050 A 
ATOM      2  C   UNL     1      -1.557   1.045   2.381  0.00  0.00    +0.025 A 
ATOM      3  C   UNL     1      -2.563   1.313   3.288  0.00  0.00    +0.007 A 
ATOM      4  C   UNL     1      -2.889   0.386   4.260  0.00  0.00    -0.024 A 
ATOM      5  C   UNL     1      -2.218  -0.825   4.334  0.00  0.00    +0.041 A 
ATOM      6  C   UNL     1      -1.206  -1.097   3.413  0.00  0.00    +0.048 A 
ATOM      7  N   UNL     1      -2.697  -1.617   5.382  0.00  0.00    -0.271 N 
ATOM      8  C   UNL     1      -3.773  -0.917   6.089  0.00  0.00    +0.118 C 
ATOM      9  C   UNL     1      -3.925   0.428   5.361  0.00  0.00    +0.056 C 
ATOM     10  C   UNL     1      -2.237  -2.844   5.697  0.00  0.00    +0.223 C 
ATOM     11  O   UNL     1      -1.339  -3.339   5.048  0.00  0.00    -0.275 OA
ENDROOT
BRANCH  10  12
ATOM     12  C   UNL     1      -2.837  -3.600   6.854  0.00  0.00    +0.076 C 
ATOM     13  C   UNL     1      -2.594  -2.833   8.170  0.00  0.00    +0.013 C 
ATOM     14  C   UNL     1      -2.329  -3.945   9.215  0.00  0.00    +0.001 C 
ATOM     15  C   UNL     1      -1.504  -4.980   8.411  0.00  0.00    +0.001 C 
ATOM     16  C   UNL     1      -2.144  -4.966   7.007  0.00  0.00    +0.013 C 
ENDBRANCH  10  12
BRANCH   1  17
ATOM     17  N   UNL     1       0.134  -0.446   1.521  0.00  0.00    -0.216 N 
ATOM     18  H   UNL     1       0.996  -0.007   1.601  0.00  0.00    +0.174 HD
BRANCH  17  19
ATOM     19  S   UNL     1      -0.134  -1.525   0.293  0.00  0.00    +0.072 S 
ATOM     20  O   UNL     1      -0.667  -2.698   0.893  0.00  0.00    -0.150 OA
ATOM     21  O   UNL     1       1.047  -1.542  -0.497  0.00  0.00    -0.150 OA
BRANCH  19  27
ATOM     22  C   UNL     1      -2.723  -1.237  -0.523  0.00  0.00    +0.030 A 
ATOM     23  C   UNL     1      -3.724  -0.707  -1.315  0.00  0.00    +0.022 A 
ATOM     24  C   UNL     1      -3.410   0.199  -2.312  0.00  0.00    +0.041 A 
ATOM     25  C   UNL     1      -2.095   0.577  -2.514  0.00  0.00    +0.022 A 
ATOM     26  C   UNL     1      -1.095   0.051  -1.718  0.00  0.00    +0.030 A 
ATOM     27  C   UNL     1      -1.409  -0.854  -0.721  0.00  0.00    +0.109 A 
ATOM     28 CL   UNL     1      -4.667   0.860  -3.312  0.00  0.00    -0.084 Cl
ENDBRANCH  19  27
ENDBRANCH  17  19
ENDBRANCH   1  17
TORSDOF 4
