REMARK  Name = ZINC41585017
REMARK  6 active torsions:
REMARK  status: ('A' for Active; 'I' for Inactive)
REMARK    1  A    between atoms: C_4  and  C_8
REMARK    2  A    between atoms: C_15  and  O_36
REMARK    3  A    between atoms: C_16  and  C_19
REMARK    4  A    between atoms: C_19  and  N_20
REMARK    5  A    between atoms: N_23  and  C_26
REMARK    6  A    between atoms: C_26  and  C_27
REMARK                            x       y       z     vdW  Elec       q    Type
REMARK                         _______ _______ _______ _____ _____    ______ ____
ROOT
ATOM      1  C   UNL     1       3.691  -0.679  -0.038  0.00  0.00    +0.062 C 
ATOM      2  C   UNL     1       3.926  -1.674   0.854  0.00  0.00    +0.176 C 
ATOM      3  C   UNL     1       5.158  -2.470   0.963  0.00  0.00    +0.231 C 
ATOM      4  O   UNL     1       6.167  -2.381   0.285  0.00  0.00    -0.283 OA
ATOM      5  C   UNL     1       4.899  -3.401   2.077  0.00  0.00    +0.068 A 
ATOM      6  C   UNL     1       5.659  -4.407   2.676  0.00  0.00    +0.019 A 
ATOM      7  C   UNL     1       5.140  -5.123   3.717  0.00  0.00    +0.046 A 
ATOM      8  C   UNL     1       3.856  -4.851   4.182  0.00  0.00    +0.125 A 
ATOM      9  C   UNL     1       3.090  -3.856   3.596  0.00  0.00    +0.051 A 
ATOM     10  C   UNL     1       3.603  -3.118   2.536  0.00  0.00    +0.147 A 
ATOM     11  O   UNL     1       3.072  -2.110   1.810  0.00  0.00    -0.451 OA
ENDROOT
BRANCH   1  15
ATOM     12  C   UNL     1      -0.017   1.380   0.010  0.00  0.00    +0.004 A 
ATOM     13  C   UNL     1       1.167   2.097   0.002  0.00  0.00    +0.039 A 
ATOM     14  C   UNL     1       2.379   1.436  -0.013  0.00  0.00    +0.132 A 
ATOM     15  C   UNL     1       2.408   0.034  -0.021  0.00  0.00    +0.032 A 
ATOM     16  C   UNL     1       1.204  -0.683  -0.013  0.00  0.00    +0.051 A 
ATOM     17  C   UNL     1       0.002  -0.004   0.002  0.00  0.00    +0.021 A 
ATOM     18 CL   UNL     1       1.223  -2.418  -0.023  0.00  0.00    -0.083 Cl
ATOM     19  F   UNL     1       3.534   2.137  -0.022  0.00  0.00    -0.205 F 
ENDBRANCH   1  15
BRANCH   8  20
ATOM     20  O   UNL     1       3.349  -5.568   5.217  0.00  0.00    -0.506 OA
ATOM     21  H   UNL     1       3.533  -5.187   6.087  0.00  0.00    +0.292 HD
ENDBRANCH   8  20
BRANCH   9  22
ATOM     22  C   UNL     1       1.702  -3.574   4.109  0.00  0.00    +0.126 C 
BRANCH  22  23
ATOM     23  N   UNL     1       1.768  -2.558   5.168  0.00  0.00    -0.301 NA
ATOM     24  C   UNL     1       2.472  -3.075   6.350  0.00  0.00    +0.066 C 
ATOM     25  C   UNL     1       2.571  -1.971   7.405  0.00  0.00    -0.063 C 
ATOM     26  N   UNL     1       1.222  -1.524   7.774  0.00  0.00    +0.384 N 
ATOM     27  C   UNL     1       0.540  -0.988   6.589  0.00  0.00    -0.063 C 
ATOM     28  C   UNL     1       0.424  -2.084   5.528  0.00  0.00    +0.066 C 
ATOM     29  H   UNL     1       0.698  -2.305   8.139  0.00  0.00    -0.081 HD
BRANCH  26  30
ATOM     30  C   UNL     1       1.317  -0.477   8.800  0.00  0.00    -0.043 C 
BRANCH  30  31
ATOM     31  C   UNL     1      -0.066  -0.105   9.268  0.00  0.00    -0.060 A 
ATOM     32  C   UNL     1      -0.764   0.901   8.627  0.00  0.00    +0.005 A 
ATOM     33  C   UNL     1      -2.033   1.246   9.052  0.00  0.00    +0.050 A 
ATOM     34  C   UNL     1      -2.609   0.583  10.124  0.00  0.00    +0.166 A 
ATOM     35  C   UNL     1      -1.906  -0.431  10.770  0.00  0.00    +0.166 A 
ATOM     36  C   UNL     1      -0.637  -0.775  10.335  0.00  0.00    +0.051 A 
ATOM     37  O   UNL     1      -2.680  -0.922  11.781  0.00  0.00    -0.453 OA
ATOM     38  C   UNL     1      -3.695   0.074  12.007  0.00  0.00    +0.466 C 
ATOM     39  O   UNL     1      -3.824   0.727  10.730  0.00  0.00    -0.453 OA
ENDBRANCH  30  31
ENDBRANCH  26  30
ENDBRANCH  22  23
ENDBRANCH   9  22
TORSDOF 6
