REMARK  Name = ZINC39606975
REMARK  8 active torsions:
REMARK  status: ('A' for Active; 'I' for Inactive)
REMARK    1  A    between atoms: C_1  and  C_2
REMARK    2  A    between atoms: C_9  and  C_14
REMARK    3  A    between atoms: C_14  and  O_16
REMARK    4  A    between atoms: O_16  and  C_17
REMARK    5  A    between atoms: C_17  and  C_19
REMARK    6  A    between atoms: C_17  and  C_20
REMARK    7  A    between atoms: N_22  and  C_23
REMARK    8  A    between atoms: C_26  and  C_29
REMARK                            x       y       z     vdW  Elec       q    Type
REMARK                         _______ _______ _______ _____ _____    ______ ____
ROOT
ATOM      1  C   UNL     1       8.877   0.903   0.519  0.00  0.00    +0.259 C 
ATOM      2  C   UNL     1       9.642  -0.421   0.499  0.00  0.00    +0.062 C 
ENDROOT
BRANCH   1   3
ATOM      3  C   UNL     1       9.547   1.856   1.476  0.00  0.00    +0.258 C 
ATOM      4  O   UNL     1       8.965   2.221   2.475  0.00  0.00    -0.271 OA
ATOM      5  N   UNL     1      10.793   2.301   1.222  0.00  0.00    -0.282 N 
ATOM      6  H   UNL     1      11.285   1.958   0.459  0.00  0.00    +0.155 HD
BRANCH   5   7
ATOM      7  C   UNL     1      11.376   3.255   2.055  0.00  0.00    +0.034 A 
ATOM      8  C   UNL     1      11.118   3.234   3.422  0.00  0.00    +0.024 A 
ATOM      9  C   UNL     1      11.692   4.174   4.247  0.00  0.00    +0.015 A 
ATOM     10  C   UNL     1      12.535   5.151   3.711  0.00  0.00    +0.037 A 
ATOM     11  C   UNL     1      12.793   5.169   2.338  0.00  0.00    +0.015 A 
ATOM     12  C   UNL     1      12.220   4.223   1.518  0.00  0.00    +0.024 A 
BRANCH  10  13
ATOM     13  C   UNL     1      13.152   6.161   4.593  0.00  0.00    +0.242 C 
ATOM     14  O   UNL     1      12.927   6.144   5.788  0.00  0.00    -0.270 OA
ATOM     15  N   UNL     1      13.966   7.102   4.074  0.00  0.00    -0.325 N 
ATOM     16  H   UNL     1      14.146   7.115   3.121  0.00  0.00    +0.145 HD
ATOM     17  H   UNL     1      14.371   7.766   4.654  0.00  0.00    +0.145 HD
ENDBRANCH  10  13
ENDBRANCH   5   7
ENDBRANCH   1   3
BRANCH   1  18
ATOM     18  O   UNL     1       7.532   0.671   0.942  0.00  0.00    -0.449 OA
BRANCH  18  19
ATOM     19  C   UNL     1       6.627   0.399  -0.019  0.00  0.00    +0.340 C 
ATOM     20  O   UNL     1       6.971   0.360  -1.184  0.00  0.00    -0.245 OA
BRANCH  19  28
ATOM     21  C   UNL     1      -0.014   1.516  -0.024  0.00  0.00    +0.029 C 
ATOM     22  C   UNL     1       0.007  -0.014  -0.021  0.00  0.00    +0.134 C 
ATOM     23  C   UNL     1       0.721  -0.511  -1.248  0.00  0.00    +0.230 C 
ATOM     24  O   UNL     1       0.057  -0.795  -2.222  0.00  0.00    -0.274 OA
ATOM     25  N   UNL     1       2.041  -0.656  -1.325  0.00  0.00    -0.284 N 
ATOM     26  C   UNL     1       2.961  -0.371  -0.318  0.00  0.00    +0.048 A 
ATOM     27  C   UNL     1       4.284  -0.134  -0.654  0.00  0.00    +0.039 A 
ATOM     28  C   UNL     1       5.221   0.148   0.343  0.00  0.00    +0.061 A 
ATOM     29  C   UNL     1       4.827   0.192   1.684  0.00  0.00    +0.016 A 
ATOM     30  C   UNL     1       3.512  -0.041   2.019  0.00  0.00    +0.017 A 
ATOM     31  C   UNL     1       2.580  -0.320   1.027  0.00  0.00    +0.030 A 
ATOM     32  S   UNL     1       0.887  -0.609   1.454  0.00  0.00    -0.111 S 
ATOM     33  H   UNL     1       2.398  -0.992  -2.162  0.00  0.00    +0.155 HD
ENDBRANCH  19  28
ENDBRANCH  18  19
ENDBRANCH   1  18
TORSDOF 6
