REMARK  Name = ZINC40119657
REMARK  6 active torsions:
REMARK  status: ('A' for Active; 'I' for Inactive)
REMARK    1  A    between atoms: C_1  and  C_2
REMARK    2  A    between atoms: C_2  and  C_3
REMARK    3  A    between atoms: C_2  and  C_4
REMARK    4  A    between atoms: C_2  and  N_11
REMARK    5  A    between atoms: N_14  and  C_15
REMARK    6  A    between atoms: C_20  and  N_21
REMARK                            x       y       z     vdW  Elec       q    Type
REMARK                         _______ _______ _______ _____ _____    ______ ____
ROOT
ATOM      1  N   UNL     1       0.774  -0.526  -1.394  0.00  0.00    -0.290 N 
ATOM      2  C   UNL     1       2.081  -0.220  -1.513  0.00  0.00    +0.305 C 
ATOM      3  O   UNL     1       2.639   0.415  -0.639  0.00  0.00    -0.252 OA
ATOM      4  N   UNL     1       2.770  -0.618  -2.601  0.00  0.00    -0.267 N 
ATOM      5  H   UNL     1       0.329  -1.033  -2.091  0.00  0.00    +0.151 HD
ATOM      6  H   UNL     1       2.308  -1.049  -3.337  0.00  0.00    +0.156 HD
ENDROOT
BRANCH   4   7
ATOM      7  C   UNL     1       4.152  -0.410  -2.669  0.00  0.00    +0.065 A 
ATOM      8  C   UNL     1       4.898  -0.302  -1.502  0.00  0.00    +0.025 A 
ATOM      9  C   UNL     1       6.261  -0.097  -1.573  0.00  0.00    +0.002 A 
ATOM     10  C   UNL     1       6.885   0.001  -2.804  0.00  0.00    +0.002 A 
ATOM     11  C   UNL     1       6.145  -0.105  -3.967  0.00  0.00    +0.034 A 
ATOM     12  C   UNL     1       4.782  -0.317  -3.903  0.00  0.00    +0.147 A 
BRANCH  12  13
ATOM     13  N   UNL     1       3.992  -0.437  -5.149  0.00  0.00    +0.058 N 
ATOM     14  O   UNL     1       4.551  -0.455  -6.221  0.00  0.00    -0.126 OA
ATOM     15  O   UNL     1       2.787  -0.518  -5.095  0.00  0.00    -0.126 OA
ENDBRANCH  12  13
ENDBRANCH   4   7
BRANCH   1  17
ATOM     16  C   UNL     1      -0.034   1.435  -0.177  0.00  0.00    +0.036 C 
ATOM     17  C   UNL     1       0.025  -0.093  -0.212  0.00  0.00    +0.056 C 
ATOM     18  C   UNL     1       0.723  -0.606   1.050  0.00  0.00    +0.036 C 
BRANCH  17  19
ATOM     19  C   UNL     1      -1.374  -0.649  -0.272  0.00  0.00    -0.025 A 
ATOM     20  C   UNL     1      -2.022  -1.017   0.892  0.00  0.00    +0.007 A 
ATOM     21  C   UNL     1      -3.306  -1.527   0.837  0.00  0.00    +0.015 A 
ATOM     22  C   UNL     1      -3.942  -1.669  -0.383  0.00  0.00    +0.018 A 
ATOM     23  C   UNL     1      -3.293  -1.300  -1.548  0.00  0.00    +0.015 A 
ATOM     24  C   UNL     1      -2.012  -0.786  -1.491  0.00  0.00    +0.007 A 
ATOM     25 BR   UNL     1      -5.698  -2.366  -0.459  0.00  0.00    -0.050 Br
ENDBRANCH  17  19
ENDBRANCH   1  17
TORSDOF 4
