REMARK  Name = ZINC18356504
REMARK  10 active torsions:
REMARK  status: ('A' for Active; 'I' for Inactive)
REMARK    1  A    between atoms: C_1  and  C_2
REMARK    2  A    between atoms: C_2  and  C_3
REMARK    3  A    between atoms: C_3  and  C_4
REMARK    4  A    between atoms: C_4  and  N_5
REMARK    5  A    between atoms: C_6  and  N_32
REMARK    6  A    between atoms: C_7  and  N_14
REMARK    7  A    between atoms: N_14  and  C_15
REMARK    8  A    between atoms: C_20  and  C_22
REMARK    9  A    between atoms: C_22  and  O_23
REMARK   10  A    between atoms: O_23  and  C_24
REMARK                            x       y       z     vdW  Elec       q    Type
REMARK                         _______ _______ _______ _____ _____    ______ ____
ROOT
ATOM      1  N   UNL     1       1.365   1.624  -0.005  0.00  0.00    -0.258 N 
ATOM      2  C   UNL     1       1.641   2.938  -0.142  0.00  0.00    +0.258 C 
ATOM      3  O   UNL     1       0.744   3.754  -0.105  0.00  0.00    -0.271 OA
ENDROOT
BRANCH   1   6
ATOM      4  N   UNL     1       4.304  -0.286   1.098  0.00  0.00    -0.280 N 
ATOM      5  C   UNL     1       3.291   0.645   1.094  0.00  0.00    +0.127 A 
ATOM      6  C   UNL     1       2.415   0.682   0.028  0.00  0.00    +0.140 A 
ATOM      7  C   UNL     1       2.584  -0.239  -1.022  0.00  0.00    +0.277 A 
ATOM      8  O   UNL     1       1.821  -0.231  -1.974  0.00  0.00    -0.266 OA
ATOM      9  N   UNL     1       3.596  -1.127  -0.972  0.00  0.00    -0.273 N 
ATOM     10  H   UNL     1       3.722  -1.776  -1.722  0.00  0.00    +0.173 HD
ATOM     11  C   UNL     1       4.440  -1.149   0.075  0.00  0.00    +0.331 A 
ATOM     12  O   UNL     1       5.343  -1.963   0.097  0.00  0.00    -0.246 OA
BRANCH   5  13
ATOM     13  N   UNL     1       3.152   1.526   2.139  0.00  0.00    -0.343 N 
ATOM     14  H   UNL     1       2.392   2.128   2.168  0.00  0.00    +0.144 HD
ATOM     15  H   UNL     1       3.813   1.546   2.849  0.00  0.00    +0.144 HD
ENDBRANCH   5  13
BRANCH   4  16
ATOM     16  C   UNL     1       5.241  -0.336   2.223  0.00  0.00    +0.128 C 
BRANCH  16  17
ATOM     17  C   UNL     1       4.705  -1.291   3.291  0.00  0.00    +0.021 C 
BRANCH  17  19
ATOM     18  C   UNL     1       5.146  -2.300   5.534  0.00  0.00    +0.004 C 
ATOM     19  C   UNL     1       5.683  -1.345   4.466  0.00  0.00    -0.002 C 
ENDBRANCH  17  19
ENDBRANCH  16  17
ENDBRANCH   4  16
ENDBRANCH   1   6
BRANCH   1  20
ATOM     20  C   UNL     1      -0.025   1.176   0.109  0.00  0.00    +0.082 C 
ATOM     21  C   UNL     1      -0.640   1.693   1.426  0.00  0.00    +0.023 C 
ATOM     22  C   UNL     1      -1.379   2.992   1.016  0.00  0.00    +0.002 C 
ATOM     23  C   UNL     1      -1.964   2.629  -0.371  0.00  0.00    +0.002 C 
ATOM     24  C   UNL     1      -0.866   1.771  -1.033  0.00  0.00    +0.023 C 
ENDBRANCH   1  20
BRANCH   2  25
ATOM     25  C   UNL     1       3.065   3.392  -0.341  0.00  0.00    +0.325 C 
BRANCH  25  26
ATOM     26  O   UNL     1       3.086   4.799  -0.587  0.00  0.00    -0.481 OA
BRANCH  26  27
ATOM     27  C   UNL     1       4.290   5.356  -0.883  0.00  0.00    +0.141 A 
ATOM     28  C   UNL     1       5.409   4.551  -1.032  0.00  0.00    +0.067 A 
ATOM     29  C   UNL     1       6.632   5.120  -1.337  0.00  0.00    +0.045 A 
ATOM     30  C   UNL     1       6.741   6.491  -1.485  0.00  0.00    +0.021 A 
ATOM     31  C   UNL     1       5.628   7.296  -1.331  0.00  0.00    +0.025 A 
ATOM     32  C   UNL     1       4.402   6.732  -1.030  0.00  0.00    +0.083 A 
ATOM     33 CL   UNL     1       3.004   7.743  -0.838  0.00  0.00    -0.080 Cl
ATOM     34 CL   UNL     1       8.033   4.112  -1.531  0.00  0.00    -0.083 Cl
ENDBRANCH  26  27
ENDBRANCH  25  26
ENDBRANCH   2  25
TORSDOF 9
