REMARK  Name = ZINC42891719
REMARK  8 active torsions:
REMARK  status: ('A' for Active; 'I' for Inactive)
REMARK    1  A    between atoms: C_9  and  N_11
REMARK    2  A    between atoms: N_14  and  C_15
REMARK    3  A    between atoms: C_15  and  C_17
REMARK    4  A    between atoms: C_15  and  C_19
REMARK    5  A    between atoms: C_17  and  O_18
REMARK    6  A    between atoms: C_19  and  C_21
REMARK    7  A    between atoms: C_19  and  O_30
REMARK    8  A    between atoms: C_24  and  N_27
REMARK                            x       y       z     vdW  Elec       q    Type
REMARK                         _______ _______ _______ _____ _____    ______ ____
ROOT
ATOM      1  C   UNK A   1       6.651   0.662   3.373  0.00  0.00    +0.133 C 
ENDROOT
BRANCH   1   5
ATOM      2  N   UNK A   0       4.147  -1.058   1.302  0.00  0.00    -0.293 N 
ATOM      3  C   UNK A   0       5.090  -0.183   1.704  0.00  0.00    +0.300 C 
ATOM      4  O   UNK A   0       5.457   0.702   0.956  0.00  0.00    -0.253 OA
ATOM      5  N   UNK A   1       5.626  -0.289   2.936  0.00  0.00    -0.292 N 
ATOM      6  H   UNK A   0       3.854  -1.764   1.899  0.00  0.00    +0.151 HD
ATOM      7  H   UNK A   1       5.333  -0.996   3.533  0.00  0.00    +0.151 HD
BRANCH   2  16
ATOM      8  C   UNK A   0      -0.017   1.377   0.010  0.00  0.00    +0.000 A 
ATOM      9  C   UNK A   0       1.172   2.083   0.002  0.00  0.00    +0.000 A 
ATOM     10  C   UNK A   0       2.376   1.406  -0.013  0.00  0.00    +0.006 A 
ATOM     11  C   UNK A   0       2.396   0.021  -0.021  0.00  0.00    -0.024 A 
ATOM     12  C   UNK A   0       1.208  -0.685  -0.013  0.00  0.00    -0.042 A 
ATOM     13  C   UNK A   0       0.002  -0.004   0.002  0.00  0.00    +0.004 A 
ATOM     14  C   UNK A   0       1.496  -2.171  -0.025  0.00  0.00    +0.037 C 
ATOM     15  C   UNK A   0       2.966  -2.294  -0.480  0.00  0.00    +0.032 C 
ATOM     16  C   UNK A   0       3.564  -0.942  -0.037  0.00  0.00    +0.105 C 
ENDBRANCH   2  16
ENDBRANCH   1   5
BRANCH   1  17
ATOM     17  C   UNK A   1       8.024   0.187   2.895  0.00  0.00    +0.181 C 
BRANCH  17  18
ATOM     18  O   UNK A   1       8.353  -1.046   3.538  0.00  0.00    -0.393 OA
ATOM     19  H   UNK A   1       9.213  -1.406   3.281  0.00  0.00    +0.209 HD
ENDBRANCH  17  18
ENDBRANCH   1  17
BRANCH   1  20
ATOM     20  C   UNK A   1       6.646   0.750   4.901  0.00  0.00    +0.167 C 
BRANCH  20  21
ATOM     21  C   UNK A   1       5.260   1.098   5.380  0.00  0.00    -0.017 A 
ATOM     22  C   UNK A   1       4.324   0.099   5.572  0.00  0.00    +0.008 A 
ATOM     23  C   UNK A   1       3.053   0.419   6.011  0.00  0.00    +0.033 A 
ATOM     24  C   UNK A   1       2.717   1.737   6.258  0.00  0.00    +0.126 A 
ATOM     25  C   UNK A   1       3.654   2.736   6.066  0.00  0.00    +0.033 A 
ATOM     26  C   UNK A   1       4.926   2.416   5.631  0.00  0.00    +0.008 A 
BRANCH  24  27
ATOM     27  N   UNK A   1       1.356   2.079   6.727  0.00  0.00    +0.056 N 
ATOM     28  O   UNK A   1       0.537   1.205   6.894  0.00  0.00    -0.126 OA
ATOM     29  O   UNK A   1       1.062   3.232   6.943  0.00  0.00    -0.126 OA
ENDBRANCH  24  27
ENDBRANCH  20  21
BRANCH  20  30
ATOM     30  O   UNK A   1       7.038  -0.508   5.452  0.00  0.00    -0.385 OA
ATOM     31  H   UNK A   1       6.459  -1.243   5.207  0.00  0.00    +0.210 HD
ENDBRANCH  20  30
ENDBRANCH   1  20
TORSDOF 8
