REMARK  Name = ZINC40286218
REMARK  3 active torsions:
REMARK  status: ('A' for Active; 'I' for Inactive)
REMARK    1  A    between atoms: C_1  and  N_2
REMARK    2  A    between atoms: C_9  and  C_11
REMARK    3  A    between atoms: C_11  and  N_13
REMARK                            x       y       z     vdW  Elec       q    Type
REMARK                         _______ _______ _______ _____ _____    ______ ____
ROOT
ATOM      1  C   UNL     1       0.077  -3.969   3.966  0.00  0.00    +0.270 C 
ATOM      2  O   UNL     1       0.081  -5.130   3.595  0.00  0.00    -0.268 OA
ENDROOT
BRANCH   1   3
ATOM      3  N   UNL     1       0.099  -3.684   5.273  0.00  0.00    -0.143 NA
ATOM      4  C   UNL     1       0.020  -4.662   6.167  0.00  0.00    +0.199 A 
ATOM      5  N   UNL     1       0.030  -5.993   5.883  0.00  0.00    -0.326 N 
ATOM      6  H   UNL     1       0.096  -6.385   4.998  0.00  0.00    +0.169 HD
ATOM      7  C   UNL     1      -0.069  -6.695   7.080  0.00  0.00    +0.065 A 
ATOM      8  C   UNL     1      -0.105  -8.048   7.383  0.00  0.00    +0.028 A 
ATOM      9  C   UNL     1      -0.210  -8.456   8.698  0.00  0.00    +0.002 A 
ATOM     10  C   UNL     1      -0.281  -7.520   9.716  0.00  0.00    +0.002 A 
ATOM     11  C   UNL     1      -0.247  -6.171   9.425  0.00  0.00    +0.028 A 
ATOM     12  C   UNL     1      -0.141  -5.751   8.107  0.00  0.00    +0.065 A 
ATOM     13  N   UNL     1      -0.077  -4.494   7.513  0.00  0.00    -0.326 N 
ATOM     14  H   UNL     1      -0.101  -3.643   7.979  0.00  0.00    +0.169 HD
ENDBRANCH   1   3
BRANCH   1  23
ATOM     15  C   UNL     1      -0.049   1.465   0.015  0.00  0.00    +0.149 C 
ATOM     16  N   UNL     1      -0.035   0.001   0.006  0.00  0.00    -0.350 N 
ATOM     17  C   UNL     1      -0.044  -0.778  -1.120  0.00  0.00    +0.086 A 
ATOM     18  C   UNL     1      -0.027  -2.076  -0.779  0.00  0.00    +0.027 A 
ATOM     19  C   UNL     1      -0.005  -2.133   0.685  0.00  0.00    +0.001 A 
ATOM     20  C   UNL     1      -0.006  -0.795   1.127  0.00  0.00    +0.049 A 
ATOM     21  C   UNL     1       0.017  -0.521   2.492  0.00  0.00    +0.027 A 
ATOM     22  C   UNL     1       0.044  -1.541   3.397  0.00  0.00    +0.015 A 
ATOM     23  C   UNL     1       0.048  -2.875   2.970  0.00  0.00    +0.040 A 
ATOM     24  C   UNL     1       0.018  -3.172   1.612  0.00  0.00    +0.023 A 
ENDBRANCH   1  23
TORSDOF 2
