REMARK  Name = ZINC28316491
REMARK  8 active torsions:
REMARK  status: ('A' for Active; 'I' for Inactive)
REMARK    1  A    between atoms: C_2  and  C_3
REMARK    2  A    between atoms: C_3  and  N_4
REMARK    3  A    between atoms: C_7  and  C_22
REMARK    4  A    between atoms: N_11  and  C_12
REMARK    5  A    between atoms: C_15  and  O_18
REMARK    6  A    between atoms: O_18  and  C_19
REMARK    7  A    between atoms: C_22  and  C_23
REMARK    8  A    between atoms: N_25  and  C_26
REMARK                            x       y       z     vdW  Elec       q    Type
REMARK                         _______ _______ _______ _____ _____    ______ ____
ROOT
ATOM      1  N   UNL     1      -1.324  -1.687  -1.129  0.00  0.00    -0.246 N 
ATOM      2  C   UNL     1      -1.825  -1.275  -2.281  0.00  0.00    +0.235 C 
ATOM      3  O   UNL     1      -2.268  -0.156  -2.427  0.00  0.00    -0.274 OA
ATOM      4  C   UNL     1      -1.811  -2.293  -3.410  0.00  0.00    +0.149 C 
ATOM      5  S   UNL     1      -1.037  -3.726  -2.553  0.00  0.00    -0.077 S 
ATOM      6  C   UNL     1      -0.813  -2.957  -0.956  0.00  0.00    +0.164 C 
ATOM      7  N   UNL     1      -0.287  -3.478   0.127  0.00  0.00    -0.226 NA
ENDROOT
BRANCH   7   8
ATOM      8  C   UNL     1       0.173  -4.769   0.113  0.00  0.00    +0.067 A 
ATOM      9  C   UNL     1      -0.590  -5.778  -0.478  0.00  0.00    +0.031 A 
ATOM     10  C   UNL     1      -0.123  -7.075  -0.490  0.00  0.00    +0.048 A 
ATOM     11  C   UNL     1       1.104  -7.379   0.084  0.00  0.00    +0.127 A 
ATOM     12  C   UNL     1       1.865  -6.380   0.673  0.00  0.00    +0.048 A 
ATOM     13  C   UNL     1       1.409  -5.078   0.684  0.00  0.00    +0.031 A 
BRANCH  11  14
ATOM     14  O   UNL     1       1.560  -8.660   0.071  0.00  0.00    -0.434 OA
BRANCH  14  15
ATOM     15  C   UNL     1       2.829  -8.903   0.680  0.00  0.00    +0.541 C 
ATOM     16  F   UNL     1       3.811  -8.148   0.029  0.00  0.00    -0.166 F 
ATOM     17  F   UNL     1       2.777  -8.537   2.029  0.00  0.00    -0.166 F 
ENDBRANCH  14  15
ENDBRANCH  11  14
ENDBRANCH   7   8
BRANCH   1  18
ATOM     18  C   UNL     1      -1.305  -0.759   0.004  0.00  0.00    +0.142 C 
BRANCH  18  20
ATOM     19  C   UNL     1      -0.042   1.331  -0.004  0.00  0.00    +0.005 C 
ATOM     20  C   UNL     1      -0.015   0.021  -0.006  0.00  0.00    -0.015 C 
ENDBRANCH  18  20
ENDBRANCH   1  18
BRANCH   4  21
ATOM     21  C   UNL     1      -0.948  -1.812  -4.579  0.00  0.00    +0.120 C 
BRANCH  21  22
ATOM     22  C   UNL     1      -1.060  -2.789  -5.721  0.00  0.00    +0.219 C 
ATOM     23  O   UNL     1      -1.761  -3.772  -5.612  0.00  0.00    -0.275 OA
ATOM     24  N   UNL     1      -0.380  -2.569  -6.864  0.00  0.00    -0.285 N 
ATOM     25  H   UNL     1       0.127  -1.750  -6.977  0.00  0.00    +0.155 HD
BRANCH  24  26
ATOM     26  C   UNL     1      -0.407  -3.523  -7.889  0.00  0.00    +0.034 A 
ATOM     27  C   UNL     1       0.721  -3.736  -8.670  0.00  0.00    +0.026 A 
ATOM     28  C   UNL     1       0.693  -4.678  -9.680  0.00  0.00    +0.040 A 
ATOM     29  C   UNL     1      -0.460  -5.409  -9.914  0.00  0.00    +0.124 A 
ATOM     30  C   UNL     1      -1.586  -5.199  -9.136  0.00  0.00    +0.040 A 
ATOM     31  C   UNL     1      -1.560  -4.262  -8.121  0.00  0.00    +0.026 A 
ATOM     32  F   UNL     1      -0.486  -6.329 -10.903  0.00  0.00    -0.205 F 
ENDBRANCH  24  26
ENDBRANCH  21  22
ENDBRANCH   4  21
TORSDOF 8
