REMARK  Name = ZINC09397824
REMARK  9 active torsions:
REMARK  status: ('A' for Active; 'I' for Inactive)
REMARK    1  A    between atoms: C_1  and  C_2
REMARK    2  A    between atoms: C_5  and  C_8
REMARK    3  A    between atoms: C_10  and  C_18
REMARK    4  A    between atoms: C_21  and  S_26
REMARK    5  A    between atoms: N_22  and  C_23
REMARK    6  A    between atoms: C_23  and  C_24
REMARK    7  A    between atoms: S_26  and  C_27
REMARK    8  A    between atoms: C_27  and  C_29
REMARK    9  A    between atoms: C_27  and  C_30
REMARK                            x       y       z     vdW  Elec       q    Type
REMARK                         _______ _______ _______ _____ _____    ______ ____
ROOT
ATOM      1  C   UNL     1      -7.101  -0.307   1.493  0.00  0.00    +0.166 A 
ATOM      2  N   UNL     1      -6.091  -0.920   2.068  0.00  0.00    -0.128 NA
ATOM      3  N   UNL     1      -5.021  -0.221   1.933  0.00  0.00    -0.122 NA
ATOM      4  C   UNL     1      -5.282   0.881   1.263  0.00  0.00    +0.193 A 
ATOM      5  N   UNL     1      -6.613   0.868   0.965  0.00  0.00    -0.298 N 
ENDROOT
BRANCH   1   8
ATOM      6  C   UNL     1     -10.865  -0.450   1.696  0.00  0.00    +0.072 A 
ATOM      7  C   UNL     1      -9.559   0.044   1.771  0.00  0.00    +0.040 A 
ATOM      8  C   UNL     1      -8.495  -0.784   1.430  0.00  0.00    +0.030 A 
ATOM      9  C   UNL     1      -8.815  -2.147   1.000  0.00  0.00    +0.011 A 
ATOM     10  C   UNL     1      -7.813  -3.055   0.643  0.00  0.00    +0.011 A 
ATOM     11  C   UNL     1      -8.155  -4.317   0.255  0.00  0.00    +0.001 A 
ATOM     12  C   UNL     1      -9.489  -4.713   0.214  0.00  0.00    +0.002 A 
ATOM     13  C   UNL     1     -10.488  -3.855   0.560  0.00  0.00    +0.028 A 
ATOM     14  C   UNL     1     -10.173  -2.546   0.966  0.00  0.00    +0.072 A 
ATOM     15  N   UNL     1     -11.132  -1.683   1.311  0.00  0.00    -0.247 NA
BRANCH   6  20
ATOM     16  C   UNL     1     -15.235   3.021   3.120  0.00  0.00    +0.044 C 
ATOM     17  C   UNL     1     -14.091   2.112   2.748  0.00  0.00    -0.050 A 
ATOM     18  C   UNL     1     -14.316   0.759   2.572  0.00  0.00    +0.004 A 
ATOM     19  C   UNL     1     -13.272  -0.078   2.231  0.00  0.00    +0.010 A 
ATOM     20  C   UNL     1     -11.991   0.444   2.063  0.00  0.00    +0.000 A 
ATOM     21  C   UNL     1     -11.769   1.808   2.247  0.00  0.00    +0.010 A 
ATOM     22  C   UNL     1     -12.821   2.635   2.583  0.00  0.00    +0.004 A 
ENDBRANCH   6  20
ENDBRANCH   1   8
BRANCH   5  23
ATOM     23  C   UNL     1      -7.367   1.889   0.232  0.00  0.00    +0.152 C 
BRANCH  23  24
ATOM     24  C   UNL     1      -7.439   1.511  -1.225  0.00  0.00    -0.013 C 
ATOM     25  C   UNL     1      -8.602   1.423  -1.821  0.00  0.00    +0.005 C 
ENDBRANCH  23  24
ENDBRANCH   5  23
BRANCH   4  26
ATOM     26  S   UNL     1      -4.129   2.143   0.837  0.00  0.00    -0.073 S 
BRANCH  26  27
ATOM     27  C   UNL     1      -2.624   1.454   1.570  0.00  0.00    +0.137 C 
ATOM     28  C   UNL     1      -2.253   0.157   0.849  0.00  0.00    +0.029 C 
BRANCH  27  29
ATOM     29  C   UNL     1      -1.498   2.446   1.431  0.00  0.00    +0.233 C 
ATOM     30  O   UNL     1      -1.566   3.329   0.603  0.00  0.00    -0.274 OA
ATOM     31  N   UNL     1      -0.415   2.352   2.228  0.00  0.00    -0.239 N 
ATOM     32  C   UNL     1       0.595   3.236   2.100  0.00  0.00    +0.303 C 
ATOM     33  O   UNL     1       0.526   4.121   1.270  0.00  0.00    -0.253 OA
ATOM     34  N   UNL     1       1.680   3.139   2.893  0.00  0.00    -0.313 N 
ATOM     35  H   UNL     1      -0.360   1.646   2.891  0.00  0.00    +0.159 HD
ATOM     36  H   UNL     1       1.734   2.433   3.556  0.00  0.00    +0.146 HD
ATOM     37  H   UNL     1       2.406   3.775   2.801  0.00  0.00    +0.146 HD
ENDBRANCH  27  29
ENDBRANCH  26  27
ENDBRANCH   4  26
TORSDOF 7
