REMARK  Name = ZINC54621801
REMARK  8 active torsions:
REMARK  status: ('A' for Active; 'I' for Inactive)
REMARK    1  A    between atoms: C_1  and  C_2
REMARK    2  A    between atoms: C_8  and  C_13
REMARK    3  A    between atoms: C_9  and  O_12
REMARK    4  A    between atoms: C_13  and  C_15
REMARK    5  A    between atoms: C_13  and  N_21
REMARK    6  A    between atoms: N_21  and  C_22
REMARK    7  A    between atoms: C_25  and  N_29
REMARK    8  A    between atoms: C_27  and  C_28
REMARK                            x       y       z     vdW  Elec       q    Type
REMARK                         _______ _______ _______ _____ _____    ______ ____
ROOT
ATOM      1  C   UNL     1       0.086  -4.769   3.747  0.00  0.00    +0.135 C 
ENDROOT
BRANCH   1   9
ATOM      2  C   UNL     1       0.214   1.359  -0.220  0.00  0.00    +0.065 C 
ATOM      3  C   UNL     1       0.275  -0.145  -0.168  0.00  0.00    +0.039 A 
ATOM      4  C   UNL     1       0.426  -0.860  -1.354  0.00  0.00    +0.023 A 
ATOM      5  C   UNL     1       0.484  -2.224  -1.326  0.00  0.00    +0.012 A 
ATOM      6  C   UNL     1       0.386  -2.867  -0.077  0.00  0.00    +0.004 A 
ATOM      7  C   UNL     1       0.438  -4.266   0.031  0.00  0.00    +0.010 A 
ATOM      8  C   UNL     1       0.341  -4.853   1.256  0.00  0.00    +0.010 A 
ATOM      9  C   UNL     1       0.191  -4.085   2.408  0.00  0.00    +0.021 A 
ATOM     10  C   UNL     1       0.136  -2.722   2.342  0.00  0.00    +0.148 A 
ATOM     11  C   UNL     1       0.234  -2.079   1.090  0.00  0.00    +0.113 A 
ATOM     12  N   UNL     1       0.190  -0.748   0.994  0.00  0.00    -0.248 NA
BRANCH  10  13
ATOM     13  O   UNL     1      -0.011  -1.990   3.477  0.00  0.00    -0.504 OA
ATOM     14  H   UNL     1       0.824  -1.738   3.894  0.00  0.00    +0.292 HD
ENDBRANCH  10  13
ENDBRANCH   1   9
BRANCH   1  15
ATOM     15  C   UNL     1       1.457  -4.881   4.362  0.00  0.00    -0.020 A 
ATOM     16  C   UNL     1       2.334  -5.878   3.963  0.00  0.00    +0.025 A 
ATOM     17  C   UNL     1       3.583  -5.949   4.550  0.00  0.00    +0.111 A 
ATOM     18  N   UNL     1       3.943  -5.085   5.479  0.00  0.00    -0.263 NA
ATOM     19  C   UNL     1       3.135  -4.125   5.883  0.00  0.00    +0.111 A 
ATOM     20  C   UNL     1       1.873  -3.987   5.337  0.00  0.00    +0.025 A 
ENDBRANCH   1  15
BRANCH   1  21
ATOM     21  N   UNL     1      -0.481  -6.108   3.568  0.00  0.00    -0.333 N 
ATOM     22  H   UNL     1      -0.394  -6.562   2.715  0.00  0.00    +0.147 HD
BRANCH  21  23
ATOM     23  C   UNL     1      -1.146  -6.732   4.626  0.00  0.00    +0.031 A 
ATOM     24  C   UNL     1      -1.277  -6.081   5.846  0.00  0.00    +0.025 A 
ATOM     25  C   UNL     1      -1.936  -6.700   6.890  0.00  0.00    +0.034 A 
ATOM     26  C   UNL     1      -2.465  -7.967   6.722  0.00  0.00    +0.127 A 
ATOM     27  C   UNL     1      -2.337  -8.617   5.508  0.00  0.00    +0.038 A 
ATOM     28  C   UNL     1      -1.684  -8.002   4.458  0.00  0.00    -0.027 A 
ATOM     29  C   UNL     1      -1.549  -8.709   3.135  0.00  0.00    +0.046 C 
BRANCH  26  30
ATOM     30  N   UNL     1      -3.171  -8.627   7.843  0.00  0.00    +0.056 N 
ATOM     31  O   UNL     1      -3.284  -8.060   8.904  0.00  0.00    -0.126 OA
ATOM     32  O   UNL     1      -3.634  -9.734   7.697  0.00  0.00    -0.126 OA
ENDBRANCH  26  30
ENDBRANCH  21  23
ENDBRANCH   1  21
TORSDOF 6
