REMARK  Name = ZINC02882910
REMARK  7 active torsions:
REMARK  status: ('A' for Active; 'I' for Inactive)
REMARK    1  A    between atoms: C_4  and  N_28
REMARK    2  A    between atoms: C_5  and  C_7
REMARK    3  A    between atoms: C_10  and  C_12
REMARK    4  A    between atoms: N_14  and  C_15
REMARK    5  A    between atoms: C_15  and  N_17
REMARK    6  A    between atoms: N_17  and  C_18
REMARK    7  A    between atoms: C_19  and  C_26
REMARK                            x       y       z     vdW  Elec       q    Type
REMARK                         _______ _______ _______ _____ _____    ______ ____
ROOT
ATOM      1  C   UNL     1      -1.187   1.624   0.017  0.00  0.00    +0.285 C 
ATOM      2  O   UNL     1      -1.204   2.841   0.023  0.00  0.00    -0.266 OA
ATOM      3  N   UNL     1      -0.011   0.966   0.007  0.00  0.00    -0.261 N 
ATOM      4  H   UNL     1       0.002  -0.004   0.002  0.00  0.00    +0.157 HD
ENDROOT
BRANCH   1   8
ATOM      5  C   UNL     1      -3.870  -0.799   0.017  0.00  0.00    +0.138 A 
ATOM      6  C   UNL     1      -4.611   0.348   0.026  0.00  0.00    +0.051 A 
ATOM      7  C   UNL     1      -3.712   1.419   0.033  0.00  0.00    +0.055 A 
ATOM      8  C   UNL     1      -2.445   0.875   0.018  0.00  0.00    +0.190 A 
ATOM      9  O   UNL     1      -2.567  -0.470   0.012  0.00  0.00    -0.450 OA
BRANCH   5  14
ATOM     10  C   UNL     1      -5.886  -3.832   0.929  0.00  0.00    +0.001 A 
ATOM     11  C   UNL     1      -5.425  -4.750   0.002  0.00  0.00    +0.002 A 
ATOM     12  C   UNL     1      -4.460  -4.386  -0.920  0.00  0.00    +0.033 A 
ATOM     13  C   UNL     1      -3.954  -3.103  -0.924  0.00  0.00    +0.137 A 
ATOM     14  C   UNL     1      -4.410  -2.173   0.012  0.00  0.00    +0.047 A 
ATOM     15  C   UNL     1      -5.385  -2.547   0.939  0.00  0.00    +0.014 A 
BRANCH  13  16
ATOM     16  N   UNL     1      -2.925  -2.714  -1.915  0.00  0.00    +0.057 N 
ATOM     17  O   UNL     1      -2.527  -3.527  -2.731  0.00  0.00    -0.126 OA
ATOM     18  O   UNL     1      -2.475  -1.582  -1.914  0.00  0.00    -0.126 OA
ENDBRANCH  13  16
ENDBRANCH   5  14
ENDBRANCH   1   8
BRANCH   3  19
ATOM     19  C   UNL     1       1.147   1.655   0.000  0.00  0.00    +0.142 C 
ATOM     20  S   UNL     1       1.124   3.367   0.009  0.00  0.00    -0.018 S 
BRANCH  19  21
ATOM     21  N   UNL     1       2.323   0.998  -0.015  0.00  0.00    -0.290 N 
ATOM     22  H   UNL     1       2.336   0.028  -0.020  0.00  0.00    +0.154 HD
BRANCH  21  23
ATOM     23  C   UNL     1       3.515   1.707  -0.022  0.00  0.00    +0.089 A 
ATOM     24  C   UNL     1       4.808   1.216  -0.032  0.00  0.00    +0.084 A 
ATOM     25  C   UNL     1       5.902   2.187  -0.041  0.00  0.00    -0.018 A 
ATOM     26  C   UNL     1       5.520   3.477  -0.031  0.00  0.00    -0.004 A 
ATOM     27  S   UNL     1       3.745   3.423  -0.015  0.00  0.00    -0.077 S 
ATOM     28  C   UNL     1       6.698   4.413  -0.039  0.00  0.00    +0.043 C 
ATOM     29  C   UNL     1       7.887   3.539  -0.493  0.00  0.00    +0.010 C 
ATOM     30  C   UNL     1       7.430   2.134  -0.053  0.00  0.00    +0.037 C 
BRANCH  24  31
ATOM     31  C   UNL     1       5.067  -0.193  -0.036  0.00  0.00    +0.102 C 
ATOM     32  N   UNL     1       5.272  -1.310  -0.039  0.00  0.00    -0.191 NA
ENDBRANCH  24  31
ENDBRANCH  21  23
ENDBRANCH  19  21
ENDBRANCH   3  19
TORSDOF 7
