REMARK  Name = ZINC59158357
REMARK  9 active torsions:
REMARK  status: ('A' for Active; 'I' for Inactive)
REMARK    1  A    between atoms: C_1  and  C_2
REMARK    2  A    between atoms: C_5  and  S_8
REMARK    3  A    between atoms: S_8  and  O_11
REMARK    4  A    between atoms: O_11  and  C_12
REMARK    5  A    between atoms: C_17  and  C_18
REMARK    6  A    between atoms: N_19  and  N_20
REMARK    7  A    between atoms: C_21  and  C_23
REMARK    8  A    between atoms: C_32  and  O_33
REMARK    9  A    between atoms: O_33  and  C_34
REMARK                            x       y       z     vdW  Elec       q    Type
REMARK                         _______ _______ _______ _____ _____    ______ ____
ROOT
ATOM      1  C   UNL     1       1.459  -7.132   1.776  0.00  0.00    +0.142 C 
ATOM      2  N   UNL     1       0.858  -7.277   0.635  0.00  0.00    -0.187 NA
ENDROOT
BRANCH   1   8
ATOM      3  C   UNL     1       2.150  -4.816   1.162  0.00  0.00    +0.165 A 
ATOM      4  C   UNL     1       2.792  -3.629   1.471  0.00  0.00    +0.049 A 
ATOM      5  C   UNL     1       3.431  -3.482   2.688  0.00  0.00    +0.004 A 
ATOM      6  C   UNL     1       3.433  -4.518   3.607  0.00  0.00    +0.001 A 
ATOM      7  C   UNL     1       2.799  -5.707   3.316  0.00  0.00    +0.013 A 
ATOM      8  C   UNL     1       2.145  -5.866   2.091  0.00  0.00    +0.039 A 
BRANCH   3   9
ATOM      9  O   UNL     1       1.522  -4.962  -0.033  0.00  0.00    -0.342 OA
BRANCH   9  10
ATOM     10  S   UNL     1       0.063  -4.530  -0.023  0.00  0.00    +0.151 S 
ATOM     11  O   UNL     1      -0.476  -4.950   1.223  0.00  0.00    -0.131 OA
ATOM     12  O   UNL     1      -0.490  -4.937  -1.267  0.00  0.00    -0.131 OA
BRANCH  10  17
ATOM     13  C   UNL     1      -0.018   1.503   0.010  0.00  0.00    +0.044 C 
ATOM     14  C   UNL     1       0.002  -0.004   0.002  0.00  0.00    -0.050 A 
ATOM     15  C   UNL     1       0.006  -0.689  -1.199  0.00  0.00    +0.005 A 
ATOM     16  C   UNL     1       0.025  -2.071  -1.206  0.00  0.00    +0.031 A 
ATOM     17  C   UNL     1       0.040  -2.768  -0.013  0.00  0.00    +0.128 A 
ATOM     18  C   UNL     1       0.037  -2.084   1.188  0.00  0.00    +0.031 A 
ATOM     19  C   UNL     1       0.023  -0.702   1.195  0.00  0.00    +0.005 A 
ENDBRANCH  10  17
ENDBRANCH   9  10
ENDBRANCH   3   9
ENDBRANCH   1   8
BRANCH   2  20
ATOM     20  N   UNL     1       0.206  -8.480   0.335  0.00  0.00    -0.203 N 
ATOM     21  C   UNL     1      -0.419  -8.631  -0.850  0.00  0.00    +0.267 C 
ATOM     22  O   UNL     1      -0.417  -7.723  -1.659  0.00  0.00    -0.268 OA
ATOM     23  H   UNL     1       0.204  -9.205   0.980  0.00  0.00    +0.178 HD
BRANCH  21  24
ATOM     24  C   UNL     1      -1.104  -9.896  -1.165  0.00  0.00    +0.081 A 
ATOM     25  C   UNL     1      -1.109 -10.943  -0.224  0.00  0.00    +0.017 A 
ATOM     26  C   UNL     1      -1.733 -12.117  -0.490  0.00  0.00    +0.009 A 
ATOM     27  C   UNL     1      -2.389 -12.307  -1.722  0.00  0.00    -0.014 A 
ATOM     28  C   UNL     1      -3.041 -13.516  -2.015  0.00  0.00    +0.008 A 
ATOM     29  C   UNL     1      -3.668 -13.672  -3.214  0.00  0.00    +0.001 A 
ATOM     30  C   UNL     1      -3.673 -12.649  -4.159  0.00  0.00    +0.001 A 
ATOM     31  C   UNL     1      -3.052 -11.463  -3.909  0.00  0.00    +0.012 A 
ATOM     32  C   UNL     1      -2.396 -11.266  -2.683  0.00  0.00    +0.025 A 
ATOM     33  C   UNL     1      -1.749 -10.048  -2.390  0.00  0.00    +0.140 A 
BRANCH  33  34
ATOM     34  O   UNL     1      -1.749  -9.039  -3.293  0.00  0.00    -0.494 OA
ATOM     35  C   UNL     1      -0.674  -9.010  -4.235  0.00  0.00    +0.277 C 
ENDBRANCH  33  34
ENDBRANCH  21  24
ENDBRANCH   2  20
TORSDOF 7
