REMARK  Name = ZINC60090998
REMARK  7 active torsions:
REMARK  status: ('A' for Active; 'I' for Inactive)
REMARK    1  A    between atoms: C_1  and  C_2
REMARK    2  A    between atoms: C_2  and  C_4
REMARK    3  A    between atoms: C_2  and  N_14
REMARK    4  A    between atoms: N_6  and  C_7
REMARK    5  A    between atoms: N_14  and  C_15
REMARK    6  A    between atoms: C_15  and  C_16
REMARK    7  A    between atoms: C_16  and  C_22
REMARK                            x       y       z     vdW  Elec       q    Type
REMARK                         _______ _______ _______ _____ _____    ______ ____
ROOT
ATOM      1  N   UNL     1      -0.186   1.526   2.934  0.00  0.00    +0.387 N 
ATOM      2  H   UNL     1       0.733   1.931   3.027  0.00  0.00    -0.085 HD
ATOM      3  H   UNL     1      -0.703   1.664   3.789  0.00  0.00    -0.085 HD
ENDROOT
BRANCH   1   5
ATOM      4  C   UNL     1      -2.332   1.647   1.760  0.00  0.00    -0.004 C 
ATOM      5  C   UNL     1      -0.896   2.173   1.823  0.00  0.00    +0.013 C 
BRANCH   5   6
ATOM      6  C   UNL     1      -0.917   3.664   2.040  0.00  0.00    +0.203 C 
ATOM      7  O   UNL     1      -0.391   4.141   3.024  0.00  0.00    -0.277 OA
ATOM      8  N   UNL     1      -1.519   4.468   1.141  0.00  0.00    -0.287 N 
ATOM      9  H   UNL     1      -1.879   4.095   0.322  0.00  0.00    +0.155 HD
BRANCH   8  10
ATOM     10  C   UNL     1      -1.625   5.841   1.391  0.00  0.00    +0.034 A 
ATOM     11  C   UNL     1      -2.753   6.538   0.979  0.00  0.00    +0.023 A 
ATOM     12  C   UNL     1      -2.856   7.892   1.227  0.00  0.00    +0.003 A 
ATOM     13  C   UNL     1      -1.836   8.556   1.884  0.00  0.00    +0.015 A 
ATOM     14  C   UNL     1      -0.710   7.865   2.296  0.00  0.00    +0.020 A 
ATOM     15  C   UNL     1      -0.605   6.507   2.056  0.00  0.00    +0.038 A 
ATOM     16 BR   UNL     1       0.682   8.776   3.194  0.00  0.00    -0.050 Br
ENDBRANCH   8  10
ENDBRANCH   5   6
ENDBRANCH   1   5
BRANCH   1  17
ATOM     17  C   UNL     1      -0.061   0.087   2.664  0.00  0.00    -0.070 C 
BRANCH  17  18
ATOM     18  C   UNL     1       0.635  -0.595   3.843  0.00  0.00    -0.015 C 
ATOM     19  C   UNL     1       0.690  -2.106   3.602  0.00  0.00    +0.038 C 
ATOM     20  C   UNL     1      -0.737  -2.657   3.538  0.00  0.00    +0.160 C 
ATOM     21  O   UNL     1      -1.422  -2.343   4.752  0.00  0.00    -0.380 OA
ATOM     22  C   UNL     1      -1.546  -0.943   5.006  0.00  0.00    +0.160 C 
ATOM     23  C   UNL     1      -0.151  -0.323   5.129  0.00  0.00    +0.038 C 
BRANCH  18  24
ATOM     24  C   UNL     1       2.034  -0.053   3.984  0.00  0.00    -0.039 A 
ATOM     25  C   UNL     1       2.538   0.812   3.031  0.00  0.00    +0.008 A 
ATOM     26  C   UNL     1       3.821   1.312   3.156  0.00  0.00    +0.050 A 
ATOM     27  C   UNL     1       4.606   0.945   4.237  0.00  0.00    +0.166 A 
ATOM     28  C   UNL     1       4.098   0.073   5.197  0.00  0.00    +0.167 A 
ATOM     29  C   UNL     1       2.809  -0.419   5.069  0.00  0.00    +0.053 A 
ATOM     30  O   UNL     1       5.054  -0.131   6.151  0.00  0.00    -0.453 OA
ATOM     31  C   UNL     1       6.291   0.300   5.553  0.00  0.00    +0.466 C 
ATOM     32  O   UNL     1       5.879   1.288   4.589  0.00  0.00    -0.453 OA
ENDBRANCH  18  24
ENDBRANCH  17  18
ENDBRANCH   1  17
TORSDOF 6
