REMARK  Name = ZINC56227805
REMARK  5 active torsions:
REMARK  status: ('A' for Active; 'I' for Inactive)
REMARK    1  A    between atoms: C_1  and  N_2
REMARK    2  A    between atoms: N_2  and  C_3
REMARK    3  A    between atoms: C_11  and  C_13
REMARK    4  A    between atoms: C_16  and  N_19
REMARK    5  A    between atoms: C_23  and  C_26
REMARK                            x       y       z     vdW  Elec       q    Type
REMARK                         _______ _______ _______ _____ _____    ______ ____
ROOT
ATOM      1  C   UNL     1      -0.171   0.007  -2.493  0.00  0.00    +0.037 A 
ATOM      2  C   UNL     1      -0.151   1.405  -2.468  0.00  0.00    +0.015 A 
ATOM      3  C   UNL     1      -0.181   2.113  -3.647  0.00  0.00    +0.024 A 
ATOM      4  C   UNL     1      -0.232   1.440  -4.864  0.00  0.00    +0.030 A 
ATOM      5  C   UNL     1      -0.253   0.049  -4.893  0.00  0.00    +0.024 A 
ATOM      6  C   UNL     1      -0.216  -0.666  -3.718  0.00  0.00    +0.015 A 
ENDROOT
BRANCH   4   7
ATOM      7  N   UNL     1      -0.264   2.159  -6.054  0.00  0.00    -0.329 N 
ATOM      8  C   UNL     1      -0.453   1.473  -7.339  0.00  0.00    +0.105 C 
ATOM      9  C   UNL     1      -1.629   2.121  -8.076  0.00  0.00    +0.020 C 
ATOM     10  C   UNL     1      -1.383   3.626  -8.197  0.00  0.00    +0.016 C 
ATOM     11  C   UNL     1      -1.288   4.244  -6.801  0.00  0.00    +0.092 C 
ATOM     12  C   UNL     1      -0.114   3.621  -6.049  0.00  0.00    +0.117 C 
BRANCH  11  13
ATOM     13  C   UNL     1      -1.079   5.732  -6.922  0.00  0.00    +0.215 C 
ATOM     14  O   UNL     1      -0.085   6.245  -6.452  0.00  0.00    -0.276 OA
ATOM     15  N   UNL     1      -1.995   6.492  -7.552  0.00  0.00    -0.329 N 
ATOM     16  H   UNL     1      -2.790   6.082  -7.928  0.00  0.00    +0.145 HD
ATOM     17  H   UNL     1      -1.860   7.450  -7.630  0.00  0.00    +0.145 HD
ENDBRANCH  11  13
ENDBRANCH   4   7
BRANCH   1  20
ATOM     18  C   UNL     1      -1.191   1.139  -0.119  0.00  0.00    +0.138 C 
ATOM     19  N   UNL     1      -0.566  -0.186  -0.088  0.00  0.00    -0.270 N 
ATOM     20  C   UNL     1      -0.138  -0.756  -1.232  0.00  0.00    +0.251 C 
ATOM     21  O   UNL     1       0.276  -1.900  -1.223  0.00  0.00    -0.270 OA
BRANCH  19  22
ATOM     22  C   UNL     1      -0.412  -0.859   1.130  0.00  0.00    +0.039 A 
ATOM     23  C   UNL     1       0.324  -2.035   1.186  0.00  0.00    +0.026 A 
ATOM     24  C   UNL     1       0.476  -2.698   2.388  0.00  0.00    +0.043 A 
ATOM     25  C   UNL     1      -0.107  -2.192   3.538  0.00  0.00    +0.159 A 
ATOM     26  C   UNL     1      -0.844  -1.018   3.485  0.00  0.00    +0.160 A 
ATOM     27  C   UNL     1      -0.992  -0.348   2.284  0.00  0.00    +0.064 A 
ATOM     28  F   UNL     1      -1.412  -0.526   4.607  0.00  0.00    -0.202 F 
ATOM     29  F   UNL     1       0.042  -2.843   4.712  0.00  0.00    -0.202 F 
ENDBRANCH  19  22
ENDBRANCH   1  20
TORSDOF 4
