REMARK  Name = ZINC20287074
REMARK  11 active torsions:
REMARK  status: ('A' for Active; 'I' for Inactive)
REMARK    1  A    between atoms: C_1  and  C_2
REMARK    2  A    between atoms: C_2  and  C_3
REMARK    3  A    between atoms: C_3  and  C_4
REMARK    4  A    between atoms: N_6  and  C_29
REMARK    5  A    between atoms: C_10  and  C_11
REMARK    6  A    between atoms: C_10  and  N_12
REMARK    7  A    between atoms: N_12  and  C_13
REMARK    8  A    between atoms: C_16  and  C_19
REMARK    9  A    between atoms: C_24  and  C_28
REMARK   10  A    between atoms: C_32  and  O_35
REMARK   11  A    between atoms: O_35  and  C_36
REMARK                            x       y       z     vdW  Elec       q    Type
REMARK                         _______ _______ _______ _____ _____    ______ ____
ROOT
ATOM      1  C   UNL     1       1.011  -0.839  -1.079  0.00  0.00    +0.074 C 
ATOM      2  N   UNL     1       0.436  -1.117   0.050  0.00  0.00    -0.176 NA
ATOM      3  N   UNL     1       0.074  -2.463   0.118  0.00  0.00    -0.156 N 
ATOM      4  C   UNL     1       0.428  -3.095  -1.019  0.00  0.00    +0.274 C 
ATOM      5  O   UNL     1       0.258  -4.273  -1.287  0.00  0.00    -0.268 OA
ATOM      6  C   UNL     1       1.056  -2.077  -1.872  0.00  0.00    +0.078 C 
ATOM      7  C   UNL     1       1.577  -2.247  -3.143  0.00  0.00    +0.019 C 
ATOM      8  C   UNL     1       1.533  -3.602  -3.801  0.00  0.00    +0.061 C 
ENDROOT
BRANCH   3   9
ATOM      9  C   UNL     1      -0.564  -3.069   1.209  0.00  0.00    +0.061 A 
ATOM     10  C   UNL     1      -0.873  -4.422   1.169  0.00  0.00    +0.029 A 
ATOM     11  C   UNL     1      -1.502  -5.019   2.244  0.00  0.00    +0.047 A 
ATOM     12  C   UNL     1      -1.825  -4.266   3.363  0.00  0.00    +0.120 A 
ATOM     13  C   UNL     1      -1.518  -2.914   3.404  0.00  0.00    +0.047 A 
ATOM     14  C   UNL     1      -0.883  -2.318   2.332  0.00  0.00    +0.029 A 
BRANCH  12  15
ATOM     15  O   UNL     1      -2.445  -4.854   4.421  0.00  0.00    -0.495 OA
ATOM     16  C   UNL     1      -2.749  -4.019   5.540  0.00  0.00    +0.277 C 
ENDBRANCH  12  15
ENDBRANCH   3   9
BRANCH   7  17
ATOM     17  N   UNL     1       2.126  -1.198  -3.793  0.00  0.00    -0.317 N 
ATOM     18  H   UNL     1       2.895  -0.743  -3.417  0.00  0.00    +0.152 HD
BRANCH  17  19
ATOM     19  C   UNL     1       1.586  -0.770  -5.006  0.00  0.00    +0.031 A 
ATOM     20  C   UNL     1       0.390  -1.313  -5.464  0.00  0.00    +0.024 A 
ATOM     21  C   UNL     1      -0.145  -0.892  -6.661  0.00  0.00    +0.012 A 
ATOM     22  C   UNL     1       0.514   0.081  -7.415  0.00  0.00    +0.007 A 
ATOM     23  C   UNL     1       1.714   0.624  -6.953  0.00  0.00    +0.012 A 
ATOM     24  C   UNL     1       2.242   0.203  -5.752  0.00  0.00    +0.024 A 
BRANCH  22  25
ATOM     25  C   UNL     1      -0.058   0.534  -8.700  0.00  0.00    +0.109 A 
ATOM     26  N   UNL     1      -1.168   0.149  -9.292  0.00  0.00    -0.239 NA
ATOM     27  C   UNL     1      -1.571   0.653 -10.474  0.00  0.00    +0.079 A 
ATOM     28  C   UNL     1      -2.734   0.328 -11.213  0.00  0.00    +0.029 A 
ATOM     29  C   UNL     1      -2.997   0.933 -12.401  0.00  0.00    +0.005 A 
ATOM     30  C   UNL     1      -2.144   1.888 -12.938  0.00  0.00    -0.049 A 
ATOM     31  C   UNL     1      -0.997   2.234 -12.249  0.00  0.00    +0.020 A 
ATOM     32  C   UNL     1      -0.722   1.629 -11.047  0.00  0.00    +0.040 A 
ATOM     33  S   UNL     1       0.580   1.751  -9.844  0.00  0.00    -0.067 S 
ATOM     34  C   UNL     1      -2.465   2.539 -14.258  0.00  0.00    +0.044 C 
ENDBRANCH  22  25
ENDBRANCH  17  19
ENDBRANCH   7  17
BRANCH   1  35
ATOM     35  C   UNL     1       1.533   0.509  -1.505  0.00  0.00    +0.057 C 
BRANCH  35  37
ATOM     36  C   UNL     1       1.820   2.894  -0.819  0.00  0.00    +0.004 C 
ATOM     37  C   UNL     1       1.290   1.526  -0.387  0.00  0.00    +0.003 C 
ENDBRANCH  35  37
ENDBRANCH   1  35
TORSDOF 7
