REMARK  Name = ZINC17960987
REMARK  11 active torsions:
REMARK  status: ('A' for Active; 'I' for Inactive)
REMARK    1  A    between atoms: C_1  and  C_2
REMARK    2  A    between atoms: C_5  and  C_8
REMARK    3  A    between atoms: N_14  and  C_15
REMARK    4  A    between atoms: C_15  and  C_16
REMARK    5  A    between atoms: C_16  and  C_17
REMARK    6  A    between atoms: N_19  and  C_20
REMARK    7  A    between atoms: C_20  and  C_21
REMARK    8  A    between atoms: N_23  and  C_24
REMARK    9  A    between atoms: C_25  and  C_32
REMARK   10  A    between atoms: C_27  and  C_31
REMARK   11  A    between atoms: C_29  and  C_30
REMARK                            x       y       z     vdW  Elec       q    Type
REMARK                         _______ _______ _______ _____ _____    ______ ____
ROOT
ATOM      1  C   UNL     1      -0.680   2.320  -1.362  0.00  0.00    +0.215 C 
ATOM      2  O   UNL     1      -1.643   2.757  -0.769  0.00  0.00    -0.276 OA
ATOM      3  N   UNL     1       0.520   2.919  -1.234  0.00  0.00    -0.307 N 
ATOM      4  H   UNL     1       1.290   2.571  -1.711  0.00  0.00    +0.149 HD
ENDROOT
BRANCH   1   5
ATOM      5  C   UNL     1      -0.827   1.110  -2.248  0.00  0.00    +0.117 C 
BRANCH   5   6
ATOM      6  C   UNL     1      -2.279   0.628  -2.217  0.00  0.00    +0.135 C 
BRANCH   6  13
ATOM      7  C   UNL     1      -2.829  -0.540  -4.398  0.00  0.00    +0.163 A 
ATOM      8  N   UNL     1      -2.833  -1.768  -4.838  0.00  0.00    -0.153 NA
ATOM      9  N   UNL     1      -2.429  -2.606  -3.789  0.00  0.00    -0.254 N 
ATOM     10  H   UNL     1      -2.344  -3.571  -3.828  0.00  0.00    +0.191 HD
ATOM     11  C   UNL     1      -2.183  -1.825  -2.717  0.00  0.00    +0.176 A 
ATOM     12  S   UNL     1      -1.661  -2.359  -1.177  0.00  0.00    -0.011 S 
ATOM     13  N   UNL     1      -2.421  -0.548  -3.079  0.00  0.00    -0.303 N 
BRANCH   7  18
ATOM     14  C   UNL     1      -4.261   4.128  -7.446  0.00  0.00    +0.044 C 
ATOM     15  C   UNL     1      -3.886   2.905  -6.648  0.00  0.00    -0.050 A 
ATOM     16  C   UNL     1      -4.339   1.659  -7.043  0.00  0.00    +0.004 A 
ATOM     17  C   UNL     1      -3.999   0.536  -6.316  0.00  0.00    +0.012 A 
ATOM     18  C   UNL     1      -3.197   0.660  -5.181  0.00  0.00    +0.019 A 
ATOM     19  C   UNL     1      -2.748   1.920  -4.785  0.00  0.00    +0.012 A 
ATOM     20  C   UNL     1      -3.090   3.034  -5.523  0.00  0.00    +0.004 A 
ENDBRANCH   7  18
ENDBRANCH   6  13
ENDBRANCH   5   6
ENDBRANCH   1   5
BRANCH   3  21
ATOM     21  C   UNL     1       0.663   4.096  -0.372  0.00  0.00    +0.200 C 
BRANCH  21  22
ATOM     22  C   UNL     1       2.093   4.570  -0.403  0.00  0.00    +0.234 C 
ATOM     23  O   UNL     1       2.913   3.983  -1.077  0.00  0.00    -0.274 OA
ATOM     24  N   UNL     1       2.462   5.646   0.320  0.00  0.00    -0.284 N 
ATOM     25  H   UNL     1       1.828   6.066   0.922  0.00  0.00    +0.155 HD
BRANCH  24  26
ATOM     26  C   UNL     1       3.759   6.157   0.202  0.00  0.00    +0.039 A 
ATOM     27  C   UNL     1       4.854   5.339   0.445  0.00  0.00    -0.029 A 
ATOM     28  C   UNL     1       6.133   5.846   0.324  0.00  0.00    +0.008 A 
ATOM     29  C   UNL     1       6.324   7.169  -0.031  0.00  0.00    -0.050 A 
ATOM     30  C   UNL     1       5.235   7.987  -0.269  0.00  0.00    +0.008 A 
ATOM     31  C   UNL     1       3.954   7.486  -0.154  0.00  0.00    -0.029 A 
ATOM     32  C   UNL     1       2.768   8.379  -0.414  0.00  0.00    +0.045 C 
ATOM     33  C   UNL     1       7.721   7.720  -0.158  0.00  0.00    +0.044 C 
ATOM     34  C   UNL     1       4.647   3.899   0.837  0.00  0.00    +0.045 C 
ENDBRANCH  24  26
ENDBRANCH  21  22
ENDBRANCH   3  21
TORSDOF 7
