REMARK  Name = ZINC36013887
REMARK  10 active torsions:
REMARK  status: ('A' for Active; 'I' for Inactive)
REMARK    1  A    between atoms: C_1  and  C_2
REMARK    2  A    between atoms: C_2  and  N_3
REMARK    3  A    between atoms: C_4  and  C_23
REMARK    4  A    between atoms: C_5  and  C_18
REMARK    5  A    between atoms: C_6  and  C_11
REMARK    6  A    between atoms: C_18  and  O_20
REMARK    7  A    between atoms: O_20  and  C_21
REMARK    8  A    between atoms: C_21  and  C_22
REMARK    9  A    between atoms: C_23  and  N_24
REMARK   10  A    between atoms: C_31  and  C_33
REMARK                            x       y       z     vdW  Elec       q    Type
REMARK                         _______ _______ _______ _____ _____    ______ ____
ROOT
ATOM      1  N   UNL     1      -2.114  -1.228   0.454  0.00  0.00    -0.261 N 
ATOM      2  C   UNL     1      -1.760  -2.267   1.268  0.00  0.00    +0.010 C 
ATOM      3  C   UNL     1      -2.231  -3.514   1.050  0.00  0.00    +0.076 C 
ATOM      4  C   UNL     1      -3.164  -3.721  -0.126  0.00  0.00    +0.143 C 
ATOM      5  N   UNL     1      -3.483  -2.536  -0.940  0.00  0.00    -0.288 N 
ATOM      6  C   UNL     1      -2.937  -1.353  -0.594  0.00  0.00    +0.307 C 
ATOM      7  O   UNL     1      -3.198  -0.369  -1.258  0.00  0.00    -0.252 OA
ATOM      8  H   UNL     1      -4.074  -2.605  -1.706  0.00  0.00    +0.151 HD
ENDROOT
BRANCH   4   9
ATOM      9  C   UNL     1      -4.458  -4.283   0.402  0.00  0.00    -0.022 A 
ATOM     10  C   UNL     1      -5.396  -3.442   0.972  0.00  0.00    +0.007 A 
ATOM     11  C   UNL     1      -6.583  -3.958   1.456  0.00  0.00    +0.020 A 
ATOM     12  C   UNL     1      -6.834  -5.316   1.370  0.00  0.00    +0.041 A 
ATOM     13  C   UNL     1      -5.895  -6.157   0.800  0.00  0.00    +0.020 A 
ATOM     14  C   UNL     1      -4.710  -5.639   0.311  0.00  0.00    +0.007 A 
ATOM     15 CL   UNL     1      -8.325  -5.964   1.979  0.00  0.00    -0.084 Cl
ENDBRANCH   4   9
BRANCH   1  17
ATOM     16  C   UNL     1      -2.575   0.894   1.580  0.00  0.00    +0.025 C 
ATOM     17  C   UNL     1      -1.566   0.098   0.749  0.00  0.00    +0.111 C 
ENDBRANCH   1  17
BRANCH   3  18
ATOM     18  C   UNL     1      -1.864  -4.591   1.891  0.00  0.00    +0.339 C 
ATOM     19  O   UNL     1      -1.204  -4.383   2.892  0.00  0.00    -0.245 OA
BRANCH  18  20
ATOM     20  O   UNL     1      -2.247  -5.848   1.584  0.00  0.00    -0.462 OA
BRANCH  20  21
ATOM     21  C   UNL     1      -1.842  -6.886   2.478  0.00  0.00    +0.229 C 
ATOM     22  C   UNL     1      -2.365  -8.231   1.968  0.00  0.00    +0.048 C 
ENDBRANCH  20  21
ENDBRANCH  18  20
ENDBRANCH   3  18
BRANCH   2  23
ATOM     23  C   UNL     1      -0.829  -2.017   2.426  0.00  0.00    -0.026 C 
BRANCH  23  24
ATOM     24  N   UNL     1       0.533  -2.424   2.057  0.00  0.00    +0.384 N 
ATOM     25  C   UNL     1       1.355  -2.433   3.264  0.00  0.00    -0.077 C 
ATOM     26  C   UNL     1       2.450  -3.466   3.115  0.00  0.00    +0.000 C 
ATOM     27  C   UNL     1       3.719  -2.791   2.562  0.00  0.00    +0.106 C 
ATOM     28  N   UNL     1       3.381  -1.796   1.524  0.00  0.00    -0.303 N 
ATOM     29  C   UNL     1       2.370  -2.040   0.516  0.00  0.00    +0.089 C 
ATOM     30  C   UNL     1       0.991  -1.567   1.031  0.00  0.00    -0.059 C 
ATOM     31  C   UNL     1       4.037  -0.619   1.515  0.00  0.00    +0.219 C 
ATOM     32  O   UNL     1       3.711   0.251   0.735  0.00  0.00    -0.275 OA
ATOM     33  H   UNL     1       0.495  -3.364   1.693  0.00  0.00    -0.081 HD
BRANCH  31  34
ATOM     34  C   UNL     1       5.176  -0.384   2.473  0.00  0.00    +0.075 C 
ATOM     35  C   UNL     1       4.627  -0.017   3.867  0.00  0.00    +0.013 C 
ATOM     36  C   UNL     1       5.620   1.046   4.399  0.00  0.00    +0.001 C 
ATOM     37  C   UNL     1       5.955   1.867   3.130  0.00  0.00    +0.001 C 
ATOM     38  C   UNL     1       6.021   0.814   2.004  0.00  0.00    +0.013 C 
ENDBRANCH  31  34
ENDBRANCH  23  24
ENDBRANCH   2  23
TORSDOF 8
