REMARK  Name = ZINC09239591
REMARK  10 active torsions:
REMARK  status: ('A' for Active; 'I' for Inactive)
REMARK    1  A    between atoms: C_1  and  C_2
REMARK    2  A    between atoms: C_2  and  C_3
REMARK    3  A    between atoms: C_3  and  C_4
REMARK    4  A    between atoms: C_10  and  C_26
REMARK    5  A    between atoms: C_12  and  C_15
REMARK    6  A    between atoms: N_17  and  C_18
REMARK    7  A    between atoms: C_22  and  C_25
REMARK    8  A    between atoms: C_23  and  C_24
REMARK    9  A    between atoms: C_29  and  C_32
REMARK   10  A    between atoms: C_32  and  C_33
REMARK                            x       y       z     vdW  Elec       q    Type
REMARK                         _______ _______ _______ _____ _____    ______ ____
ROOT
ATOM      1  C   UNL     1       5.532   1.297  -2.017  0.00  0.00    +0.151 A 
ATOM      2  N   UNL     1       6.574   0.585  -1.688  0.00  0.00    -0.132 NA
ATOM      3  N   UNL     1       6.380   0.014  -0.549  0.00  0.00    -0.121 NA
ATOM      4  C   UNL     1       5.199   0.335  -0.099  0.00  0.00    +0.209 A 
ATOM      5  N   UNL     1       4.617   1.169  -1.011  0.00  0.00    -0.225 N 
ATOM      6  N   UNL     1       3.394   1.753  -0.921  0.00  0.00    -0.272 N 
ATOM      7  C   UNL     1       2.475   1.058  -0.018  0.00  0.00    +0.140 C 
ATOM      8  C   UNL     1       3.056   1.014   1.401  0.00  0.00    +0.166 C 
ATOM      9  S   UNL     1       4.429  -0.177   1.405  0.00  0.00    -0.069 S 
ATOM     10  H   UNL     1       2.984   1.869  -1.836  0.00  0.00    +0.167 HD
ENDROOT
BRANCH   7  11
ATOM     11  C   UNL     1       1.156   1.785   0.005  0.00  0.00    -0.024 A 
ATOM     12  C   UNL     1      -0.027   1.070   0.016  0.00  0.00    +0.006 A 
ATOM     13  C   UNL     1      -1.238   1.737   0.032  0.00  0.00    +0.004 A 
ATOM     14  C   UNL     1      -1.266   3.119   0.048  0.00  0.00    -0.048 A 
ATOM     15  C   UNL     1      -0.083   3.834   0.036  0.00  0.00    +0.004 A 
ATOM     16  C   UNL     1       1.128   3.167   0.015  0.00  0.00    +0.006 A 
BRANCH  14  17
ATOM     17  C   UNL     1      -2.586   3.846   0.071  0.00  0.00    +0.032 C 
ATOM     18  C   UNL     1      -3.052   4.102  -1.363  0.00  0.00    +0.009 C 
ENDBRANCH  14  17
ENDBRANCH   7  11
BRANCH   8  19
ATOM     19  C   UNL     1       1.993   0.571   2.373  0.00  0.00    +0.233 C 
ATOM     20  O   UNL     1       1.164  -0.247   2.034  0.00  0.00    -0.274 OA
ATOM     21  N   UNL     1       1.964   1.083   3.620  0.00  0.00    -0.284 N 
ATOM     22  H   UNL     1       2.672   1.675   3.918  0.00  0.00    +0.155 HD
BRANCH  21  23
ATOM     23  C   UNL     1       0.912   0.760   4.484  0.00  0.00    +0.037 A 
ATOM     24  C   UNL     1      -0.318   0.373   3.969  0.00  0.00    +0.023 A 
ATOM     25  C   UNL     1      -1.354   0.055   4.825  0.00  0.00    +0.002 A 
ATOM     26  C   UNL     1      -1.168   0.121   6.194  0.00  0.00    +0.004 A 
ATOM     27  C   UNL     1       0.056   0.506   6.710  0.00  0.00    -0.046 A 
ATOM     28  C   UNL     1       1.098   0.820   5.859  0.00  0.00    -0.026 A 
ATOM     29  C   UNL     1       2.433   1.233   6.422  0.00  0.00    +0.046 C 
ATOM     30  C   UNL     1       0.255   0.576   8.202  0.00  0.00    +0.044 C 
ENDBRANCH  21  23
ENDBRANCH   8  19
BRANCH   1  31
ATOM     31  C   UNL     1       5.367   2.111  -3.275  0.00  0.00    +0.078 C 
BRANCH  31  33
ATOM     32  C   UNL     1       5.716   4.357  -4.312  0.00  0.00    +0.004 C 
ATOM     33  C   UNL     1       5.883   3.531  -3.035  0.00  0.00    +0.004 C 
ENDBRANCH  31  33
ENDBRANCH   1  31
TORSDOF 6
