REMARK  Name = ZINC09578550
REMARK  7 active torsions:
REMARK  status: ('A' for Active; 'I' for Inactive)
REMARK    1  A    between atoms: C_1  and  C_2
REMARK    2  A    between atoms: C_2  and  C_25
REMARK    3  A    between atoms: N_5  and  C_9
REMARK    4  A    between atoms: C_9  and  C_10
REMARK    5  A    between atoms: N_12  and  C_13
REMARK    6  A    between atoms: N_12  and  C_19
REMARK    7  A    between atoms: C_13  and  C_14
REMARK                            x       y       z     vdW  Elec       q    Type
REMARK                         _______ _______ _______ _____ _____    ______ ____
ROOT
ATOM      1  C   UNL     1      -5.784   1.963   1.757  0.00  0.00    +0.047 C 
ATOM      2  C   UNL     1      -5.212   1.951   0.338  0.00  0.00    +0.135 C 
ATOM      3  C   UNL     1      -6.230   2.477  -0.655  0.00  0.00    +0.251 C 
ATOM      4  O   UNL     1      -6.727   3.583  -0.678  0.00  0.00    -0.272 OA
ATOM      5  N   UNL     1      -6.467   1.460  -1.507  0.00  0.00    -0.215 N 
ATOM      6  C   UNL     1      -5.749   0.376  -1.194  0.00  0.00    +0.310 C 
ATOM      7  O   UNL     1      -5.793  -0.667  -1.817  0.00  0.00    -0.252 OA
ATOM      8  N   UNL     1      -4.972   0.569  -0.113  0.00  0.00    -0.281 N 
ATOM      9  H   UNL     1      -4.372  -0.076   0.292  0.00  0.00    +0.152 HD
ENDROOT
BRANCH   2  10
ATOM     10  C   UNL     1      -3.941   2.758   0.273  0.00  0.00    -0.015 A 
ATOM     11  C   UNL     1      -4.008   4.124   0.004  0.00  0.00    +0.007 A 
ATOM     12  C   UNL     1      -2.880   4.881  -0.061  0.00  0.00    +0.009 A 
ATOM     13  C   UNL     1      -1.626   4.281   0.146  0.00  0.00    -0.018 A 
ATOM     14  C   UNL     1      -0.439   5.031   0.087  0.00  0.00    +0.008 A 
ATOM     15  C   UNL     1       0.757   4.415   0.293  0.00  0.00    +0.001 A 
ATOM     16  C   UNL     1       0.824   3.049   0.562  0.00  0.00    +0.001 A 
ATOM     17  C   UNL     1      -0.304   2.291   0.626  0.00  0.00    +0.008 A 
ATOM     18  C   UNL     1      -1.557   2.891   0.413  0.00  0.00    -0.018 A 
ATOM     19  C   UNL     1      -2.745   2.142   0.478  0.00  0.00    +0.014 A 
ENDBRANCH   2  10
BRANCH   5  20
ATOM     20  C   UNL     1      -7.398   1.533  -2.636  0.00  0.00    +0.214 C 
BRANCH  20  21
ATOM     21  C   UNL     1      -8.770   1.102  -2.186  0.00  0.00    +0.238 C 
ATOM     22  O   UNL     1      -8.952   0.767  -1.034  0.00  0.00    -0.274 OA
ATOM     23  N   UNL     1      -9.793   1.089  -3.062  0.00  0.00    -0.267 N 
BRANCH  23  24
ATOM     24  C   UNL     1     -11.036   0.595  -2.673  0.00  0.00    +0.010 C 
ATOM     25  C   UNL     1     -11.116  -0.661  -2.331  0.00  0.00    -0.008 C 
ATOM     26  C   UNL     1     -12.386  -1.331  -1.895  0.00  0.00    +0.029 C 
ATOM     27  C   UNL     1     -13.434  -0.282  -1.516  0.00  0.00    +0.004 C 
ATOM     28  C   UNL     1     -13.516   0.753  -2.645  0.00  0.00    +0.006 C 
ATOM     29  C   UNL     1     -12.203   1.539  -2.678  0.00  0.00    +0.051 C 
ENDBRANCH  23  24
BRANCH  23  30
ATOM     30  C   UNL     1      -9.600   1.595  -4.423  0.00  0.00    +0.187 C 
BRANCH  30  31
ATOM     31  C   UNL     1      -9.258   0.449  -5.340  0.00  0.00    +0.122 A 
ATOM     32  C   UNL     1     -10.141  -0.299  -6.026  0.00  0.00    +0.046 A 
ATOM     33  C   UNL     1      -9.392  -1.253  -6.753  0.00  0.00    +0.041 A 
ATOM     34  C   UNL     1      -8.097  -1.030  -6.468  0.00  0.00    +0.195 A 
ATOM     35  O   UNL     1      -8.021   0.005  -5.617  0.00  0.00    -0.466 OA
ENDBRANCH  30  31
ENDBRANCH  23  30
ENDBRANCH  20  21
ENDBRANCH   5  20
TORSDOF 6
