REMARK  Name = ZINC03366466
REMARK  4 active torsions:
REMARK  status: ('A' for Active; 'I' for Inactive)
REMARK    1  A    between atoms: C_3  and  O_13
REMARK    2  A    between atoms: O_13  and  C_14
REMARK    3  A    between atoms: C_14  and  C_15
REMARK    4  A    between atoms: N_20  and  C_21
REMARK                            x       y       z     vdW  Elec       q    Type
REMARK                         _______ _______ _______ _____ _____    ______ ____
ROOT
ATOM      1  C   UNL     1       3.244   3.626  -0.010  0.00  0.00    +0.326 C 
ENDROOT
BRANCH   1   2
ATOM      2  C   UNL     1       4.593   4.298  -0.020  0.00  0.00    +0.258 C 
ATOM      3  O   UNL     1       5.603   3.628  -0.034  0.00  0.00    -0.272 OA
ATOM      4  N   UNL     1       4.676   5.643  -0.014  0.00  0.00    -0.237 N 
ATOM      5  C   UNL     1       5.883   6.243  -0.023  0.00  0.00    +0.306 C 
ATOM      6  O   UNL     1       6.896   5.572  -0.036  0.00  0.00    -0.252 OA
ATOM      7  N   UNL     1       5.966   7.588  -0.016  0.00  0.00    -0.296 N 
ATOM      8  H   UNL     1       3.868   6.179  -0.003  0.00  0.00    +0.159 HD
ATOM      9  H   UNL     1       5.158   8.124  -0.005  0.00  0.00    +0.151 HD
BRANCH   7  10
ATOM     10  C   UNL     1       7.278   8.241  -0.026  0.00  0.00    +0.074 C 
ATOM     11  C   UNL     1       7.761   8.435  -1.478  0.00  0.00    +0.022 C 
ATOM     12  C   UNL     1       7.338   9.884  -1.828  0.00  0.00    +0.002 C 
ATOM     13  C   UNL     1       7.595  10.644  -0.503  0.00  0.00    +0.002 C 
ATOM     14  C   UNL     1       7.172   9.646   0.594  0.00  0.00    +0.022 C 
ENDBRANCH   7  10
ENDBRANCH   1   2
BRANCH   1  15
ATOM     15  O   UNL     1       3.417   2.208  -0.020  0.00  0.00    -0.466 OA
BRANCH  15  18
ATOM     16  C   UNL     1      -0.016   1.315   0.009  0.00  0.00    +0.226 A 
ATOM     17  N   UNL     1       1.101   2.021   0.002  0.00  0.00    -0.201 NA
ATOM     18  C   UNL     1       2.294   1.451  -0.013  0.00  0.00    +0.227 A 
ATOM     19  C   UNL     1       2.381   0.034  -0.022  0.00  0.00    +0.073 A 
ATOM     20  C   UNL     1       3.587  -0.810  -0.039  0.00  0.00    -0.023 A 
ATOM     21  C   UNL     1       3.398  -2.139  -0.045  0.00  0.00    -0.004 A 
ATOM     22  S   UNL     1       1.633  -2.356  -0.025  0.00  0.00    -0.073 S 
ATOM     23  C   UNL     1       1.151  -0.651  -0.013  0.00  0.00    +0.116 A 
ATOM     24  N   UNL     1       0.002  -0.004   0.002  0.00  0.00    -0.228 NA
ATOM     25  C   UNL     1       4.698  -2.898  -0.068  0.00  0.00    +0.043 C 
ATOM     26  C   UNL     1       5.748  -1.855  -0.511  0.00  0.00    +0.010 C 
ATOM     27  C   UNL     1       5.094  -0.538  -0.049  0.00  0.00    +0.037 C 
ENDBRANCH  15  18
ENDBRANCH   1  15
TORSDOF 4
