REMARK  Name = ZINC63654397
REMARK  4 active torsions:
REMARK  status: ('A' for Active; 'I' for Inactive)
REMARK    1  A    between atoms: C_8  and  C_18
REMARK    2  A    between atoms: N_9  and  C_10
REMARK    3  A    between atoms: C_10  and  C_11
REMARK    4  A    between atoms: C_24  and  C_26
REMARK                            x       y       z     vdW  Elec       q    Type
REMARK                         _______ _______ _______ _____ _____    ______ ____
ROOT
ATOM      1  C   UNL     1      -0.138   1.157   0.218  0.00  0.00    +0.001 A 
ATOM      2  C   UNL     1       0.947   1.810   0.790  0.00  0.00    +0.002 A 
ATOM      3  C   UNL     1       2.176   1.195   0.867  0.00  0.00    +0.026 A 
ATOM      4  C   UNL     1       2.337  -0.094   0.366  0.00  0.00    +0.050 A 
ATOM      5  C   UNL     1       1.236  -0.754  -0.213  0.00  0.00    +0.001 A 
ATOM      6  C   UNL     1      -0.005  -0.106  -0.279  0.00  0.00    +0.010 A 
ATOM      7  C   UNL     1       1.690  -2.030  -0.627  0.00  0.00    +0.041 A 
ATOM      8  C   UNL     1       3.007  -2.124  -0.307  0.00  0.00    +0.106 A 
ATOM      9  N   UNL     1       3.411  -0.950   0.299  0.00  0.00    -0.332 N 
ENDROOT
BRANCH   8  10
ATOM     10  C   UNL     1       3.865  -3.290  -0.564  0.00  0.00    +0.263 C 
ATOM     11  O   UNL     1       5.068  -3.146  -0.678  0.00  0.00    -0.268 OA
ATOM     12  N   UNL     1       3.320  -4.517  -0.672  0.00  0.00    -0.296 N 
ATOM     13  C   UNL     1       1.890  -4.728  -0.407  0.00  0.00    +0.108 C 
ATOM     14  C   UNL     1       1.741  -5.842   0.634  0.00  0.00    +0.020 C 
ATOM     15  C   UNL     1       2.480  -7.091   0.147  0.00  0.00    +0.016 C 
ATOM     16  C   UNL     1       3.969  -6.775  -0.011  0.00  0.00    +0.092 C 
ATOM     17  C   UNL     1       4.143  -5.670  -1.064  0.00  0.00    +0.120 C 
BRANCH  16  18
ATOM     18  C   UNL     1       4.701  -8.014  -0.459  0.00  0.00    +0.215 C 
ATOM     19  O   UNL     1       4.092  -9.048  -0.634  0.00  0.00    -0.276 OA
ATOM     20  N   UNL     1       6.032  -7.973  -0.664  0.00  0.00    -0.329 N 
ATOM     21  H   UNL     1       6.519  -7.146  -0.524  0.00  0.00    +0.145 HD
ATOM     22  H   UNL     1       6.503  -8.770  -0.953  0.00  0.00    +0.145 HD
ENDBRANCH  16  18
ENDBRANCH   8  10
BRANCH   9  23
ATOM     23  C   UNL     1       4.761  -0.663   0.788  0.00  0.00    +0.160 C 
BRANCH  23  24
ATOM     24  C   UNL     1       4.823  -0.920   2.272  0.00  0.00    +0.007 A 
ATOM     25  C   UNL     1       4.538   0.099   3.162  0.00  0.00    +0.008 A 
ATOM     26  C   UNL     1       4.594  -0.136   4.523  0.00  0.00    +0.000 A 
ATOM     27  C   UNL     1       4.936  -1.389   4.996  0.00  0.00    +0.003 A 
ATOM     28  C   UNL     1       5.221  -2.409   4.108  0.00  0.00    +0.039 A 
ATOM     29  C   UNL     1       5.160  -2.177   2.744  0.00  0.00    +0.128 A 
ATOM     30  F   UNL     1       5.434  -3.174   1.876  0.00  0.00    -0.205 F 
ENDBRANCH  23  24
ENDBRANCH   9  23
TORSDOF 4
