REMARK  Name = ZINC57844550
REMARK  9 active torsions:
REMARK  status: ('A' for Active; 'I' for Inactive)
REMARK    1  A    between atoms: C_1  and  C_2
REMARK    2  A    between atoms: C_2  and  C_3
REMARK    3  A    between atoms: C_3  and  C_16
REMARK    4  A    between atoms: N_6  and  C_10
REMARK    5  A    between atoms: C_10  and  C_11
REMARK    6  A    between atoms: C_11  and  C_13
REMARK    7  A    between atoms: C_11  and  C_14
REMARK    8  A    between atoms: C_19  and  C_23
REMARK    9  A    between atoms: C_21  and  C_22
REMARK                            x       y       z     vdW  Elec       q    Type
REMARK                         _______ _______ _______ _____ _____    ______ ____
ROOT
ATOM      1  C   UNL     1       0.746  -0.512   1.289  0.00  0.00    +0.138 C 
ATOM      2  C   UNL     1       0.331  -0.041   2.669  0.00  0.00    +0.251 C 
ATOM      3  O   UNL     1      -0.702  -0.296   3.250  0.00  0.00    -0.272 OA
ATOM      4  N   UNL     1       1.349   0.721   3.116  0.00  0.00    -0.223 N 
ATOM      5  C   UNL     1       2.339   0.796   2.219  0.00  0.00    +0.310 C 
ATOM      6  O   UNL     1       3.364   1.425   2.396  0.00  0.00    -0.252 OA
ATOM      7  N   UNL     1       2.075   0.096   1.101  0.00  0.00    -0.281 N 
ATOM      8  H   UNL     1       2.647   0.009   0.323  0.00  0.00    +0.152 HD
ENDROOT
BRANCH   1   9
ATOM      9  C   UNL     1       0.840  -2.015   1.245  0.00  0.00    -0.012 A 
ATOM     10  C   UNL     1       2.075  -2.628   1.141  0.00  0.00    +0.007 A 
ATOM     11  C   UNL     1       2.161  -4.007   1.100  0.00  0.00    +0.004 A 
ATOM     12  C   UNL     1       1.012  -4.773   1.163  0.00  0.00    -0.050 A 
ATOM     13  C   UNL     1      -0.223  -4.161   1.268  0.00  0.00    +0.007 A 
ATOM     14  C   UNL     1      -0.308  -2.781   1.313  0.00  0.00    -0.045 A 
ATOM     15  C   UNL     1      -1.654  -2.114   1.433  0.00  0.00    +0.044 C 
ATOM     16  C   UNL     1       1.105  -6.277   1.118  0.00  0.00    +0.044 C 
ENDBRANCH   1   9
BRANCH   1  18
ATOM     17  C   UNL     1      -0.256   1.526   0.248  0.00  0.00    +0.007 C 
ATOM     18  C   UNL     1      -0.234  -0.003   0.230  0.00  0.00    +0.037 C 
ENDBRANCH   1  18
BRANCH   4  19
ATOM     19  C   UNL     1       1.369   1.386   4.421  0.00  0.00    +0.136 C 
BRANCH  19  20
ATOM     20  C   UNL     1       1.991   0.451   5.460  0.00  0.00    +0.106 C 
ATOM     21  C   UNL     1       1.096  -0.776   5.644  0.00  0.00    +0.025 C 
BRANCH  20  22
ATOM     22  C   UNL     1       2.121   1.160   6.743  0.00  0.00    +0.067 C 
ATOM     23  N   UNL     1       2.221   1.708   7.734  0.00  0.00    -0.196 NA
ENDBRANCH  20  22
ENDBRANCH  19  20
ENDBRANCH   4  19
TORSDOF 5
