REMARK  Name = ZINC39658845
REMARK  9 active torsions:
REMARK  status: ('A' for Active; 'I' for Inactive)
REMARK    1  A    between atoms: C_1  and  C_2
REMARK    2  A    between atoms: C_2  and  C_3
REMARK    3  A    between atoms: C_2  and  C_4
REMARK    4  A    between atoms: C_4  and  C_6
REMARK    5  A    between atoms: C_4  and  O_29
REMARK    6  A    between atoms: C_10  and  C_19
REMARK    7  A    between atoms: N_21  and  C_22
REMARK    8  A    between atoms: C_22  and  C_23
REMARK    9  A    between atoms: O_29  and  C_30
REMARK                            x       y       z     vdW  Elec       q    Type
REMARK                         _______ _______ _______ _____ _____    ______ ____
ROOT
ATOM      1  C   UNL     1      -1.638  -2.225   1.310  0.00  0.00    +0.257 C 
ATOM      2  O   UNL     1      -1.904  -3.096   0.508  0.00  0.00    -0.272 OA
ATOM      3  N   UNL     1      -1.056  -2.544   2.482  0.00  0.00    -0.297 N 
ATOM      4  C   UNL     1      -0.767  -1.647   3.626  0.00  0.00    +0.121 C 
ATOM      5  C   UNL     1      -1.083  -2.497   4.878  0.00  0.00    +0.100 C 
ATOM      6  C   UNL     1      -0.943  -3.955   4.407  0.00  0.00    -0.004 C 
ATOM      7  C   UNL     1      -0.564  -3.872   2.921  0.00  0.00    +0.115 C 
ATOM      8  C   UNL     1       0.157  -4.660   5.195  0.00  0.00    -0.010 C 
ATOM      9  C   UNL     1       0.238  -6.124   4.751  0.00  0.00    -0.082 C 
ATOM     10  N   UNL     1      -1.055  -6.780   4.981  0.00  0.00    +0.379 N 
ATOM     11  C   UNL     1      -2.089  -6.154   4.149  0.00  0.00    -0.082 C 
ATOM     12  C   UNL     1      -2.269  -4.692   4.568  0.00  0.00    -0.010 C 
ATOM     13  H   UNL     1      -0.981  -7.758   4.745  0.00  0.00    -0.086 HD
ATOM     14  H   UNL     1      -1.307  -6.689   5.954  0.00  0.00    -0.086 HD
ENDROOT
BRANCH   5  15
ATOM     15  C   UNL     1      -2.488  -2.229   5.353  0.00  0.00    +0.218 C 
ATOM     16  O   UNL     1      -3.359  -1.963   4.551  0.00  0.00    -0.275 OA
ATOM     17  N   UNL     1      -2.777  -2.286   6.668  0.00  0.00    -0.313 N 
ATOM     18  H   UNL     1      -2.080  -2.499   7.309  0.00  0.00    +0.149 HD
BRANCH  17  19
ATOM     19  C   UNL     1      -4.143  -2.026   7.130  0.00  0.00    +0.135 C 
BRANCH  19  20
ATOM     20  C   UNL     1      -4.199  -2.153   8.653  0.00  0.00    +0.135 C 
ATOM     21  C   UNL     1      -5.644  -1.915   9.160  0.00  0.00    +0.035 C 
ATOM     22  C   UNL     1      -5.616  -2.693  10.504  0.00  0.00    +0.031 C 
ATOM     23  C   UNL     1      -4.676  -3.873  10.180  0.00  0.00    +0.160 C 
ATOM     24  O   UNL     1      -3.874  -3.493   9.054  0.00  0.00    -0.375 OA
ENDBRANCH  19  20
ENDBRANCH  17  19
ENDBRANCH   5  15
BRANCH   1  25
ATOM     25  C   UNL     1      -1.959  -0.787   0.994  0.00  0.00    +0.261 C 
BRANCH  25  27
ATOM     26  C   UNL     1      -1.022   1.379   0.174  0.00  0.00    +0.011 C 
ATOM     27  C   UNL     1      -0.712  -0.096   0.440  0.00  0.00    +0.033 C 
ATOM     28  C   UNL     1       0.425  -0.202   1.459  0.00  0.00    +0.011 C 
ENDBRANCH  25  27
BRANCH  25  29
ATOM     29  O   UNL     1      -3.004  -0.735   0.021  0.00  0.00    -0.479 OA
BRANCH  29  30
ATOM     30  C   UNL     1      -3.974   0.200   0.206  0.00  0.00    +0.122 A 
ATOM     31  C   UNL     1      -5.083   0.224  -0.626  0.00  0.00    +0.045 A 
ATOM     32  C   UNL     1      -6.067   1.175  -0.436  0.00  0.00    +0.004 A 
ATOM     33  C   UNL     1      -5.947   2.101   0.584  0.00  0.00    +0.000 A 
ATOM     34  C   UNL     1      -4.842   2.079   1.414  0.00  0.00    +0.004 A 
ATOM     35  C   UNL     1      -3.858   1.127   1.232  0.00  0.00    +0.045 A 
ENDBRANCH  29  30
ENDBRANCH  25  29
ENDBRANCH   1  25
TORSDOF 7
