REMARK  Name = ZINC39243273
REMARK  9 active torsions:
REMARK  status: ('A' for Active; 'I' for Inactive)
REMARK    1  A    between atoms: C_1  and  C_2
REMARK    2  A    between atoms: C_2  and  C_3
REMARK    3  A    between atoms: C_3  and  C_4
REMARK    4  A    between atoms: C_6  and  C_18
REMARK    5  A    between atoms: C_8  and  C_16
REMARK    6  A    between atoms: C_9  and  N_15
REMARK    7  A    between atoms: C_21  and  O_24
REMARK    8  A    between atoms: O_24  and  C_25
REMARK    9  A    between atoms: C_25  and  C_26
REMARK                            x       y       z     vdW  Elec       q    Type
REMARK                         _______ _______ _______ _____ _____    ______ ____
ROOT
ATOM      1  C   UNL     1       0.739  -2.004  -1.265  0.00  0.00    +0.069 C 
ATOM      2  C   UNL     1      -0.135  -2.762  -1.882  0.00  0.00    +0.030 C 
ATOM      3  C   UNL     1      -1.270  -2.477  -2.828  0.00  0.00    +0.098 C 
ATOM      4  C   UNL     1      -1.180  -3.541  -3.905  0.00  0.00    +0.097 C 
ATOM      5  C   UNL     1      -0.337  -4.590  -3.798  0.00  0.00    +0.195 C 
ATOM      6  O   UNL     1       0.524  -4.828  -2.792  0.00  0.00    -0.448 OA
ATOM      7  C   UNL     1       0.266  -4.197  -1.536  0.00  0.00    +0.343 C 
ATOM      8  N   UNL     1       1.490  -3.990  -0.756  0.00  0.00    -0.138 NA
ATOM      9  N   UNL     1       1.668  -2.771  -0.639  0.00  0.00    -0.155 NA
ENDROOT
BRANCH   3  10
ATOM     10  C   UNL     1      -2.588  -2.575  -2.104  0.00  0.00    -0.035 A 
ATOM     11  C   UNL     1      -2.956  -3.763  -1.498  0.00  0.00    +0.008 A 
ATOM     12  C   UNL     1      -4.164  -3.856  -0.834  0.00  0.00    +0.046 A 
ATOM     13  C   UNL     1      -5.008  -2.756  -0.775  0.00  0.00    +0.121 A 
ATOM     14  C   UNL     1      -4.637  -1.566  -1.383  0.00  0.00    +0.046 A 
ATOM     15  C   UNL     1      -3.425  -1.476  -2.041  0.00  0.00    +0.008 A 
BRANCH  13  16
ATOM     16  O   UNL     1      -6.197  -2.845  -0.123  0.00  0.00    -0.487 OA
BRANCH  16  17
ATOM     17  C   UNL     1      -7.015  -1.674  -0.103  0.00  0.00    +0.264 C 
BRANCH  17  18
ATOM     18  C   UNL     1      -8.284  -1.960   0.659  0.00  0.00    -0.009 A 
ATOM     19  C   UNL     1      -9.393  -2.449  -0.005  0.00  0.00    +0.007 A 
ATOM     20  C   UNL     1     -10.557  -2.711   0.693  0.00  0.00    +0.002 A 
ATOM     21  C   UNL     1     -10.612  -2.485   2.056  0.00  0.00    +0.020 A 
ATOM     22  C   UNL     1      -9.502  -1.996   2.721  0.00  0.00    +0.041 A 
ATOM     23  C   UNL     1      -8.335  -1.739   2.022  0.00  0.00    +0.027 A 
ATOM     24 CL   UNL     1      -9.570  -1.711   4.432  0.00  0.00    -0.084 Cl
ENDBRANCH  17  18
ENDBRANCH  16  17
ENDBRANCH  13  16
ENDBRANCH   3  10
BRANCH   5  25
ATOM     25  N   UNL     1      -0.361  -5.506  -4.818  0.00  0.00    -0.329 N 
ATOM     26  H   UNL     1      -0.964  -5.382  -5.568  0.00  0.00    +0.145 HD
ATOM     27  H   UNL     1       0.225  -6.279  -4.790  0.00  0.00    +0.145 HD
ENDBRANCH   5  25
BRANCH   4  28
ATOM     28  C   UNL     1      -2.010  -3.431  -5.066  0.00  0.00    +0.101 C 
ATOM     29  N   UNL     1      -2.670  -3.343  -5.987  0.00  0.00    -0.191 NA
ENDBRANCH   4  28
BRANCH   1  30
ATOM     30  C   UNL     1       0.718  -0.497  -1.257  0.00  0.00    +0.057 C 
BRANCH  30  32
ATOM     31  C   UNL     1      -0.019   1.526   0.010  0.00  0.00    +0.004 C 
ATOM     32  C   UNL     1       0.002  -0.004   0.002  0.00  0.00    +0.003 C 
ENDBRANCH  30  32
ENDBRANCH   1  30
TORSDOF 8
