REMARK  Name = ZINC13065409
REMARK  11 active torsions:
REMARK  status: ('A' for Active; 'I' for Inactive)
REMARK    1  A    between atoms: C_1  and  O_2
REMARK    2  A    between atoms: O_2  and  C_3
REMARK    3  A    between atoms: C_6  and  C_9
REMARK    4  A    between atoms: C_9  and  N_10
REMARK    5  A    between atoms: C_11  and  C_15
REMARK    6  A    between atoms: C_15  and  N_67
REMARK    7  A    between atoms: C_16  and  C_17
REMARK    8  A    between atoms: C_16  and  N_67
REMARK    9  A    between atoms: C_17  and  C_18
REMARK   10  A    between atoms: C_24  and  C_25
REMARK   11  A    between atoms: C_24  and  N_67
REMARK                            x       y       z     vdW  Elec       q    Type
REMARK                         _______ _______ _______ _____ _____    ______ ____
ROOT
ATOM      1  N   UNL     1       1.787  -2.831  -1.518  0.00  0.00    +0.387 N 
ATOM      2  H   UNL     1       0.972  -2.702  -2.129  0.00  0.00    -0.081 HD
ENDROOT
BRANCH   1   3
ATOM      3  C   UNL     1       1.583  -2.058  -0.275  0.00  0.00    +0.001 C 
BRANCH   3   5
ATOM      4  N   UNL     1       0.080  -0.063  -0.791  0.00  0.00    -0.227 N 
ATOM      5  C   UNL     1       1.294  -0.624  -0.636  0.00  0.00    +0.135 A 
ATOM      6  N   UNL     1       2.176   0.320  -0.861  0.00  0.00    -0.115 NA
ATOM      7  N   UNL     1       1.537   1.404  -1.139  0.00  0.00    -0.023 NA
ATOM      8  N   UNL     1       0.271   1.176  -1.097  0.00  0.00    -0.044 NA
BRANCH   4   9
ATOM      9  C   UNL     1      -1.214  -0.733  -0.639  0.00  0.00    +0.182 C 
BRANCH   9  13
ATOM     10  C   UNL     1      -2.664  -1.915  -4.481  0.00  0.00    +0.120 A 
ATOM     11  C   UNL     1      -1.960  -2.816  -3.697  0.00  0.00    +0.046 A 
ATOM     12  C   UNL     1      -1.492  -2.432  -2.455  0.00  0.00    +0.009 A 
ATOM     13  C   UNL     1      -1.725  -1.149  -1.994  0.00  0.00    -0.026 A 
ATOM     14  C   UNL     1      -2.432  -0.251  -2.771  0.00  0.00    +0.009 A 
ATOM     15  C   UNL     1      -2.897  -0.629  -4.016  0.00  0.00    +0.046 A 
BRANCH  10  17
ATOM     16  C   UNL     1      -3.843  -1.310  -6.455  0.00  0.00    +0.277 C 
ATOM     17  O   UNL     1      -3.125  -2.291  -5.703  0.00  0.00    -0.495 OA
ENDBRANCH  10  17
ENDBRANCH   9  13
ENDBRANCH   4   9
ENDBRANCH   3   5
ENDBRANCH   1   3
BRANCH   1  18
ATOM     18  C   UNL     1       2.995  -2.349  -2.221  0.00  0.00    -0.073 C 
BRANCH  18  19
ATOM     19  C   UNL     1       2.980  -2.890  -3.652  0.00  0.00    +0.016 C 
BRANCH  19  20
ATOM     20  C   UNL     1       4.252  -2.488  -4.354  0.00  0.00    -0.049 A 
ATOM     21  C   UNL     1       4.307  -1.299  -5.056  0.00  0.00    +0.003 A 
ATOM     22  C   UNL     1       5.475  -0.928  -5.696  0.00  0.00    +0.000 A 
ATOM     23  C   UNL     1       6.584  -1.751  -5.642  0.00  0.00    +0.000 A 
ATOM     24  C   UNL     1       6.527  -2.943  -4.944  0.00  0.00    +0.000 A 
ATOM     25  C   UNL     1       5.361  -3.311  -4.300  0.00  0.00    +0.003 A 
ENDBRANCH  19  20
ENDBRANCH  18  19
ENDBRANCH   1  18
BRANCH   1  26
ATOM     26  C   UNL     1       1.927  -4.268  -1.202  0.00  0.00    -0.037 C 
BRANCH  26  27
ATOM     27  C   UNL     1       0.560  -4.837  -0.922  0.00  0.00    +0.001 A 
ATOM     28  C   UNL     1      -0.151  -5.413  -1.925  0.00  0.00    +0.017 A 
ATOM     29  C   UNL     1      -1.474  -5.956  -1.622  0.00  0.00    +0.002 A 
ATOM     30  C   UNL     1      -2.251  -6.563  -2.617  0.00  0.00    +0.059 A 
ATOM     31  C   UNL     1      -3.494  -7.066  -2.301  0.00  0.00    +0.167 A 
ATOM     32  C   UNL     1      -3.981  -6.972  -0.991  0.00  0.00    +0.168 A 
ATOM     33  C   UNL     1      -3.220  -6.375  -0.003  0.00  0.00    +0.075 A 
ATOM     34  C   UNL     1      -1.965  -5.863  -0.305  0.00  0.00    +0.053 A 
ATOM     35  N   UNL     1      -1.192  -5.264   0.669  0.00  0.00    -0.322 N 
ATOM     36  H   UNL     1      -1.531  -5.200   1.575  0.00  0.00    +0.169 HD
ATOM     37  C   UNL     1       0.026  -4.774   0.381  0.00  0.00    +0.251 A 
ATOM     38  O   UNL     1       0.683  -4.256   1.268  0.00  0.00    -0.268 OA
ATOM     39  O   UNL     1      -5.220  -7.542  -0.949  0.00  0.00    -0.453 OA
ATOM     40  C   UNL     1      -5.315  -8.347  -2.138  0.00  0.00    +0.466 C 
ATOM     41  O   UNL     1      -4.433  -7.694  -3.069  0.00  0.00    -0.453 OA
ENDBRANCH  26  27
ENDBRANCH   1  26
TORSDOF 10
