REMARK  Name = ZINC22766877
REMARK  15 active torsions:
REMARK  status: ('A' for Active; 'I' for Inactive)
REMARK    1  A    between atoms: C_1  and  C_2
REMARK    2  A    between atoms: C_5  and  S_8
REMARK    3  A    between atoms: S_8  and  N_11
REMARK    4  A    between atoms: N_11  and  C_12
REMARK    5  A    between atoms: C_12  and  C_14
REMARK    6  A    between atoms: C_12  and  C_18
REMARK    7  A    between atoms: C_14  and  C_15
REMARK    8  A    between atoms: C_15  and  C_16
REMARK    9  A    between atoms: C_15  and  C_17
REMARK   10  A    between atoms: N_20  and  C_21
REMARK   11  A    between atoms: C_21  and  C_22
REMARK   12  A    between atoms: C_22  and  C_24
REMARK   13  A    between atoms: C_22  and  N_31
REMARK   14  A    between atoms: N_31  and  C_32
REMARK   15  A    between atoms: N_31  and  C_33
REMARK                            x       y       z     vdW  Elec       q    Type
REMARK                         _______ _______ _______ _____ _____    ______ ____
ROOT
ATOM      1  C   UNL     1      -5.082   1.351  -3.844  0.00  0.00    +0.162 C 
ENDROOT
BRANCH   1   2
ATOM      2  C   UNL     1      -3.891   1.500  -2.932  0.00  0.00    +0.232 C 
ATOM      3  O   UNL     1      -2.772   1.316  -3.361  0.00  0.00    -0.274 OA
ATOM      4  N   UNL     1      -4.070   1.837  -1.639  0.00  0.00    -0.315 N 
ATOM      5  H   UNL     1      -5.088   1.940  -1.234  0.00  0.00    +0.149 HD
BRANCH   4   6
ATOM      6  C   UNL     1      -2.910   2.067  -0.775  0.00  0.00    +0.093 C 
BRANCH   6   7
ATOM      7  C   UNL     1      -3.387   2.466   0.623  0.00  0.00    -0.021 C 
BRANCH   7   8
ATOM      8  C   UNL     1      -2.200   2.586   1.544  0.00  0.00    -0.057 A 
ATOM      9  C   UNL     1      -1.385   3.701   1.478  0.00  0.00    +0.002 A 
ATOM     10  C   UNL     1      -0.292   3.810   2.318  0.00  0.00    +0.003 A 
ATOM     11  C   UNL     1      -0.017   2.806   3.228  0.00  0.00    +0.038 A 
ATOM     12  C   UNL     1      -0.835   1.692   3.297  0.00  0.00    +0.124 A 
ATOM     13  C   UNL     1      -1.930   1.584   2.456  0.00  0.00    +0.040 A 
ATOM     14  F   UNL     1      -0.567   0.710   4.186  0.00  0.00    -0.205 F 
ENDBRANCH   7   8
BRANCH   7  15
ATOM     15  N   UNL     1      -4.084   3.758   0.552  0.00  0.00    +0.382 N 
ATOM     16  C   UNL     1      -3.620   4.544  -0.599  0.00  0.00    -0.096 C 
ATOM     17  C   UNL     1      -5.540   3.568   0.507  0.00  0.00    -0.096 C 
ATOM     18  H   UNL     1      -3.844   4.322   1.465  0.00  0.00    -0.082 HD
ENDBRANCH   7  15
ENDBRANCH   6   7
ENDBRANCH   4   6
ENDBRANCH   1   2
BRANCH   1  19
ATOM     19  N   UNL     1      -4.657   1.531  -5.234  0.00  0.00    -0.178 NA
ATOM     20  H   UNL     1      -3.618   1.319  -5.524  0.00  0.00    +0.149 HD
BRANCH  19  21
ATOM     21  S   UNL     1      -5.661   2.285  -6.315  0.00  0.00    +0.059 S 
ATOM     22  O   UNL     1      -4.949   2.365  -7.542  0.00  0.00    -0.153 OA
ATOM     23  O   UNL     1      -6.926   1.647  -6.208  0.00  0.00    -0.153 OA
BRANCH  21  28
ATOM     24  C   UNL     1      -6.421   7.953  -4.390  0.00  0.00    +0.044 C 
ATOM     25  C   UNL     1      -6.231   6.537  -4.871  0.00  0.00    -0.050 A 
ATOM     26  C   UNL     1      -5.194   6.233  -5.732  0.00  0.00    +0.005 A 
ATOM     27  C   UNL     1      -5.019   4.935  -6.173  0.00  0.00    +0.029 A 
ATOM     28  C   UNL     1      -5.883   3.940  -5.753  0.00  0.00    +0.105 A 
ATOM     29  C   UNL     1      -6.923   4.245  -4.895  0.00  0.00    +0.029 A 
ATOM     30  C   UNL     1      -7.095   5.543  -4.451  0.00  0.00    +0.005 A 
ENDBRANCH  21  28
ENDBRANCH  19  21
ENDBRANCH   1  19
BRANCH   1  31
ATOM     31  C   UNL     1      -5.684  -0.045  -3.672  0.00  0.00    +0.032 C 
BRANCH  31  32
ATOM     32  C   UNL     1      -6.134  -0.231  -2.221  0.00  0.00    -0.015 C 
ATOM     33  C   UNL     1      -7.297   0.717  -1.922  0.00  0.00    +0.007 C 
ATOM     34  C   UNL     1      -6.586  -1.677  -2.009  0.00  0.00    +0.007 C 
ENDBRANCH  31  32
ENDBRANCH   1  31
TORSDOF 10
