REMARK  Name = ZINC03830996
REMARK  15 active torsions:
REMARK  status: ('A' for Active; 'I' for Inactive)
REMARK    1  A    between atoms: C_1  and  C_2
REMARK    2  A    between atoms: C_2  and  C_3
REMARK    3  A    between atoms: C_3  and  C_4
REMARK    4  A    between atoms: C_7  and  C_12
REMARK    5  A    between atoms: N_9  and  C_11
REMARK    6  A    between atoms: N_14  and  C_15
REMARK    7  A    between atoms: C_15  and  C_17
REMARK    8  A    between atoms: C_15  and  C_33
REMARK    9  A    between atoms: C_19  and  O_32
REMARK   10  A    between atoms: C_21  and  O_31
REMARK   11  A    between atoms: C_23  and  O_30
REMARK   12  A    between atoms: C_25  and  S_28
REMARK   13  A    between atoms: S_28  and  C_29
REMARK   14  A    between atoms: C_33  and  C_35
REMARK   15  A    between atoms: C_33  and  O_36
REMARK                            x       y       z     vdW  Elec       q    Type
REMARK                         _______ _______ _______ _____ _____    ______ ____
ROOT
ATOM      1  C   UNL     1       0.913  -6.277   2.781  0.00  0.00    +0.132 C 
ENDROOT
BRANCH   1   2
ATOM      2  C   UNL     1       2.200  -5.832   3.477  0.00  0.00    +0.173 C 
ATOM      3  C   UNL     1       2.967  -4.870   2.566  0.00  0.00    +0.176 C 
ATOM      4  C   UNL     1       4.283  -4.476   3.244  0.00  0.00    +0.177 C 
ATOM      5  C   UNL     1       5.084  -5.744   3.555  0.00  0.00    +0.184 C 
ATOM      6  C   UNL     1       4.235  -6.672   4.428  0.00  0.00    +0.207 C 
ATOM      7  O   UNL     1       3.013  -6.974   3.752  0.00  0.00    -0.356 OA
BRANCH   6   8
ATOM      8  S   UNL     1       5.148  -8.208   4.744  0.00  0.00    -0.131 S 
ATOM      9  C   UNL     1       4.087  -9.120   5.899  0.00  0.00    +0.087 C 
ENDBRANCH   6   8
BRANCH   5  10
ATOM     10  O   UNL     1       5.419  -6.408   2.336  0.00  0.00    -0.386 OA
ATOM     11  H   UNL     1       5.928  -7.222   2.458  0.00  0.00    +0.210 HD
ENDBRANCH   5  10
BRANCH   4  12
ATOM     12  O   UNL     1       5.038  -3.634   2.370  0.00  0.00    -0.386 OA
ATOM     13  H   UNL     1       5.886  -3.346   2.736  0.00  0.00    +0.210 HD
ENDBRANCH   4  12
BRANCH   3  14
ATOM     14  O   UNL     1       3.244  -5.511   1.319  0.00  0.00    -0.387 OA
ATOM     15  H   UNL     1       3.729  -4.958   0.692  0.00  0.00    +0.210 HD
ENDBRANCH   3  14
ENDBRANCH   1   2
BRANCH   1  18
ATOM     16  C   UNL     1      -0.852  -5.130   1.554  0.00  0.00    +0.200 C 
ATOM     17  O   UNL     1      -0.958  -6.110   0.847  0.00  0.00    -0.278 OA
ATOM     18  N   UNL     1       0.054  -5.112   2.550  0.00  0.00    -0.309 N 
ATOM     19  H   UNL     1       0.139  -4.328   3.115  0.00  0.00    +0.149 HD
BRANCH  16  22
ATOM     20  C   UNL     1      -1.353  -2.261  -0.435  0.00  0.00    -0.029 C 
ATOM     21  C   UNL     1      -0.872  -2.705   0.965  0.00  0.00    -0.005 C 
ATOM     22  C   UNL     1      -1.735  -3.932   1.316  0.00  0.00    +0.019 C 
ATOM     23  N   UNL     1      -2.628  -4.179   0.163  0.00  0.00    +0.386 N 
ATOM     24  C   UNL     1      -2.775  -2.870  -0.527  0.00  0.00    -0.075 C 
ATOM     25  C   UNL     1      -3.936  -4.657   0.629  0.00  0.00    -0.095 C 
ATOM     26  H   UNL     1      -2.211  -4.853  -0.461  0.00  0.00    -0.081 HD
BRANCH  20  27
ATOM     27  C   UNL     1      -1.411  -0.735  -0.529  0.00  0.00    +0.001 C 
BRANCH  27  29
ATOM     28  C   UNL     1      -0.047   1.358  -0.593  0.00  0.00    +0.004 C 
ATOM     29  C   UNL     1       0.010  -0.169  -0.499  0.00  0.00    -0.003 C 
ENDBRANCH  27  29
ENDBRANCH  20  27
ENDBRANCH  16  22
ENDBRANCH   1  18
BRANCH   1  30
ATOM     30  C   UNL     1       0.177  -7.285   3.665  0.00  0.00    +0.134 C 
ATOM     31  C   UNL     1      -0.292  -6.593   4.947  0.00  0.00    +0.039 C 
BRANCH  30  32
ATOM     32  O   UNL     1      -0.954  -7.801   2.961  0.00  0.00    -0.390 OA
ATOM     33  H   UNL     1      -0.726  -8.328   2.183  0.00  0.00    +0.210 HD
ENDBRANCH  30  32
ENDBRANCH   1  30
TORSDOF 11
