REMARK  Name = ZINC33920004
REMARK  8 active torsions:
REMARK  status: ('A' for Active; 'I' for Inactive)
REMARK    1  A    between atoms: C_4  and  C_7
REMARK    2  A    between atoms: C_7  and  N_8
REMARK    3  A    between atoms: N_8  and  C_9
REMARK    4  A    between atoms: C_9  and  C_10
REMARK    5  A    between atoms: C_10  and  N_11
REMARK    6  A    between atoms: C_16  and  C_28
REMARK    7  A    between atoms: CA_19  and  C_25
REMARK    8  A    between atoms: C_33  and  C_34
REMARK                            x       y       z     vdW  Elec       q    Type
REMARK                         _______ _______ _______ _____ _____    ______ ____
ROOT
ATOM      1  N   UNL     1       7.316  -2.523   2.671  0.00  0.00    -0.244 N 
ATOM      2  C   UNL     1       7.354  -3.895   2.666  0.00  0.00    +0.224 C 
ATOM      3  O   UNL     1       6.444  -4.660   2.429  0.00  0.00    -0.275 OA
ATOM      4  C   UNL     1       8.719  -4.224   3.005  0.00  0.00    +0.077 C 
ATOM      5  C   UNL     1       9.662  -5.348   2.922  0.00  0.00    -0.026 C 
ATOM      6  N   UNL     1      11.011  -4.712   3.078  0.00  0.00    +0.394 N 
ATOM      7  CA  UNL     1      10.808  -3.227   3.121  0.00  0.00    +0.057 C 
ATOM      8  C   UNL     1       9.514  -3.055   2.297  0.00  0.00    +0.083 C 
ATOM      9  C   UNL     1       8.560  -1.960   2.690  0.00  0.00    +0.224 C 
ATOM     10  O   UNL     1       8.841  -0.814   2.968  0.00  0.00    -0.275 OA
ATOM     11  H1  UNL     1      11.440  -5.023   3.937  0.00  0.00    -0.084 HD
ATOM     12  H2  UNL     1      11.597  -4.954   2.293  0.00  0.00    -0.084 HD
ENDROOT
BRANCH   5  13
ATOM     13  C   UNL     1       9.550  -6.032   1.584  0.00  0.00    -0.043 A 
ATOM     14  C   UNL     1      10.358  -5.639   0.537  0.00  0.00    +0.003 A 
ATOM     15  C   UNL     1      10.257  -6.266  -0.692  0.00  0.00    +0.000 A 
ATOM     16  C   UNL     1       9.346  -7.290  -0.881  0.00  0.00    +0.001 A 
ATOM     17  C   UNL     1       8.532  -7.692   0.157  0.00  0.00    +0.019 A 
ATOM     18  C   UNL     1       8.633  -7.069   1.402  0.00  0.00    +0.053 A 
BRANCH  18  19
ATOM     19  C   UNL     1       7.795  -7.486   2.486  0.00  0.00    +0.099 C 
ATOM     20  N   UNL     1       7.130  -7.817   3.346  0.00  0.00    -0.191 NA
ENDBRANCH  18  19
ENDBRANCH   5  13
BRANCH   7  21
ATOM     21  C   UNL     1      10.637  -2.752   4.541  0.00  0.00    +0.343 C 
ATOM     22  O   UNL     1      10.702  -3.548   5.462  0.00  0.00    -0.248 OA
ATOM     23  OXT UNL     1      10.433  -1.572   4.769  0.00  0.00    -0.248 OA
ENDBRANCH   7  21
BRANCH   1  24
ATOM     24  C   UNL     1       6.075  -1.745   2.654  0.00  0.00    +0.097 C 
BRANCH  24  25
ATOM     25  C   UNL     1       5.664  -1.473   1.205  0.00  0.00    -0.062 C 
BRANCH  25  26
ATOM     26  N   UNL     1       4.419  -0.694   1.187  0.00  0.00    +0.383 N 
ATOM     27  H   UNL     1       4.564   0.183   1.665  0.00  0.00    -0.085 HD
ATOM     28  H   UNL     1       3.690  -1.214   1.651  0.00  0.00    -0.085 HD
BRANCH  26  29
ATOM     29  C   UNL     1       4.025  -0.433  -0.204  0.00  0.00    -0.047 C 
BRANCH  29  33
ATOM     30  C   UNL     1       0.405   1.835  -0.259  0.00  0.00    +0.000 A 
ATOM     31  C   UNL     1       1.626   2.482  -0.239  0.00  0.00    +0.000 A 
ATOM     32  C   UNL     1       2.797   1.749  -0.221  0.00  0.00    +0.002 A 
ATOM     33  C   UNL     1       2.748   0.367  -0.223  0.00  0.00    -0.064 A 
ATOM     34  C   UNL     1       1.527  -0.281  -0.242  0.00  0.00    +0.002 A 
ATOM     35  C   UNL     1       0.355   0.453  -0.261  0.00  0.00    +0.000 A 
ENDBRANCH  29  33
ENDBRANCH  26  29
ENDBRANCH  25  26
ENDBRANCH  24  25
ENDBRANCH   1  24
TORSDOF 8
