REMARK  Name = ZINC13132118
REMARK  4 active torsions:
REMARK  status: ('A' for Active; 'I' for Inactive)
REMARK    1  A    between atoms: C_1  and  C_2
REMARK    2  A    between atoms: C_2  and  C_3
REMARK    3  A    between atoms: C_6  and  C_9
REMARK    4  A    between atoms: C_12  and  C_21
REMARK                            x       y       z     vdW  Elec       q    Type
REMARK                         _______ _______ _______ _____ _____    ______ ____
ROOT
ATOM      1  C   UNL     1       2.797  -1.919   4.683  0.00  0.00    +0.143 C 
ATOM      2  C   UNL     1       2.226  -3.280   5.101  0.00  0.00    +0.059 C 
ATOM      3  C   UNL     1       2.764  -3.664   6.484  0.00  0.00    +0.107 C 
ATOM      4  N   UNL     1       2.301  -2.662   7.464  0.00  0.00    -0.307 N 
ATOM      5  C   UNL     1       2.384  -1.333   7.069  0.00  0.00    +0.216 A 
ATOM      6  N   UNL     1       2.618  -0.972   5.784  0.00  0.00    -0.224 N 
ATOM      7  N   UNL     1       2.643   0.423   5.757  0.00  0.00    -0.132 NA
ATOM      8  C   UNL     1       2.429   0.830   6.989  0.00  0.00    +0.233 A 
ATOM      9  N   UNL     1       2.268  -0.245   7.783  0.00  0.00    -0.180 NA
ATOM     10  N   UNL     1       2.374   2.161   7.404  0.00  0.00    -0.326 N 
ATOM     11  H   UNL     1       1.958  -2.917   8.335  0.00  0.00    +0.149 HD
ATOM     12  H   UNL     1       2.499   2.876   6.761  0.00  0.00    +0.145 HD
ATOM     13  H   UNL     1       2.212   2.371   8.337  0.00  0.00    +0.145 HD
ENDROOT
BRANCH   3  14
ATOM     14  C   UNL     1       4.270  -3.688   6.453  0.00  0.00    -0.009 A 
ATOM     15  C   UNL     1       4.989  -2.617   6.951  0.00  0.00    +0.007 A 
ATOM     16  C   UNL     1       6.371  -2.639   6.922  0.00  0.00    +0.000 A 
ATOM     17  C   UNL     1       7.035  -3.731   6.396  0.00  0.00    +0.001 A 
ATOM     18  C   UNL     1       6.317  -4.802   5.897  0.00  0.00    +0.020 A 
ATOM     19  C   UNL     1       4.934  -4.784   5.931  0.00  0.00    +0.046 A 
ATOM     20 CL   UNL     1       4.032  -6.131   5.311  0.00  0.00    -0.083 Cl
ENDBRANCH   3  14
BRANCH   1  24
ATOM     21  C   UNL     1       0.731  -0.503   1.223  0.00  0.00    -0.048 A 
ATOM     22  C   UNL     1       2.097  -0.710   1.176  0.00  0.00    +0.004 A 
ATOM     23  C   UNL     1       2.766  -1.167   2.296  0.00  0.00    +0.006 A 
ATOM     24  C   UNL     1       2.068  -1.419   3.463  0.00  0.00    -0.023 A 
ATOM     25  C   UNL     1       0.702  -1.212   3.510  0.00  0.00    +0.006 A 
ATOM     26  C   UNL     1       0.034  -0.750   2.391  0.00  0.00    +0.004 A 
BRANCH  21  28
ATOM     27  C   UNL     1      -0.019   1.526   0.010  0.00  0.00    +0.009 C 
ATOM     28  C   UNL     1       0.002  -0.004   0.002  0.00  0.00    +0.032 C 
ENDBRANCH  21  28
ENDBRANCH   1  24
TORSDOF 3
