REMARK  Name = ZINC56966950
REMARK  4 active torsions:
REMARK  status: ('A' for Active; 'I' for Inactive)
REMARK    1  A    between atoms: C_6  and  C_7
REMARK    2  A    between atoms: C_7  and  C_13
REMARK    3  A    between atoms: C_13  and  N_14
REMARK    4  A    between atoms: C_21  and  O_24
REMARK                            x       y       z     vdW  Elec       q    Type
REMARK                         _______ _______ _______ _____ _____    ______ ____
ROOT
ATOM      1  C   UNL     1      -1.285  -0.764   0.004  0.00  0.00    +0.011 C 
ATOM      2  C   UNL     1      -1.361  -1.738   1.182  0.00  0.00    +0.013 C 
ATOM      3  C   UNL     1      -2.707  -2.464   1.157  0.00  0.00    +0.001 C 
ATOM      4  C   UNL     1      -3.840  -1.442   1.267  0.00  0.00    +0.000 C 
ATOM      5  C   UNL     1      -3.764  -0.468   0.089  0.00  0.00    +0.001 C 
ATOM      6  C   UNL     1      -2.418   0.259   0.114  0.00  0.00    +0.013 C 
ENDROOT
BRANCH   1  12
ATOM      7  C   UNL     1       0.917  -0.254   1.078  0.00  0.00    +0.008 A 
ATOM      8  C   UNL     1       2.135   0.400   1.105  0.00  0.00    +0.050 A 
ATOM      9  C   UNL     1       2.480   1.265   0.080  0.00  0.00    +0.166 A 
ATOM     10  C   UNL     1       1.598   1.472  -0.978  0.00  0.00    +0.167 A 
ATOM     11  C   UNL     1       0.380   0.814  -0.999  0.00  0.00    +0.053 A 
ATOM     12  C   UNL     1       0.041  -0.048   0.029  0.00  0.00    -0.036 A 
ATOM     13  O   UNL     1       2.163   2.357  -1.850  0.00  0.00    -0.453 OA
ATOM     14  C   UNL     1       3.220   3.001  -1.114  0.00  0.00    +0.466 C 
ATOM     15  O   UNL     1       3.598   2.020  -0.130  0.00  0.00    -0.453 OA
ENDBRANCH   1  12
BRANCH   1  16
ATOM     16  C   UNL     1      -1.422  -1.538  -1.308  0.00  0.00    +0.117 C 
BRANCH  16  17
ATOM     17  N   UNL     1      -0.376  -2.561  -1.383  0.00  0.00    -0.298 N 
ATOM     18  C   UNL     1      -0.243  -3.308  -2.497  0.00  0.00    +0.302 C 
ATOM     19  O   UNL     1      -1.051  -3.204  -3.399  0.00  0.00    -0.253 OA
ATOM     20  N   UNL     1       0.787  -4.171  -2.611  0.00  0.00    -0.283 N 
ATOM     21  C   UNL     1       1.700  -4.399  -1.483  0.00  0.00    +0.109 C 
ATOM     22  C   UNL     1       3.138  -4.170  -1.959  0.00  0.00    +0.022 C 
ATOM     23  C   UNL     1       3.414  -5.052  -3.179  0.00  0.00    +0.034 C 
ATOM     24  C   UNL     1       2.462  -4.667  -4.314  0.00  0.00    +0.132 C 
ATOM     25  C   UNL     1       1.013  -4.905  -3.863  0.00  0.00    +0.140 C 
ATOM     26  H   UNL     1       0.220  -2.701  -0.631  0.00  0.00    +0.150 HD
BRANCH  24  27
ATOM     27  O   UNL     1       2.740  -5.470  -5.463  0.00  0.00    -0.390 OA
ATOM     28  H   UNL     1       2.173  -5.279  -6.223  0.00  0.00    +0.210 HD
ENDBRANCH  24  27
ENDBRANCH  16  17
ENDBRANCH   1  16
TORSDOF 4
