REMARK  Name = ZINC06499065
REMARK  15 active torsions:
REMARK  status: ('A' for Active; 'I' for Inactive)
REMARK    1  A    between atoms: C_1  and  C_2
REMARK    2  A    between atoms: C_2  and  O_3
REMARK    3  A    between atoms: O_3  and  C_4
REMARK    4  A    between atoms: C_7  and  C_12
REMARK    5  A    between atoms: C_9  and  O_10
REMARK    6  A    between atoms: O_10  and  C_11
REMARK    7  A    between atoms: C_14  and  C_25
REMARK    8  A    between atoms: C_15  and  O_24
REMARK    9  A    between atoms: N_18  and  C_19
REMARK   10  A    between atoms: C_19  and  C_20
REMARK   11  A    between atoms: C_20  and  C_21
REMARK   12  A    between atoms: C_21  and  N_62
REMARK   13  A    between atoms: C_22  and  N_62
REMARK   14  A    between atoms: C_23  and  N_62
REMARK   15  A    between atoms: C_25  and  C_27
REMARK                            x       y       z     vdW  Elec       q    Type
REMARK                         _______ _______ _______ _____ _____    ______ ____
ROOT
ATOM      1  C   UNL     1       2.191   0.324  -4.281  0.00  0.00    +0.145 C 
ATOM      2  C   UNL     1       3.697   0.209  -4.309  0.00  0.00    +0.071 C 
ATOM      3  C   UNL     1       4.029  -0.277  -5.528  0.00  0.00    +0.188 C 
ATOM      4  C   UNL     1       2.797  -0.491  -6.317  0.00  0.00    +0.282 C 
ATOM      5  O   UNL     1       2.763  -0.920  -7.453  0.00  0.00    -0.267 OA
ATOM      6  N   UNL     1       1.719  -0.141  -5.590  0.00  0.00    -0.284 N 
ENDROOT
BRANCH   1  10
ATOM      7  C   UNL     1       0.589  -2.151  -1.183  0.00  0.00    +0.162 A 
ATOM      8  C   UNL     1       1.080  -2.723  -2.346  0.00  0.00    +0.050 A 
ATOM      9  C   UNL     1       1.597  -1.920  -3.346  0.00  0.00    +0.009 A 
ATOM     10  C   UNL     1       1.626  -0.547  -3.188  0.00  0.00    -0.019 A 
ATOM     11  C   UNL     1       1.132   0.030  -2.033  0.00  0.00    +0.055 A 
ATOM     12  C   UNL     1       0.618  -0.769  -1.024  0.00  0.00    +0.162 A 
BRANCH  12  13
ATOM     13  O   UNL     1       0.137  -0.203   0.115  0.00  0.00    -0.491 OA
ATOM     14  C   UNL     1       0.091   1.224   0.162  0.00  0.00    +0.277 C 
ENDBRANCH  12  13
BRANCH   7  15
ATOM     15  O   UNL     1       0.079  -2.939  -0.199  0.00  0.00    -0.489 OA
BRANCH  15  17
ATOM     16  C   UNL     1      -0.525  -5.066   0.778  0.00  0.00    +0.048 C 
ATOM     17  C   UNL     1       0.082  -4.349  -0.430  0.00  0.00    +0.226 C 
ENDBRANCH  15  17
ENDBRANCH   7  15
ENDBRANCH   1  10
BRANCH   3  18
ATOM     18  O   UNL     1       5.288  -0.526  -5.957  0.00  0.00    -0.502 OA
ATOM     19  H   UNL     1       5.258  -0.879  -6.892  0.00  0.00    +0.292 HD
ENDBRANCH   3  18
BRANCH   2  20
ATOM     20  C   UNL     1       4.621   0.557  -3.225  0.00  0.00    +0.195 C 
ATOM     21  O   UNL     1       5.264  -0.315  -2.671  0.00  0.00    -0.287 OA
BRANCH  20  22
ATOM     22  C   UNL     1       4.772   1.966  -2.807  0.00  0.00    +0.022 A 
ATOM     23  C   UNL     1       3.980   2.959  -3.388  0.00  0.00    +0.013 A 
ATOM     24  C   UNL     1       4.122   4.271  -2.989  0.00  0.00    +0.021 A 
ATOM     25  C   UNL     1       5.056   4.607  -2.022  0.00  0.00    +0.041 A 
ATOM     26  C   UNL     1       5.849   3.628  -1.446  0.00  0.00    +0.021 A 
ATOM     27  C   UNL     1       5.712   2.311  -1.833  0.00  0.00    +0.013 A 
ATOM     28 CL   UNL     1       5.234   6.263  -1.532  0.00  0.00    -0.084 Cl
ENDBRANCH  20  22
ENDBRANCH   2  20
BRANCH   6  29
ATOM     29  C   UNL     1       0.323  -0.209  -6.029  0.00  0.00    +0.107 C 
BRANCH  29  30
ATOM     30  C   UNL     1      -0.069   1.112  -6.692  0.00  0.00    +0.000 C 
BRANCH  30  31
ATOM     31  C   UNL     1      -1.527   1.040  -7.150  0.00  0.00    -0.078 C 
BRANCH  31  34
ATOM     32  C   UNL     1      -1.156   2.515  -9.034  0.00  0.00    -0.097 C 
ATOM     33  C   UNL     1      -3.352   2.369  -8.026  0.00  0.00    -0.097 C 
ATOM     34  N   UNL     1      -1.897   2.331  -7.769  0.00  0.00    +0.376 N 
ATOM     35  H   UNL     1      -1.652   3.092  -7.125  0.00  0.00    -0.083 HD
ENDBRANCH  31  34
ENDBRANCH  30  31
ENDBRANCH  29  30
ENDBRANCH   6  29
TORSDOF 11
