REMARK  Name = ZINC35426982
REMARK  6 active torsions:
REMARK  status: ('A' for Active; 'I' for Inactive)
REMARK    1  A    between atoms: C_1  and  C_2
REMARK    2  A    between atoms: C_7  and  N_8
REMARK    3  A    between atoms: C_23  and  C_25
REMARK    4  A    between atoms: C_28  and  O_31
REMARK    5  A    between atoms: O_31  and  C_32
REMARK    6  A    between atoms: N_34  and  C_37
REMARK                            x       y       z     vdW  Elec       q    Type
REMARK                         _______ _______ _______ _____ _____    ______ ____
ROOT
ATOM      1  N   UNL     1       0.037  -0.880   2.349  0.00  0.00    -0.269 N 
ATOM      2  C   UNL     1      -0.017  -1.268   3.639  0.00  0.00    +0.308 C 
ATOM      3  O   UNL     1       0.084  -2.446   3.924  0.00  0.00    -0.252 OA
ATOM      4  N   UNL     1      -0.183  -0.351   4.612  0.00  0.00    -0.268 N 
ATOM      5  C   UNL     1      -0.316   1.085   4.306  0.00  0.00    +0.148 C 
ATOM      6  C   UNL     1      -1.347   1.775   5.171  0.00  0.00    +0.004 A 
ATOM      7  C   UNL     1      -2.573   2.254   4.674  0.00  0.00    -0.034 A 
ATOM      8  C   UNL     1      -3.412   2.879   5.545  0.00  0.00    -0.021 A 
ATOM      9  S   UNL     1      -2.540   2.818   7.088  0.00  0.00    -0.077 S 
ATOM     10  C   UNL     1      -1.113   1.958   6.499  0.00  0.00    +0.090 A 
ATOM     11  N   UNL     1       0.023   1.508   7.160  0.00  0.00    -0.312 N 
ATOM     12  C   UNL     1       0.843   2.115   8.049  0.00  0.00    +0.092 A 
ATOM     13  C   UNL     1       1.851   1.261   8.339  0.00  0.00    +0.020 A 
ATOM     14  C   UNL     1       1.627   0.074   7.608  0.00  0.00    +0.025 A 
ATOM     15  C   UNL     1       0.491   0.238   6.914  0.00  0.00    +0.049 A 
ATOM     16  C   UNL     1      -0.248  -0.738   6.042  0.00  0.00    +0.155 C 
ATOM     17  C   UNL     1      -4.748   3.469   5.237  0.00  0.00    -0.036 C 
ATOM     18  N   UNL     1      -4.872   3.597   3.772  0.00  0.00    +0.381 N 
ATOM     19  C   UNL     1      -4.511   2.322   3.138  0.00  0.00    -0.074 C 
ATOM     20  C   UNL     1      -2.997   2.100   3.215  0.00  0.00    +0.018 C 
ATOM     21  C   UNL     1      -6.257   3.941   3.426  0.00  0.00    -0.096 C 
ATOM     22  H   UNL     1       0.029   0.064   2.126  0.00  0.00    +0.156 HD
ATOM     23  H   UNL     1      -4.252   4.323   3.445  0.00  0.00    -0.082 HD
ENDROOT
BRANCH   1  30
ATOM     24  C   UNL     1      -1.066  -0.226  -0.191  0.00  0.00    +0.045 C 
ATOM     25  C   UNL     1      -0.420  -1.561   0.078  0.00  0.00    -0.029 A 
ATOM     26  C   UNL     1      -0.345  -2.507  -0.926  0.00  0.00    +0.005 A 
ATOM     27  C   UNL     1       0.247  -3.732  -0.680  0.00  0.00    +0.000 A 
ATOM     28  C   UNL     1       0.767  -4.014   0.570  0.00  0.00    +0.002 A 
ATOM     29  C   UNL     1       0.695  -3.072   1.577  0.00  0.00    +0.023 A 
ATOM     30  C   UNL     1       0.106  -1.839   1.332  0.00  0.00    +0.038 A 
ENDBRANCH   1  30
BRANCH  16  31
ATOM     31  C   UNL     1      -1.691  -0.792   6.471  0.00  0.00    -0.021 A 
ATOM     32  C   UNL     1      -2.680  -1.037   5.536  0.00  0.00    +0.009 A 
ATOM     33  C   UNL     1      -4.005  -1.087   5.927  0.00  0.00    +0.046 A 
ATOM     34  C   UNL     1      -4.341  -0.891   7.259  0.00  0.00    +0.120 A 
ATOM     35  C   UNL     1      -3.347  -0.647   8.195  0.00  0.00    +0.046 A 
ATOM     36  C   UNL     1      -2.024  -0.603   7.800  0.00  0.00    +0.009 A 
BRANCH  34  37
ATOM     37  O   UNL     1      -5.643  -0.940   7.646  0.00  0.00    -0.495 OA
ATOM     38  C   UNL     1      -5.916  -0.730   9.032  0.00  0.00    +0.277 C 
ENDBRANCH  34  37
ENDBRANCH  16  31
TORSDOF 3
