REMARK  Name = ZINC39687173
REMARK  11 active torsions:
REMARK  status: ('A' for Active; 'I' for Inactive)
REMARK    1  A    between atoms: C_1  and  C_2
REMARK    2  A    between atoms: C_2  and  C_4
REMARK    3  A    between atoms: C_2  and  N_12
REMARK    4  A    between atoms: C_4  and  C_5
REMARK    5  A    between atoms: C_13  and  C_15
REMARK    6  A    between atoms: C_26  and  C_28
REMARK    7  A    between atoms: C_28  and  C_30
REMARK    8  A    between atoms: C_28  and  O_33
REMARK    9  A    between atoms: C_30  and  C_31
REMARK   10  A    between atoms: C_30  and  C_32
REMARK   11  A    between atoms: O_33  and  C_34
REMARK                            x       y       z     vdW  Elec       q    Type
REMARK                         _______ _______ _______ _____ _____    ______ ____
ROOT
ATOM      1  C   UNL     1       0.151  -0.960   4.105  0.00  0.00    +0.100 C 
ATOM      2  C   UNL     1       0.760  -2.331   3.733  0.00  0.00    +0.121 C 
ATOM      3  N   UNL     1       0.686  -3.124   4.983  0.00  0.00    -0.297 N 
ATOM      4  C   UNL     1      -0.623  -2.759   5.575  0.00  0.00    +0.115 C 
ATOM      5  C   UNL     1      -0.757  -1.246   5.313  0.00  0.00    -0.004 C 
ATOM      6  C   UNL     1      -2.204  -0.894   4.982  0.00  0.00    -0.010 C 
ATOM      7  C   UNL     1      -3.078  -1.131   6.216  0.00  0.00    -0.082 C 
ATOM      8  N   UNL     1      -2.594  -0.302   7.327  0.00  0.00    +0.379 N 
ATOM      9  C   UNL     1      -1.234  -0.710   7.701  0.00  0.00    -0.082 C 
ATOM     10  C   UNL     1      -0.282  -0.455   6.529  0.00  0.00    -0.010 C 
ATOM     11  C   UNL     1       1.603  -3.983   5.471  0.00  0.00    +0.257 C 
ATOM     12  O   UNL     1       2.671  -4.112   4.913  0.00  0.00    -0.272 OA
ATOM     13  H   UNL     1      -2.587   0.667   7.044  0.00  0.00    -0.086 HD
ATOM     14  H   UNL     1      -3.207  -0.414   8.121  0.00  0.00    -0.086 HD
ENDROOT
BRANCH   1  16
ATOM     15  N   UNL     1      -0.880   0.908   2.854  0.00  0.00    -0.312 N 
ATOM     16  C   UNL     1      -0.660  -0.417   2.956  0.00  0.00    +0.218 C 
ATOM     17  O   UNL     1      -1.114  -1.174   2.124  0.00  0.00    -0.275 OA
ATOM     18  H   UNL     1      -0.516   1.513   3.519  0.00  0.00    +0.149 HD
BRANCH  15  20
ATOM     19  C   UNL     1      -3.156   1.364   2.084  0.00  0.00    +0.028 C 
ATOM     20  C   UNL     1      -1.668   1.436   1.737  0.00  0.00    +0.074 C 
BRANCH  20  21
ATOM     21  C   UNL     1      -1.274   2.892   1.478  0.00  0.00    +0.060 C 
BRANCH  21  22
ATOM     22  C   UNL     1       0.160   2.950   1.017  0.00  0.00    -0.010 A 
ATOM     23  C   UNL     1       1.171   3.179   1.931  0.00  0.00    +0.006 A 
ATOM     24  C   UNL     1       2.486   3.232   1.508  0.00  0.00    +0.000 A 
ATOM     25  C   UNL     1       2.791   3.056   0.171  0.00  0.00    +0.003 A 
ATOM     26  C   UNL     1       1.782   2.827  -0.744  0.00  0.00    +0.038 A 
ATOM     27  C   UNL     1       0.465   2.768  -0.321  0.00  0.00    +0.127 A 
ATOM     28  F   UNL     1      -0.523   2.539  -1.215  0.00  0.00    -0.205 F 
ENDBRANCH  21  22
ENDBRANCH  20  21
ENDBRANCH  15  20
ENDBRANCH   1  16
BRANCH  11  29
ATOM     29  C   UNL     1       1.299  -4.785   6.711  0.00  0.00    +0.261 C 
BRANCH  29  30
ATOM     30  C   UNL     1       0.142  -5.745   6.427  0.00  0.00    +0.033 C 
ATOM     31  C   UNL     1       0.574  -6.766   5.373  0.00  0.00    +0.011 C 
ATOM     32  C   UNL     1      -0.244  -6.474   7.715  0.00  0.00    +0.011 C 
ENDBRANCH  29  30
BRANCH  29  33
ATOM     33  O   UNL     1       2.456  -5.532   7.090  0.00  0.00    -0.479 OA
BRANCH  33  34
ATOM     34  C   UNL     1       2.686  -5.681   8.421  0.00  0.00    +0.122 A 
ATOM     35  C   UNL     1       3.800  -6.381   8.860  0.00  0.00    +0.045 A 
ATOM     36  C   UNL     1       4.032  -6.530  10.214  0.00  0.00    +0.004 A 
ATOM     37  C   UNL     1       3.153  -5.982  11.131  0.00  0.00    +0.000 A 
ATOM     38  C   UNL     1       2.042  -5.285  10.696  0.00  0.00    +0.004 A 
ATOM     39  C   UNL     1       1.809  -5.128   9.344  0.00  0.00    +0.045 A 
ENDBRANCH  33  34
ENDBRANCH  29  33
ENDBRANCH  11  29
TORSDOF 8
