REMARK  Name = ZINC53250518
REMARK  6 active torsions:
REMARK  status: ('A' for Active; 'I' for Inactive)
REMARK    1  A    between atoms: C_1  and  N_2
REMARK    2  A    between atoms: C_6  and  N_9
REMARK    3  A    between atoms: N_9  and  C_10
REMARK    4  A    between atoms: N_9  and  C_11
REMARK    5  A    between atoms: C_14  and  N_20
REMARK    6  A    between atoms: C_16  and  C_17
REMARK                            x       y       z     vdW  Elec       q    Type
REMARK                         _______ _______ _______ _____ _____    ______ ____
ROOT
ATOM      1  C   UNL     1       0.477  -3.162   3.308  0.00  0.00    +0.044 A 
ATOM      2  C   UNL     1       0.432  -4.551   3.314  0.00  0.00    +0.026 A 
ATOM      3  C   UNL     1      -0.053  -5.223   4.416  0.00  0.00    +0.024 A 
ATOM      4  C   UNL     1      -0.501  -4.519   5.530  0.00  0.00    +0.025 A 
ATOM      5  C   UNL     1      -0.463  -3.137   5.541  0.00  0.00    +0.039 A 
ATOM      6  C   UNL     1       0.032  -2.445   4.430  0.00  0.00    +0.086 A 
ENDROOT
BRANCH   6   7
ATOM      7  C   UNL     1       0.082  -0.975   4.436  0.00  0.00    +0.388 C 
ATOM      8  O   UNL     1      -0.408  -0.350   5.367  0.00  0.00    -0.241 OA
ATOM      9  O   UNL     1       0.612  -0.377   3.510  0.00  0.00    -0.241 OA
ENDBRANCH   6   7
BRANCH   4  10
ATOM     10  N   UNL     1      -0.992  -5.213   6.643  0.00  0.00    -0.358 N 
ATOM     11  H   UNL     1      -1.019  -6.182   6.636  0.00  0.00    +0.142 HD
ATOM     12  H   UNL     1      -1.304  -4.724   7.420  0.00  0.00    +0.142 HD
ENDBRANCH   4  10
BRANCH   1  13
ATOM     13  N   UNL     1       0.966  -2.485   2.196  0.00  0.00    -0.331 N 
ATOM     14  C   UNL     1       2.370  -2.071   2.150  0.00  0.00    +0.129 C 
BRANCH  13  20
ATOM     15  C   UNL     1      -0.783   1.065  -0.596  0.00  0.00    -0.096 C 
ATOM     16  N   UNL     1      -0.769  -0.385  -0.359  0.00  0.00    +0.379 N 
ATOM     17  C   UNL     1      -0.293  -1.071  -1.566  0.00  0.00    -0.079 C 
ATOM     18  C   UNL     1      -0.353  -2.586  -1.353  0.00  0.00    -0.017 C 
ATOM     19  C   UNL     1       0.535  -2.964  -0.165  0.00  0.00    +0.019 C 
ATOM     20  C   UNL     1       0.076  -2.186   1.071  0.00  0.00    +0.057 C 
ATOM     21  C   UNL     1       0.120  -0.686   0.769  0.00  0.00    -0.057 C 
ATOM     22  H   UNL     1      -1.703  -0.699  -0.143  0.00  0.00    -0.082 HD
ENDBRANCH  13  20
ENDBRANCH   1  13
TORSDOF 4
