REMARK  Name = ZINC06931990
REMARK  3 active torsions:
REMARK  status: ('A' for Active; 'I' for Inactive)
REMARK    1  A    between atoms: C_7  and  C_11
REMARK    2  A    between atoms: N_17  and  C_18
REMARK    3  A    between atoms: C_21  and  O_24
REMARK                            x       y       z     vdW  Elec       q    Type
REMARK                         _______ _______ _______ _____ _____    ______ ____
ROOT
ATOM      1  C   UNL     1       0.699  -3.252  -0.022  0.00  0.00    +0.030 C 
ATOM      2  C   UNL     1       1.200  -4.512  -0.136  0.00  0.00    +0.078 C 
ATOM      3  C   UNL     1       0.506  -5.753  -0.258  0.00  0.00    +0.256 C 
ATOM      4  O   UNL     1      -0.711  -5.788  -0.271  0.00  0.00    -0.269 OA
ATOM      5  N   UNL     1       1.217  -6.862  -0.357  0.00  0.00    -0.260 N 
ATOM      6  C   UNL     1       2.596  -6.805  -0.341  0.00  0.00    +0.166 C 
ATOM      7  N   UNL     1       3.463  -7.789  -0.427  0.00  0.00    -0.226 NA
ATOM      8  S   UNL     1       2.903  -5.053  -0.182  0.00  0.00    -0.049 S 
ATOM      9  H   UNL     1       0.769  -7.719  -0.440  0.00  0.00    +0.157 HD
ENDROOT
BRANCH   1  16
ATOM     10  C   UNL     1       0.064   1.185   1.327  0.00  0.00    +0.001 A 
ATOM     11  C   UNL     1       1.245   1.913   1.312  0.00  0.00    +0.002 A 
ATOM     12  C   UNL     1       2.429   1.322   0.931  0.00  0.00    +0.026 A 
ATOM     13  C   UNL     1       2.448  -0.017   0.555  0.00  0.00    +0.047 A 
ATOM     14  C   UNL     1       1.252  -0.753   0.571  0.00  0.00    +0.007 A 
ATOM     15  C   UNL     1       0.062  -0.143   0.958  0.00  0.00    +0.010 A 
ATOM     16  C   UNL     1       1.607  -2.114   0.127  0.00  0.00    +0.001 A 
ATOM     17  C   UNL     1       2.952  -2.103  -0.117  0.00  0.00    +0.091 A 
ATOM     18  N   UNL     1       3.452  -0.865   0.135  0.00  0.00    -0.360 N 
ATOM     19  H   UNL     1       4.383  -0.614   0.034  0.00  0.00    +0.165 HD
ENDBRANCH   1  16
BRANCH   7  20
ATOM     20  C   UNL     1       3.024  -9.081  -0.553  0.00  0.00    +0.067 A 
ATOM     21  C   UNL     1       1.980  -9.546   0.249  0.00  0.00    +0.031 A 
ATOM     22  C   UNL     1       1.540 -10.847   0.120  0.00  0.00    +0.047 A 
ATOM     23  C   UNL     1       2.134 -11.693  -0.806  0.00  0.00    +0.117 A 
ATOM     24  C   UNL     1       3.172 -11.235  -1.605  0.00  0.00    +0.047 A 
ATOM     25  C   UNL     1       3.614  -9.934  -1.487  0.00  0.00    +0.031 A 
BRANCH  23  26
ATOM     26  O   UNL     1       1.698 -12.975  -0.931  0.00  0.00    -0.507 OA
ATOM     27  H   UNL     1       0.987 -13.088  -1.577  0.00  0.00    +0.292 HD
ENDBRANCH  23  26
ENDBRANCH   7  20
TORSDOF 3
