REMARK  Name = ZINC38068060
REMARK  4 active torsions:
REMARK  status: ('A' for Active; 'I' for Inactive)
REMARK    1  A    between atoms: C_4  and  S_18
REMARK    2  A    between atoms: C_5  and  O_7
REMARK    3  A    between atoms: O_7  and  C_8
REMARK    4  A    between atoms: S_18  and  N_21
REMARK                            x       y       z     vdW  Elec       q    Type
REMARK                         _______ _______ _______ _____ _____    ______ ____
ROOT
ATOM      1  C   UNL     1       1.864  -2.083  -3.604  0.00  0.00    +0.004 A 
ATOM      2  C   UNL     1       3.166  -1.617  -3.642  0.00  0.00    +0.002 A 
ATOM      3  C   UNL     1       3.821  -1.292  -2.469  0.00  0.00    +0.032 A 
ATOM      4  C   UNL     1       3.177  -1.433  -1.254  0.00  0.00    +0.147 A 
ATOM      5  C   UNL     1       1.871  -1.900  -1.213  0.00  0.00    +0.155 A 
ATOM      6  C   UNL     1       1.216  -2.225  -2.393  0.00  0.00    +0.048 A 
ENDROOT
BRANCH   4   7
ATOM      7  S   UNL     1       4.013  -1.020   0.240  0.00  0.00    +0.059 S 
ATOM      8  O   UNL     1       3.824  -2.114   1.127  0.00  0.00    -0.153 OA
ATOM      9  O   UNL     1       5.303  -0.554  -0.131  0.00  0.00    -0.153 OA
BRANCH   7  10
ATOM     10  N   UNL     1       3.218   0.272   0.905  0.00  0.00    -0.203 NA
ATOM     11  H   UNL     1       3.205   0.390   1.868  0.00  0.00    +0.144 HD
ATOM     12  H   UNL     1       2.765   0.910   0.332  0.00  0.00    +0.144 HD
ENDBRANCH   7  10
ENDBRANCH   4   7
BRANCH   5  13
ATOM     13  O   UNL     1       1.235  -2.039  -0.021  0.00  0.00    -0.452 OA
BRANCH  13  14
ATOM     14  C   UNL     1      -0.002  -2.603  -0.019  0.00  0.00    +0.149 A 
ATOM     15  C   UNL     1      -1.130  -1.800  -0.068  0.00  0.00    +0.048 A 
ATOM     16  C   UNL     1      -2.386  -2.377  -0.066  0.00  0.00    +0.004 A 
ATOM     17  C   UNL     1      -2.519  -3.751  -0.012  0.00  0.00    +0.005 A 
ATOM     18  C   UNL     1      -1.397  -4.563   0.038  0.00  0.00    -0.023 A 
ATOM     19  C   UNL     1      -0.137  -3.990   0.027  0.00  0.00    +0.073 A 
ATOM     20  N   UNL     1       1.015  -4.787   0.062  0.00  0.00    -0.341 N 
ATOM     21  C   UNL     1       0.884  -6.210   0.405  0.00  0.00    +0.102 C 
ATOM     22  C   UNL     1      -0.312  -6.771  -0.374  0.00  0.00    +0.023 C 
ATOM     23  C   UNL     1      -1.582  -6.057   0.102  0.00  0.00    +0.038 C 
ATOM     24  H   UNL     1       1.885  -4.406  -0.137  0.00  0.00    +0.146 HD
ENDBRANCH  13  14
ENDBRANCH   5  13
TORSDOF 4
