REMARK  Name = ZINC35700270
REMARK  10 active torsions:
REMARK  status: ('A' for Active; 'I' for Inactive)
REMARK    1  A    between atoms: C_1  and  C_2
REMARK    2  A    between atoms: C_2  and  C_3
REMARK    3  A    between atoms: C_3  and  C_4
REMARK    4  A    between atoms: C_4  and  C_6
REMARK    5  A    between atoms: C_4  and  S_18
REMARK    6  A    between atoms: N_8  and  C_9
REMARK    7  A    between atoms: C_9  and  C_11
REMARK    8  A    between atoms: C_9  and  C_12
REMARK    9  A    between atoms: S_18  and  C_19
REMARK   10  A    between atoms: N_29  and  C_30
REMARK                            x       y       z     vdW  Elec       q    Type
REMARK                         _______ _______ _______ _____ _____    ______ ____
ROOT
ATOM      1  C   UNL     1      -1.017  -4.301   1.444  0.00  0.00    +0.178 A 
ATOM      2  N   UNL     1       0.150  -4.886   1.323  0.00  0.00    -0.223 NA
ATOM      3  C   UNL     1       0.275  -6.227   1.360  0.00  0.00    +0.079 A 
ATOM      4  C   UNL     1       1.520  -6.851   1.231  0.00  0.00    +0.028 A 
ATOM      5  C   UNL     1       1.601  -8.214   1.274  0.00  0.00    +0.002 A 
ATOM      6  C   UNL     1       0.464  -8.993   1.443  0.00  0.00    +0.001 A 
ATOM      7  C   UNL     1      -0.768  -8.413   1.571  0.00  0.00    +0.015 A 
ATOM      8  C   UNL     1      -0.881  -7.024   1.532  0.00  0.00    +0.065 A 
ATOM      9  C   UNL     1      -2.177  -6.346   1.665  0.00  0.00    +0.267 A 
ATOM     10  O   UNL     1      -3.207  -6.978   1.816  0.00  0.00    -0.267 OA
ATOM     11  N   UNL     1      -2.183  -4.994   1.620  0.00  0.00    -0.253 N 
ENDROOT
BRANCH  11  12
ATOM     12  C   UNL     1      -3.393  -4.298   1.748  0.00  0.00    +0.087 A 
ATOM     13  C   UNL     1      -4.149  -4.003   0.621  0.00  0.00    +0.029 A 
ATOM     14  C   UNL     1      -5.341  -3.318   0.750  0.00  0.00    +0.002 A 
ATOM     15  C   UNL     1      -5.784  -2.925   2.000  0.00  0.00    +0.003 A 
ATOM     16  C   UNL     1      -5.035  -3.216   3.125  0.00  0.00    +0.040 A 
ATOM     17  C   UNL     1      -3.842  -3.906   3.004  0.00  0.00    +0.147 A 
ATOM     18  F   UNL     1      -3.113  -4.196   4.104  0.00  0.00    -0.203 F 
ENDBRANCH  11  12
BRANCH   1  19
ATOM     19  S   UNL     1      -1.085  -2.541   1.385  0.00  0.00    -0.075 S 
BRANCH  19  20
ATOM     20  C   UNL     1       0.656  -2.037   1.315  0.00  0.00    +0.140 C 
BRANCH  20  21
ATOM     21  C   UNL     1       1.329  -2.372   2.620  0.00  0.00    +0.227 C 
ATOM     22  O   UNL     1       0.663  -2.552   3.618  0.00  0.00    -0.275 OA
ATOM     23  N   UNL     1       2.672  -2.471   2.680  0.00  0.00    -0.308 N 
ATOM     24  H   UNL     1       3.205  -2.327   1.882  0.00  0.00    +0.149 HD
BRANCH  23  25
ATOM     25  C   UNL     1       3.327  -2.797   3.949  0.00  0.00    +0.100 C 
ATOM     26  C   UNL     1       3.533  -1.516   4.760  0.00  0.00    +0.033 C 
BRANCH  25  27
ATOM     27  C   UNL     1       4.663  -3.438   3.675  0.00  0.00    -0.027 A 
ATOM     28  C   UNL     1       5.465  -2.957   2.657  0.00  0.00    +0.005 A 
ATOM     29  C   UNL     1       6.691  -3.545   2.406  0.00  0.00    +0.000 A 
ATOM     30  C   UNL     1       7.114  -4.614   3.173  0.00  0.00    +0.000 A 
ATOM     31  C   UNL     1       6.313  -5.095   4.192  0.00  0.00    +0.000 A 
ATOM     32  C   UNL     1       5.089  -4.504   4.446  0.00  0.00    +0.005 A 
ENDBRANCH  25  27
ENDBRANCH  23  25
ENDBRANCH  20  21
BRANCH  20  33
ATOM     33  C   UNL     1       0.740  -0.529   1.069  0.00  0.00    +0.024 C 
BRANCH  33  35
ATOM     34  C   UNL     1       0.157   1.311  -0.517  0.00  0.00    +0.004 C 
ATOM     35  C   UNL     1       0.182  -0.206  -0.318  0.00  0.00    -0.002 C 
ENDBRANCH  33  35
ENDBRANCH  20  33
ENDBRANCH  19  20
ENDBRANCH   1  19
TORSDOF 8
