REMARK  Name = ZINC40365841
REMARK  6 active torsions:
REMARK  status: ('A' for Active; 'I' for Inactive)
REMARK    1  A    between atoms: C_3  and  S_9
REMARK    2  A    between atoms: C_6  and  C_7
REMARK    3  A    between atoms: S_9  and  N_12
REMARK    4  A    between atoms: N_12  and  C_13
REMARK    5  A    between atoms: C_13  and  C_15
REMARK    6  A    between atoms: C_13  and  C_17
REMARK                            x       y       z     vdW  Elec       q    Type
REMARK                         _______ _______ _______ _____ _____    ______ ____
ROOT
ATOM      1  S   UNL     1       3.889   2.325  -0.023  0.00  0.00    +0.060 S 
ATOM      2  O   UNL     1       4.872   1.468  -0.587  0.00  0.00    -0.153 OA
ATOM      3  O   UNL     1       3.592   3.605  -0.564  0.00  0.00    -0.153 OA
ENDROOT
BRANCH   1   6
ATOM      4  C   UNL     1      -0.017   1.392   0.010  0.00  0.00    +0.021 A 
ATOM      5  C   UNL     1       1.170   2.095   0.002  0.00  0.00    +0.030 A 
ATOM      6  C   UNL     1       2.378   1.419  -0.013  0.00  0.00    +0.105 A 
ATOM      7  C   UNL     1       2.404   0.036  -0.021  0.00  0.00    +0.030 A 
ATOM      8  C   UNL     1       1.224  -0.679  -0.014  0.00  0.00    +0.021 A 
ATOM      9  C   UNL     1       0.002  -0.004   0.002  0.00  0.00    +0.052 A 
BRANCH   9  10
ATOM     10  C   UNL     1      -1.226  -0.740   0.010  0.00  0.00    +0.099 C 
ATOM     11  N   UNL     1      -2.201  -1.324   0.017  0.00  0.00    -0.191 NA
ENDBRANCH   9  10
ENDBRANCH   1   6
BRANCH   1  12
ATOM     12  N   UNL     1       4.324   2.568   1.557  0.00  0.00    -0.173 NA
ATOM     13  H   UNL     1       4.350   3.467   1.920  0.00  0.00    +0.149 HD
BRANCH  12  14
ATOM     14  C   UNL     1       4.670   1.425   2.405  0.00  0.00    +0.181 C 
BRANCH  14  15
ATOM     15  C   UNL     1       4.196   1.690   3.836  0.00  0.00    +0.022 C 
ATOM     16  C   UNL     1       4.877   2.950   4.374  0.00  0.00    +0.006 C 
ATOM     17  C   UNL     1       4.403   3.215   5.804  0.00  0.00    +0.000 C 
ATOM     18  C   UNL     1       4.764   2.022   6.691  0.00  0.00    +0.000 C 
ATOM     19  C   UNL     1       4.082   0.762   6.153  0.00  0.00    +0.000 C 
ATOM     20  C   UNL     1       4.556   0.497   4.722  0.00  0.00    +0.006 C 
ENDBRANCH  14  15
BRANCH  14  21
ATOM     21  C   UNL     1       6.129   1.234   2.400  0.00  0.00    +0.083 C 
ATOM     22  N   UNL     1       7.255   1.085   2.396  0.00  0.00    -0.195 NA
ENDBRANCH  14  21
ENDBRANCH  12  14
ENDBRANCH   1  12
TORSDOF 6
