REMARK  Name = ZINC33838825
REMARK  6 active torsions:
REMARK  status: ('A' for Active; 'I' for Inactive)
REMARK    1  A    between atoms: C_1  and  C_2
REMARK    2  A    between atoms: C_7  and  O_42
REMARK    3  A    between atoms: C_20  and  O_41
REMARK    4  A    between atoms: C_24  and  C_40
REMARK    5  A    between atoms: C_28  and  C_33
REMARK    6  A    between atoms: C_33  and  C_34
REMARK                            x       y       z     vdW  Elec       q    Type
REMARK                         _______ _______ _______ _____ _____    ______ ____
ROOT
ATOM      1  C   UNL     1       2.233   7.463  -3.115  0.00  0.00    +0.008 C 
ATOM      2  C   UNL     1       0.823   7.266  -3.656  0.00  0.00    -0.010 C 
ATOM      3  C   UNL     1       0.828   6.504  -4.978  0.00  0.00    +0.003 C 
ATOM      4  C   UNL     1       2.058   6.782  -5.826  0.00  0.00    +0.003 C 
ATOM      5  C   UNL     1       3.179   5.776  -5.576  0.00  0.00    +0.035 C 
ATOM      6  C   UNL     1       2.706   4.572  -4.767  0.00  0.00    +0.138 C 
ATOM      7  C   UNL     1       1.892   3.639  -5.626  0.00  0.00    +0.011 C 
ATOM      8  C   UNL     1       1.177   2.663  -5.079  0.00  0.00    +0.090 C 
ATOM      9  C   UNL     1       1.077   2.478  -3.636  0.00  0.00    +0.333 C 
ATOM     10  O   UNL     1       1.527   1.425  -3.205  0.00  0.00    -0.246 OA
ATOM     11  O   UNL     1       0.579   3.345  -2.762  0.00  0.00    -0.444 OA
ATOM     12  C   UNL     1       0.318   2.964  -1.395  0.00  0.00    +0.202 C 
ATOM     13  C   UNL     1      -0.321   4.117  -0.690  0.00  0.00    +0.097 C 
ATOM     14  C   UNL     1       0.543   5.316  -0.555  0.00  0.00    -0.020 C 
ATOM     15  C   UNL     1       0.610   6.362  -1.324  0.00  0.00    -0.030 C 
ATOM     16  C   UNL     1      -0.037   6.480  -2.663  0.00  0.00    +0.030 C 
ATOM     17  C   UNL     1      -1.715   4.423  -1.210  0.00  0.00    +0.151 C 
ATOM     18  C   UNL     1      -2.538   3.167  -0.998  0.00  0.00    -0.045 C 
ATOM     19  C   UNL     1      -3.708   3.238  -0.416  0.00  0.00    +0.010 C 
ATOM     20  C   UNL     1      -2.001   1.855  -1.477  0.00  0.00    +0.023 C 
ATOM     21  C   UNL     1      -0.518   1.676  -1.430  0.00  0.00    +0.070 C 
ATOM     22  C   UNL     1       0.033   0.961  -0.176  0.00  0.00    +0.085 C 
ATOM     23  N   UNL     1       1.469   1.331  -0.195  0.00  0.00    -0.308 N 
ATOM     24  C   UNL     1       1.637   2.527  -0.806  0.00  0.00    +0.258 C 
ATOM     25  O   UNL     1       2.677   3.139  -0.883  0.00  0.00    -0.271 OA
ATOM     26  C   UNL     1      -2.776   0.695  -0.856  0.00  0.00    +0.012 C 
ATOM     27  H   UNL     1       2.216   0.658   0.253  0.00  0.00    +0.149 HD
ENDROOT
BRANCH  17  28
ATOM     28  O   UNL     1      -2.295   5.497  -0.471  0.00  0.00    -0.387 OA
ATOM     29  H   UNL     1      -3.307   5.850  -0.716  0.00  0.00    +0.210 HD
ENDBRANCH  17  28
BRANCH   6  30
ATOM     30  O   UNL     1       3.844   3.864  -4.263  0.00  0.00    -0.388 OA
ATOM     31  H   UNL     1       3.704   2.961  -3.651  0.00  0.00    +0.210 HD
ENDBRANCH   6  30
BRANCH  22  32
ATOM     32  C   UNL     1      -0.566   1.408   1.151  0.00  0.00    +0.057 C 
BRANCH  32  33
ATOM     33  C   UNL     1       0.054   0.616   2.273  0.00  0.00    -0.046 A 
ATOM     34  C   UNL     1      -0.524  -0.571   2.683  0.00  0.00    +0.004 A 
ATOM     35  C   UNL     1       0.047  -1.299   3.710  0.00  0.00    +0.000 A 
ATOM     36  C   UNL     1       1.190  -0.836   4.333  0.00  0.00    +0.000 A 
ATOM     37  C   UNL     1       1.765   0.354   3.927  0.00  0.00    +0.000 A 
ATOM     38  C   UNL     1       1.197   1.080   2.897  0.00  0.00    +0.004 A 
ENDBRANCH  32  33
ENDBRANCH  22  32
TORSDOF 4
