REMARK  Name = ZINC11912278
REMARK  8 active torsions:
REMARK  status: ('A' for Active; 'I' for Inactive)
REMARK    1  A    between atoms: C_1  and  C_2
REMARK    2  A    between atoms: C_7  and  N_8
REMARK    3  A    between atoms: N_8  and  S_9
REMARK    4  A    between atoms: S_9  and  C_12
REMARK    5  A    between atoms: C_13  and  C_29
REMARK    6  A    between atoms: C_21  and  C_23
REMARK    7  A    between atoms: C_29  and  O_31
REMARK    8  A    between atoms: O_31  and  C_32
REMARK                            x       y       z     vdW  Elec       q    Type
REMARK                         _______ _______ _______ _____ _____    ______ ____
ROOT
ATOM      1  C   UNL     1      -4.374   1.002  -6.933  0.00  0.00    +0.160 A 
ATOM      2  C   UNL     1      -3.152   0.374  -7.039  0.00  0.00    +0.096 A 
ATOM      3  C   UNL     1      -2.097   0.784  -6.129  0.00  0.00    -0.018 A 
ATOM      4  C   UNL     1      -2.441   1.762  -5.260  0.00  0.00    +0.013 A 
ATOM      5  S   UNL     1      -4.130   2.128  -5.638  0.00  0.00    -0.071 S 
ATOM      6  C   UNL     1      -1.568   2.380  -4.216  0.00  0.00    +0.150 C 
ATOM      7  N   UNL     1      -0.328   1.581  -4.149  0.00  0.00    -0.296 N 
ATOM      8  C   UNL     1       0.263   1.138  -5.421  0.00  0.00    +0.113 C 
ATOM      9  C   UNL     1      -0.699   0.180  -6.127  0.00  0.00    +0.056 C 
ATOM     10  C   UNL     1       0.238   1.266  -2.968  0.00  0.00    +0.219 C 
ATOM     11  O   UNL     1       1.254   0.605  -2.940  0.00  0.00    -0.275 OA
ENDROOT
BRANCH  10  12
ATOM     12  C   UNL     1      -0.391   1.736  -1.682  0.00  0.00    +0.075 C 
ATOM     13  C   UNL     1       0.443   1.245  -0.497  0.00  0.00    +0.013 C 
ATOM     14  C   UNL     1      -0.196   1.722   0.809  0.00  0.00    +0.001 C 
ATOM     15  C   UNL     1      -0.250   3.251   0.822  0.00  0.00    +0.000 C 
ATOM     16  C   UNL     1      -1.085   3.741  -0.363  0.00  0.00    +0.001 C 
ATOM     17  C   UNL     1      -0.446   3.265  -1.669  0.00  0.00    +0.013 C 
ENDBRANCH  10  12
BRANCH   1  18
ATOM     18  S   UNL     1      -5.832   0.726  -7.883  0.00  0.00    +0.079 S 
ATOM     19  O   UNL     1      -5.834   1.702  -8.916  0.00  0.00    -0.149 OA
ATOM     20  O   UNL     1      -5.884  -0.668  -8.151  0.00  0.00    -0.149 OA
BRANCH  18  21
ATOM     21  N   UNL     1      -7.125   1.069  -6.907  0.00  0.00    -0.216 N 
ATOM     22  H   UNL     1      -7.775   0.379  -6.703  0.00  0.00    +0.174 HD
BRANCH  21  29
ATOM     23  C   UNL     1      -8.192   1.317  -4.281  0.00  0.00    +0.046 C 
ATOM     24  C   UNL     1      -7.796   2.519  -5.098  0.00  0.00    -0.028 A 
ATOM     25  C   UNL     1      -7.947   3.790  -4.577  0.00  0.00    +0.005 A 
ATOM     26  C   UNL     1      -7.583   4.894  -5.326  0.00  0.00    +0.000 A 
ATOM     27  C   UNL     1      -7.068   4.730  -6.599  0.00  0.00    +0.002 A 
ATOM     28  C   UNL     1      -6.910   3.463  -7.124  0.00  0.00    +0.025 A 
ATOM     29  C   UNL     1      -7.279   2.352  -6.377  0.00  0.00    +0.051 A 
ENDBRANCH  21  29
ENDBRANCH  18  21
ENDBRANCH   1  18
BRANCH   2  30
ATOM     30  C   UNL     1      -2.923  -0.677  -8.041  0.00  0.00    +0.342 C 
ATOM     31  O   UNL     1      -3.143  -1.840  -7.763  0.00  0.00    -0.245 OA
BRANCH  30  32
ATOM     32  O   UNL     1      -2.470  -0.351  -9.268  0.00  0.00    -0.464 OA
ATOM     33  C   UNL     1      -2.267  -1.441 -10.206  0.00  0.00    +0.280 C 
ENDBRANCH  30  32
ENDBRANCH   2  30
TORSDOF 6
