REMARK  Name = ZINC15002378
REMARK  7 active torsions:
REMARK  status: ('A' for Active; 'I' for Inactive)
REMARK    1  A    between atoms: C_1  and  O_2
REMARK    2  A    between atoms: O_2  and  C_3
REMARK    3  A    between atoms: C_6  and  C_13
REMARK    4  A    between atoms: C_13  and  N_71
REMARK    5  A    between atoms: C_16  and  C_19
REMARK    6  A    between atoms: C_16  and  O_36
REMARK    7  A    between atoms: C_26  and  C_28
REMARK                            x       y       z     vdW  Elec       q    Type
REMARK                         _______ _______ _______ _____ _____    ______ ____
ROOT
ATOM      1  C   UNL     1       1.284  -2.461  -1.073  0.00  0.00    -0.075 C 
ATOM      2  C   UNL     1       0.921  -1.044  -1.523  0.00  0.00    +0.021 C 
ATOM      3  C   UNL     1      -0.390  -0.621  -0.855  0.00  0.00    +0.088 C 
ATOM      4  C   UNL     1      -0.230  -0.706   0.666  0.00  0.00    +0.021 C 
ATOM      5  C   UNL     1       0.167  -2.132   1.053  0.00  0.00    -0.075 C 
ATOM      6  N   UNL     1       1.448  -2.470   0.396  0.00  0.00    +0.383 N 
ATOM      7  H   UNL     1       2.151  -1.768   0.657  0.00  0.00    -0.081 HD
ENDROOT
BRANCH   3   8
ATOM      8  C   UNL     1      -0.720   0.796  -1.248  0.00  0.00    -0.015 A 
ATOM      9  C   UNL     1       0.303   1.689  -1.535  0.00  0.00    +0.010 A 
ATOM     10  C   UNL     1       0.023   2.989  -1.895  0.00  0.00    +0.047 A 
ATOM     11  C   UNL     1      -1.297   3.417  -1.975  0.00  0.00    +0.136 A 
ATOM     12  C   UNL     1      -2.331   2.507  -1.684  0.00  0.00    +0.021 A 
ATOM     13  C   UNL     1      -2.026   1.192  -1.325  0.00  0.00    +0.018 A 
ATOM     14  C   UNL     1      -3.576   3.254  -1.857  0.00  0.00    +0.063 A 
ATOM     15  C   UNL     1      -3.214   4.509  -2.226  0.00  0.00    +0.191 A 
ATOM     16  O   UNL     1      -1.869   4.595  -2.292  0.00  0.00    -0.450 OA
BRANCH  15  17
ATOM     17  C   UNL     1      -4.146   5.610  -2.509  0.00  0.00    +0.282 C 
ATOM     18  O   UNL     1      -5.344   5.400  -2.541  0.00  0.00    -0.267 OA
ATOM     19  N   UNL     1      -3.674   6.852  -2.733  0.00  0.00    -0.295 N 
ATOM     20  C   UNL     1      -4.572   7.926  -3.180  0.00  0.00    +0.108 C 
ATOM     21  C   UNL     1      -4.423   9.118  -2.223  0.00  0.00    +0.019 C 
ATOM     22  C   UNL     1      -2.949   9.523  -2.148  0.00  0.00    +0.003 C 
ATOM     23  C   UNL     1      -2.125   8.357  -1.597  0.00  0.00    +0.019 C 
ATOM     24  C   UNL     1      -2.249   7.157  -2.542  0.00  0.00    +0.108 C 
ENDBRANCH  15  17
ENDBRANCH   3   8
BRANCH   3  25
ATOM     25  O   UNL     1      -1.442  -1.491  -1.274  0.00  0.00    -0.384 OA
ATOM     26  H   UNL     1      -2.304  -1.281  -0.887  0.00  0.00    +0.211 HD
ENDBRANCH   3  25
BRANCH   6  27
ATOM     27  C   UNL     1       1.909  -3.800   0.845  0.00  0.00    -0.042 C 
BRANCH  27  31
ATOM     28  C   UNL     1       2.167  -3.824   5.141  0.00  0.00    +0.128 A 
ATOM     29  C   UNL     1       1.075  -4.328   4.491  0.00  0.00    +0.046 A 
ATOM     30  C   UNL     1       0.998  -4.311   3.102  0.00  0.00    +0.006 A 
ATOM     31  C   UNL     1       2.012  -3.802   2.348  0.00  0.00    -0.056 A 
ATOM     32  C   UNL     1       3.152  -3.274   2.978  0.00  0.00    -0.013 A 
ATOM     33  C   UNL     1       3.232  -3.284   4.392  0.00  0.00    +0.024 A 
ATOM     34  C   UNL     1       4.371  -2.756   5.021  0.00  0.00    +0.012 A 
ATOM     35  C   UNL     1       5.381  -2.242   4.266  0.00  0.00    +0.001 A 
ATOM     36  C   UNL     1       5.303  -2.232   2.875  0.00  0.00    +0.001 A 
ATOM     37  C   UNL     1       4.214  -2.735   2.231  0.00  0.00    +0.009 A 
BRANCH  28  39
ATOM     38  C   UNL     1       1.107  -4.405   7.186  0.00  0.00    +0.277 C 
ATOM     39  O   UNL     1       2.224  -3.842   6.497  0.00  0.00    -0.495 OA
ENDBRANCH  28  39
ENDBRANCH  27  31
ENDBRANCH   6  27
TORSDOF 6
