REMARK  Name = ZINC01059291
REMARK  7 active torsions:
REMARK  status: ('A' for Active; 'I' for Inactive)
REMARK    1  A    between atoms: C_1  and  O_2
REMARK    2  A    between atoms: O_2  and  C_3
REMARK    3  A    between atoms: C_3  and  C_5
REMARK    4  A    between atoms: C_6  and  N_36
REMARK    5  A    between atoms: N_7  and  C_26
REMARK    6  A    between atoms: C_10  and  C_12
REMARK    7  A    between atoms: C_31  and  C_32
REMARK                            x       y       z     vdW  Elec       q    Type
REMARK                         _______ _______ _______ _____ _____    ______ ____
ROOT
ATOM      1  C   UNL     1       0.400  -2.611   0.775  0.00  0.00    +0.084 C 
ATOM      2  C   UNL     1       1.180  -2.964   1.833  0.00  0.00    +0.103 C 
ATOM      3  N   UNL     1       1.417  -4.291   2.103  0.00  0.00    -0.260 N 
ATOM      4  C   UNL     1       0.589  -5.262   1.599  0.00  0.00    +0.024 C 
ATOM      5  C   UNL     1      -0.206  -5.007   0.540  0.00  0.00    +0.025 C 
ATOM      6  C   UNL     1      -0.212  -3.651  -0.117  0.00  0.00    +0.094 C 
ATOM      7  C   UNL     1      -1.055  -5.998   0.015  0.00  0.00    +0.162 C 
ATOM      8  O   UNL     1      -1.771  -5.730  -0.929  0.00  0.00    -0.292 OA
ATOM      9  C   UNL     1      -1.093  -7.383   0.601  0.00  0.00    +0.080 C 
ATOM     10  C   UNL     1       0.271  -7.697   1.226  0.00  0.00    +0.014 C 
ATOM     11  C   UNL     1       0.589  -6.617   2.263  0.00  0.00    +0.052 C 
ENDROOT
BRANCH   6  12
ATOM     12  C   UNL     1       0.574  -3.726  -1.400  0.00  0.00    -0.031 A 
ATOM     13  C   UNL     1       1.928  -4.001  -1.364  0.00  0.00    +0.008 A 
ATOM     14  C   UNL     1       2.654  -4.071  -2.539  0.00  0.00    +0.050 A 
ATOM     15  C   UNL     1       2.025  -3.865  -3.756  0.00  0.00    +0.166 A 
ATOM     16  C   UNL     1       0.660  -3.588  -3.792  0.00  0.00    +0.167 A 
ATOM     17  C   UNL     1      -0.061  -3.525  -2.611  0.00  0.00    +0.054 A 
ATOM     18  O   UNL     1       0.282  -3.426  -5.093  0.00  0.00    -0.453 OA
ATOM     19  C   UNL     1       1.503  -3.203  -5.824  0.00  0.00    +0.466 C 
ATOM     20  O   UNL     1       2.501  -3.878  -5.035  0.00  0.00    -0.453 OA
ENDBRANCH   6  12
BRANCH   3  21
ATOM     21  C   UNL     1       2.511  -4.654   2.896  0.00  0.00    +0.051 A 
ATOM     22  C   UNL     1       3.714  -5.014   2.301  0.00  0.00    +0.024 A 
ATOM     23  C   UNL     1       4.791  -5.372   3.087  0.00  0.00    +0.002 A 
ATOM     24  C   UNL     1       4.674  -5.373   4.465  0.00  0.00    +0.001 A 
ATOM     25  C   UNL     1       3.478  -5.016   5.061  0.00  0.00    +0.014 A 
ATOM     26  C   UNL     1       2.398  -4.651   4.280  0.00  0.00    +0.076 A 
BRANCH  26  27
ATOM     27  C   UNL     1       1.097  -4.256   4.930  0.00  0.00    +0.419 C 
ATOM     28  F   UNL     1       1.187  -4.455   6.312  0.00  0.00    -0.166 F 
ATOM     29  F   UNL     1       0.837  -2.906   4.670  0.00  0.00    -0.166 F 
ATOM     30  F   UNL     1       0.060  -5.039   4.412  0.00  0.00    -0.166 F 
ENDBRANCH  26  27
ENDBRANCH   3  21
BRANCH   2  31
ATOM     31  N   UNL     1       1.731  -1.995   2.631  0.00  0.00    -0.346 N 
ATOM     32  H   UNL     1       1.470  -1.068   2.518  0.00  0.00    +0.143 HD
ATOM     33  H   UNL     1       2.381  -2.237   3.309  0.00  0.00    +0.143 HD
ENDBRANCH   2  31
BRANCH   1  34
ATOM     34  C   UNL     1       0.159  -1.254   0.518  0.00  0.00    +0.339 C 
ATOM     35  O   UNL     1      -0.914  -0.759   0.815  0.00  0.00    -0.245 OA
BRANCH  34  37
ATOM     36  C   UNL     1       0.802   0.879  -0.291  0.00  0.00    +0.280 C 
ATOM     37  O   UNL     1       1.116  -0.496  -0.059  0.00  0.00    -0.465 OA
ENDBRANCH  34  37
ENDBRANCH   1  34
TORSDOF 6
