REMARK  Name = ZINC19838258
REMARK  5 active torsions:
REMARK  status: ('A' for Active; 'I' for Inactive)
REMARK    1  A    between atoms: C_4  and  C_7
REMARK    2  A    between atoms: C_7  and  C_8
REMARK    3  A    between atoms: C_8  and  C_9
REMARK    4  A    between atoms: C_9  and  C_16
REMARK    5  A    between atoms: C_22  and  C_24
REMARK                            x       y       z     vdW  Elec       q    Type
REMARK                         _______ _______ _______ _____ _____    ______ ____
ROOT
ATOM      1  C   UNL     1      -1.012   2.654  -6.149  0.00  0.00    +0.024 C 
ATOM      2  C   UNL     1       0.282   1.877  -5.896  0.00  0.00    +0.025 C 
ATOM      3  C   UNL     1       0.009   0.750  -4.896  0.00  0.00    +0.108 C 
ATOM      4  N   UNL     1      -0.594   1.326  -3.686  0.00  0.00    -0.301 N 
ATOM      5  C   UNL     1      -1.795   2.162  -3.825  0.00  0.00    +0.108 C 
ATOM      6  C   UNL     1      -1.498   3.278  -4.838  0.00  0.00    +0.025 C 
ATOM      7  C   UNL     1      -0.060   1.089  -2.472  0.00  0.00    +0.220 C 
ATOM      8  O   UNL     1       0.982   0.476  -2.378  0.00  0.00    -0.275 OA
ENDROOT
BRANCH   7   9
ATOM      9  C   UNL     1      -0.757   1.584  -1.232  0.00  0.00    +0.092 C 
ATOM     10  C   UNL     1      -0.548   0.583  -0.092  0.00  0.00    +0.016 C 
ATOM     11  C   UNL     1      -1.208   1.123   1.179  0.00  0.00    +0.020 C 
ATOM     12  C   UNL     1      -0.613   2.492   1.515  0.00  0.00    +0.106 C 
ATOM     13  N   UNL     1      -0.840   3.414   0.395  0.00  0.00    -0.316 N 
ATOM     14  C   UNL     1      -0.175   2.940  -0.826  0.00  0.00    +0.119 C 
ATOM     15  C   UNL     1      -0.428   4.701   0.719  0.00  0.00    +0.099 A 
ATOM     16  C   UNL     1      -0.948   5.328   1.848  0.00  0.00    +0.042 A 
ATOM     17  C   UNL     1      -0.530   6.609   2.158  0.00  0.00    +0.005 A 
ATOM     18  C   UNL     1       0.398   7.223   1.327  0.00  0.00    +0.018 A 
ATOM     19  C   UNL     1       0.871   6.543   0.223  0.00  0.00    +0.084 A 
ATOM     20  N   UNL     1       0.458   5.319  -0.046  0.00  0.00    -0.350 N 
ATOM     21  H   UNL     1       0.869   4.811  -0.931  0.00  0.00    +0.166 HD
ENDBRANCH   7   9
BRANCH   1  22
ATOM     22  C   UNL     1      -0.751   3.760  -7.174  0.00  0.00    +0.115 C 
ATOM     23  C   UNL     1      -0.254   3.170  -8.478  0.00  0.00    +0.244 C 
ATOM     24  O   UNL     1      -0.840   2.395  -9.203  0.00  0.00    -0.273 OA
ATOM     25  N   UNL     1       0.977   3.687  -8.665  0.00  0.00    -0.238 N 
ATOM     26  C   UNL     1       1.322   4.512  -7.670  0.00  0.00    +0.307 C 
ATOM     27  O   UNL     1       2.386   5.098  -7.617  0.00  0.00    -0.252 OA
ATOM     28  N   UNL     1       0.361   4.620  -6.736  0.00  0.00    -0.285 N 
ATOM     29  H   UNL     1       1.560   3.410  -9.556  0.00  0.00    +0.159 HD
ATOM     30  H   UNL     1       0.280   5.188  -5.797  0.00  0.00    +0.151 HD
BRANCH  22  31
ATOM     31  C   UNL     1      -2.018   4.586  -7.405  0.00  0.00    +0.040 C 
BRANCH  31  32
ATOM     32  C   UNL     1      -1.730   5.683  -8.433  0.00  0.00    +0.038 C 
BRANCH  32  36
ATOM     33  C   UNL     1      -5.265   7.992  -9.080  0.00  0.00    +0.000 A 
ATOM     34  C   UNL     1      -4.370   8.360  -8.093  0.00  0.00    +0.000 A 
ATOM     35  C   UNL     1      -3.226   7.613  -7.883  0.00  0.00    +0.003 A 
ATOM     36  C   UNL     1      -2.977   6.497  -8.661  0.00  0.00    -0.047 A 
ATOM     37  C   UNL     1      -3.870   6.132  -9.652  0.00  0.00    +0.003 A 
ATOM     38  C   UNL     1      -5.016   6.876  -9.857  0.00  0.00    +0.000 A 
ENDBRANCH  32  36
ENDBRANCH  31  32
ENDBRANCH  22  31
ENDBRANCH   1  22
TORSDOF 5
