REMARK  Name = ZINC05461106
REMARK  3 active torsions:
REMARK  status: ('A' for Active; 'I' for Inactive)
REMARK    1  A    between atoms: C_3  and  N_15
REMARK    2  A    between atoms: C_4  and  N_12
REMARK    3  A    between atoms: C_6  and  C_7
REMARK                            x       y       z     vdW  Elec       q    Type
REMARK                         _______ _______ _______ _____ _____    ______ ____
ROOT
ATOM      1  C   UNL     1       1.278  -2.458  -0.592  0.00  0.00    +0.011 A 
ATOM      2  C   UNL     1       1.455  -1.103  -0.770  0.00  0.00    +0.025 A 
ATOM      3  C   UNL     1       0.371  -0.238  -0.663  0.00  0.00    +0.055 A 
ATOM      4  C   UNL     1      -0.893  -0.737  -0.371  0.00  0.00    +0.147 A 
ATOM      5  C   UNL     1      -1.078  -2.092  -0.198  0.00  0.00    +0.044 A 
ATOM      6  C   UNL     1       0.008  -2.962  -0.304  0.00  0.00    -0.002 A 
ENDROOT
BRANCH   6   7
ATOM      7  C   UNL     1      -0.185  -4.415  -0.113  0.00  0.00    +0.078 C 
ATOM      8  C   UNL     1       0.628  -5.094   0.690  0.00  0.00    +0.125 C 
ATOM      9 CL   UNL     1       1.810  -4.252   1.643  0.00  0.00    -0.069 Cl
ATOM     10 CL   UNL     1       0.508  -6.823   0.787  0.00  0.00    -0.069 Cl
ATOM     11 CL   UNL     1      -1.475  -5.234  -0.938  0.00  0.00    -0.081 Cl
ENDBRANCH   6   7
BRANCH   4  12
ATOM     12  N   UNL     1      -2.043   0.187  -0.252  0.00  0.00    +0.058 N 
ATOM     13  O   UNL     1      -2.896  -0.008   0.595  0.00  0.00    -0.126 OA
ATOM     14  O   UNL     1      -2.136   1.143  -1.001  0.00  0.00    -0.126 OA
ENDBRANCH   4  12
BRANCH   3  15
ATOM     15  N   UNL     1       0.554   1.134  -0.844  0.00  0.00    -0.356 N 
ATOM     16  H   UNL     1       1.441   1.486  -1.019  0.00  0.00    +0.142 HD
ATOM     17  H   UNL     1      -0.206   1.735  -0.798  0.00  0.00    +0.142 HD
ENDBRANCH   3  15
TORSDOF 3
