REMARK  Name = ZINC39884064
REMARK  8 active torsions:
REMARK  status: ('A' for Active; 'I' for Inactive)
REMARK    1  A    between atoms: C_1  and  C_2
REMARK    2  A    between atoms: C_2  and  O_3
REMARK    3  A    between atoms: O_3  and  C_4
REMARK    4  A    between atoms: C_4  and  C_6
REMARK    5  A    between atoms: C_6  and  N_7
REMARK    6  A    between atoms: C_25  and  C_35
REMARK    7  A    between atoms: C_40  and  O_41
REMARK    8  A    between atoms: O_41  and  C_42
REMARK                            x       y       z     vdW  Elec       q    Type
REMARK                         _______ _______ _______ _____ _____    ______ ____
ROOT
ATOM      1  N   UNL     1       1.450  -3.817  -2.491  0.00  0.00    -0.231 N 
ATOM      2  C   UNL     1       2.435  -4.572  -1.893  0.00  0.00    +0.226 C 
ATOM      3  O   UNL     1       3.280  -4.210  -1.102  0.00  0.00    -0.275 OA
ATOM      4  C   UNL     1       2.217  -5.942  -2.447  0.00  0.00    +0.091 C 
ATOM      5  C   UNL     1       2.506  -7.245  -1.658  0.00  0.00    +0.007 C 
ATOM      6  C   UNL     1       1.121  -7.575  -0.960  0.00  0.00    +0.010 C 
ATOM      7  C   UNL     1       0.200  -7.265  -2.244  0.00  0.00    +0.015 C 
ATOM      8  C   UNL     1       0.638  -5.859  -2.336  0.00  0.00    +0.092 C 
ATOM      9  C   UNL     1       0.437  -4.598  -3.026  0.00  0.00    +0.226 C 
ATOM     10  O   UNL     1      -0.397  -4.305  -3.856  0.00  0.00    -0.275 OA
ATOM     11  C   UNL     1       0.847  -8.295  -3.164  0.00  0.00    +0.061 C 
ATOM     12  C   UNL     1       2.382  -8.177  -2.867  0.00  0.00    +0.019 C 
ATOM     13  C   UNL     1       3.199  -9.327  -3.261  0.00  0.00    +0.066 C 
ATOM     14  C   UNL     1       2.985  -9.555  -4.740  0.00  0.00    +0.032 A 
ATOM     15  C   UNL     1       2.046  -9.040  -5.563  0.00  0.00    +0.087 A 
ATOM     16  N   UNL     1       2.159  -9.425  -6.877  0.00  0.00    -0.311 N 
ATOM     17  H   UNL     1       1.539  -9.080  -7.538  0.00  0.00    +0.170 HD
ATOM     18  C   UNL     1       3.132 -10.279  -7.249  0.00  0.00    +0.289 A 
ATOM     19  O   UNL     1       3.364 -10.722  -8.360  0.00  0.00    -0.260 OA
ATOM     20  S   UNL     1       3.948 -10.588  -5.811  0.00  0.00    -0.030 S 
ATOM     21  S   UNL     1       0.681  -7.994  -4.943  0.00  0.00    -0.103 S 
ENDROOT
BRANCH  13  22
ATOM     22  C   UNL     1       4.653  -9.037  -2.992  0.00  0.00    +0.003 A 
ATOM     23  C   UNL     1       5.270  -7.965  -3.607  0.00  0.00    +0.008 A 
ATOM     24  C   UNL     1       6.604  -7.699  -3.361  0.00  0.00    +0.001 A 
ATOM     25  C   UNL     1       7.325  -8.505  -2.499  0.00  0.00    +0.004 A 
ATOM     26  C   UNL     1       6.713  -9.578  -1.881  0.00  0.00    +0.046 A 
ATOM     27  C   UNL     1       5.372  -9.844  -2.122  0.00  0.00    +0.124 A 
BRANCH  27  28
ATOM     28  O   UNL     1       4.766 -10.895  -1.510  0.00  0.00    -0.495 OA
ATOM     29  C   UNL     1       5.568 -11.682  -0.627  0.00  0.00    +0.277 C 
ENDBRANCH  27  28
ENDBRANCH  13  22
BRANCH   1  30
ATOM     30  C   UNL     1       1.468  -2.353  -2.550  0.00  0.00    +0.236 C 
BRANCH  30  31
ATOM     31  C   UNL     1       0.775  -1.794  -1.334  0.00  0.00    +0.325 C 
ATOM     32  O   UNL     1       0.314  -2.540  -0.504  0.00  0.00    -0.249 OA
BRANCH  31  33
ATOM     33  O   UNL     1       0.671  -0.465  -1.174  0.00  0.00    -0.464 OA
BRANCH  33  35
ATOM     34  C   UNL     1      -0.019   1.526   0.010  0.00  0.00    +0.048 C 
ATOM     35  C   UNL     1       0.002  -0.004   0.002  0.00  0.00    +0.229 C 
ENDBRANCH  33  35
ENDBRANCH  31  33
ENDBRANCH  30  31
ENDBRANCH   1  30
TORSDOF 6
