REMARK  Name = ZINC22063372
REMARK  17 active torsions:
REMARK  status: ('A' for Active; 'I' for Inactive)
REMARK    1  A    between atoms: C_1  and  C_2
REMARK    2  A    between atoms: C_5  and  O_20
REMARK    3  A    between atoms: C_6  and  C_10
REMARK    4  A    between atoms: C_7  and  O_8
REMARK    5  A    between atoms: O_8  and  C_9
REMARK    6  A    between atoms: C_10  and  C_11
REMARK    7  A    between atoms: C_12  and  C_13
REMARK    8  A    between atoms: C_12  and  C_14
REMARK    9  A    between atoms: C_14  and  C_15
REMARK   10  A    between atoms: C_15  and  C_16
REMARK   11  A    between atoms: C_16  and  O_18
REMARK   12  A    between atoms: O_18  and  C_19
REMARK   13  A    between atoms: O_20  and  C_21
REMARK   14  A    between atoms: C_23  and  O_37
REMARK   15  A    between atoms: C_25  and  O_36
REMARK   16  A    between atoms: C_27  and  O_35
REMARK   17  A    between atoms: C_29  and  C_32
REMARK                            x       y       z     vdW  Elec       q    Type
REMARK                         _______ _______ _______ _____ _____    ______ ____
ROOT
ATOM      1  C   UNL     1       6.121   3.071  -0.397  0.00  0.00    +0.048 C 
ATOM      2  C   UNL     1       4.808   2.340  -0.500  0.00  0.00    -0.001 A 
ATOM      3  C   UNL     1       3.683   3.007  -0.913  0.00  0.00    +0.014 A 
ATOM      4  C   UNL     1       2.459   2.335  -1.018  0.00  0.00    +0.108 A 
ATOM      5  C   UNL     1       2.389   0.974  -0.684  0.00  0.00    +0.145 A 
ATOM      6  C   UNL     1       3.530   0.310  -0.268  0.00  0.00    +0.041 A 
ATOM      7  C   UNL     1       4.737   0.988  -0.174  0.00  0.00    +0.130 A 
ATOM      8  C   UNL     1       1.448   3.298  -1.474  0.00  0.00    +0.343 C 
ATOM      9  O   UNL     1       0.276   3.037  -1.663  0.00  0.00    -0.245 OA
ATOM     10  O   UNL     1       2.005   4.508  -1.656  0.00  0.00    -0.456 OA
ATOM     11  C   UNL     1       3.419   4.433  -1.329  0.00  0.00    +0.269 C 
ENDROOT
BRANCH   7  12
ATOM     12  O   UNL     1       5.851   0.331   0.235  0.00  0.00    -0.494 OA
ATOM     13  C   UNL     1       6.648  -0.287  -0.777  0.00  0.00    +0.277 C 
ENDBRANCH   7  12
BRANCH   6  14
ATOM     14  C   UNL     1       3.461  -1.154   0.085  0.00  0.00    +0.069 C 
BRANCH  14  15
ATOM     15  C   UNL     1       3.834  -1.979  -1.119  0.00  0.00    -0.023 C 
ATOM     16  C   UNL     1       4.752  -2.908  -1.017  0.00  0.00    -0.076 C 
ATOM     17  C   UNL     1       5.489  -3.100   0.283  0.00  0.00    +0.039 C 
BRANCH  16  18
ATOM     18  C   UNL     1       5.070  -3.786  -2.200  0.00  0.00    +0.041 C 
BRANCH  18  19
ATOM     19  C   UNL     1       6.264  -3.203  -2.960  0.00  0.00    +0.125 C 
BRANCH  19  20
ATOM     20  C   UNL     1       6.582  -4.081  -4.144  0.00  0.00    +0.307 C 
ATOM     21  O   UNL     1       5.923  -5.070  -4.357  0.00  0.00    -0.251 OA
BRANCH  20  22
ATOM     22  O   UNL     1       7.599  -3.763  -4.960  0.00  0.00    -0.468 OA
ATOM     23  C   UNL     1       7.848  -4.653  -6.080  0.00  0.00    +0.280 C 
ENDBRANCH  20  22
ENDBRANCH  19  20
ENDBRANCH  18  19
ENDBRANCH  16  18
ENDBRANCH  14  15
ENDBRANCH   6  14
BRANCH   5  24
ATOM     24  O   UNL     1       1.209   0.310  -0.775  0.00  0.00    -0.460 OA
BRANCH  24  25
ATOM     25  C   UNL     1       0.638  -0.168   0.445  0.00  0.00    +0.340 C 
ATOM     26  C   UNL     1      -0.235  -1.391   0.155  0.00  0.00    +0.214 C 
ATOM     27  C   UNL     1      -1.386  -0.981  -0.768  0.00  0.00    +0.180 C 
ATOM     28  C   UNL     1      -2.176   0.154  -0.108  0.00  0.00    +0.186 C 
ATOM     29  C   UNL     1      -1.228   1.318   0.192  0.00  0.00    +0.266 C 
ATOM     30  O   UNL     1      -0.164   0.860   1.029  0.00  0.00    -0.322 OA
BRANCH  29  31
ATOM     31  C   UNL     1      -1.986   2.414   0.896  0.00  0.00    +0.387 C 
ATOM     32  O   UNL     1      -1.707   2.706   2.035  0.00  0.00    -0.243 OA
ATOM     33  O   UNL     1      -2.970   3.067   0.257  0.00  0.00    -0.243 OA
ENDBRANCH  29  31
BRANCH  28  34
ATOM     34  O   UNL     1      -3.209   0.594  -0.992  0.00  0.00    -0.386 OA
ATOM     35  H   UNL     1      -3.883   1.408  -0.687  0.00  0.00    +0.210 HD
ENDBRANCH  28  34
BRANCH  27  36
ATOM     36  O   UNL     1      -0.860  -0.531  -2.019  0.00  0.00    -0.386 OA
ATOM     37  H   UNL     1      -1.541  -0.194  -2.813  0.00  0.00    +0.210 HD
ENDBRANCH  27  36
BRANCH  26  38
ATOM     38  O   UNL     1      -0.763  -1.902   1.380  0.00  0.00    -0.383 OA
ATOM     39  H   UNL     1      -1.418  -2.786   1.371  0.00  0.00    +0.210 HD
ENDBRANCH  26  38
ENDBRANCH  24  25
ENDBRANCH   5  24
TORSDOF 13
