REMARK  Name = ZINC64845869
REMARK  5 active torsions:
REMARK  status: ('A' for Active; 'I' for Inactive)
REMARK    1  A    between atoms: C_1  and  N_2
REMARK    2  A    between atoms: C_10  and  N_12
REMARK    3  A    between atoms: C_13  and  C_15
REMARK    4  A    between atoms: C_15  and  C_16
REMARK    5  A    between atoms: C_16  and  N_17
REMARK                            x       y       z     vdW  Elec       q    Type
REMARK                         _______ _______ _______ _____ _____    ______ ____
ROOT
ATOM      1  N   UNL     1       4.954  -2.520  -0.434  0.00  0.00    -0.285 N 
ATOM      2  C   UNL     1       6.055  -1.791  -0.703  0.00  0.00    +0.219 C 
ATOM      3  O   UNL     1       5.982  -0.582  -0.761  0.00  0.00    -0.275 OA
ATOM      4  H   UNL     1       5.024  -3.481  -0.322  0.00  0.00    +0.155 HD
ENDROOT
BRANCH   1  14
ATOM      5  C   UNL     1      -0.130   1.180   0.900  0.00  0.00    +0.129 C 
ATOM      6  N   UNL     1       0.005  -0.005   0.049  0.00  0.00    -0.333 N 
ATOM      7  C   UNL     1      -1.152  -0.531  -0.687  0.00  0.00    +0.105 C 
ATOM      8  C   UNL     1      -1.161  -2.056  -0.518  0.00  0.00    +0.024 C 
ATOM      9  C   UNL     1       0.102  -2.631  -1.159  0.00  0.00    +0.038 C 
ATOM     10  C   UNL     1       1.325  -1.914  -0.650  0.00  0.00    -0.025 A 
ATOM     11  C   UNL     1       1.242  -0.650  -0.083  0.00  0.00    +0.033 A 
ATOM     12  C   UNL     1       2.390  -0.009   0.369  0.00  0.00    +0.025 A 
ATOM     13  C   UNL     1       3.619  -0.627   0.253  0.00  0.00    +0.025 A 
ATOM     14  C   UNL     1       3.707  -1.890  -0.316  0.00  0.00    +0.034 A 
ATOM     15  C   UNL     1       2.558  -2.535  -0.759  0.00  0.00    +0.028 A 
ENDBRANCH   1  14
BRANCH   2  16
ATOM     16  C   UNL     1       7.376  -2.478  -0.932  0.00  0.00    +0.115 C 
BRANCH  16  17
ATOM     17  C   UNL     1       8.454  -1.430  -1.215  0.00  0.00    +0.127 C 
BRANCH  17  18
ATOM     18  N   UNL     1       9.738  -2.098  -1.438  0.00  0.00    -0.224 N 
ATOM     19  C   UNL     1      10.624  -2.383  -0.461  0.00  0.00    +0.247 C 
ATOM     20  O   UNL     1      10.514  -2.144   0.723  0.00  0.00    -0.273 OA
ATOM     21  C   UNL     1      11.784  -3.062  -1.152  0.00  0.00    +0.113 C 
ATOM     22  C   UNL     1      11.962  -4.480  -0.621  0.00  0.00    +0.035 C 
ATOM     23  C   UNL     1      13.120  -5.160  -1.356  0.00  0.00    +0.003 C 
ATOM     24  C   UNL     1      14.402  -4.353  -1.143  0.00  0.00    +0.000 C 
ATOM     25  C   UNL     1      14.216  -2.941  -1.702  0.00  0.00    +0.003 C 
ATOM     26  C   UNL     1      13.062  -2.252  -0.969  0.00  0.00    +0.035 C 
ATOM     27  N   UNL     1      11.389  -3.088  -2.567  0.00  0.00    -0.285 N 
ATOM     28  C   UNL     1      10.177  -2.506  -2.635  0.00  0.00    +0.309 C 
ATOM     29  O   UNL     1       9.552  -2.365  -3.667  0.00  0.00    -0.252 OA
ATOM     30  H   UNL     1      11.900  -3.455  -3.305  0.00  0.00    +0.151 HD
ENDBRANCH  17  18
ENDBRANCH  16  17
ENDBRANCH   2  16
TORSDOF 4
