REMARK  Name = ZINC41586248
REMARK  8 active torsions:
REMARK  status: ('A' for Active; 'I' for Inactive)
REMARK    1  A    between atoms: C_1  and  C_2
REMARK    2  A    between atoms: C_2  and  O_3
REMARK    3  A    between atoms: O_3  and  C_4
REMARK    4  A    between atoms: C_4  and  C_6
REMARK    5  A    between atoms: N_9  and  C_12
REMARK    6  A    between atoms: C_12  and  C_13
REMARK    7  A    between atoms: C_14  and  O_32
REMARK    8  A    between atoms: C_21  and  C_22
REMARK                            x       y       z     vdW  Elec       q    Type
REMARK                         _______ _______ _______ _____ _____    ______ ____
ROOT
ATOM      1  C   UNL     1      -5.900  -6.248   1.594  0.00  0.00    +0.020 A 
ATOM      2  C   UNL     1      -6.114  -7.048   0.482  0.00  0.00    +0.122 A 
ATOM      3  C   UNL     1      -6.329  -8.416   0.625  0.00  0.00    +0.046 A 
ATOM      4  C   UNL     1      -6.330  -8.984   1.868  0.00  0.00    +0.019 A 
ATOM      5  C   UNL     1      -6.115  -8.191   2.996  0.00  0.00    +0.068 A 
ATOM      6  C   UNL     1      -5.892  -6.811   2.864  0.00  0.00    +0.144 A 
ATOM      7  O   UNL     1      -5.705  -6.261   4.083  0.00  0.00    -0.451 OA
ATOM      8  C   UNL     1      -5.779  -7.185   5.069  0.00  0.00    +0.176 C 
ATOM      9  C   UNL     1      -5.635  -6.953   6.398  0.00  0.00    +0.058 C 
ATOM     10  C   UNL     1      -6.056  -8.486   4.439  0.00  0.00    +0.231 C 
ATOM     11  O   UNL     1      -6.193  -9.566   4.986  0.00  0.00    -0.283 OA
ENDROOT
BRANCH   9  12
ATOM     12  C   UNL     1      -5.570  -8.081   7.338  0.00  0.00    -0.020 A 
ATOM     13  C   UNL     1      -4.855  -9.236   7.002  0.00  0.00    +0.009 A 
ATOM     14  C   UNL     1      -4.798 -10.290   7.888  0.00  0.00    +0.022 A 
ATOM     15  C   UNL     1      -5.447 -10.208   9.110  0.00  0.00    +0.059 A 
ATOM     16  C   UNL     1      -6.157  -9.067   9.451  0.00  0.00    +0.060 A 
ATOM     17  C   UNL     1      -6.218  -8.002   8.576  0.00  0.00    +0.029 A 
ATOM     18 CL   UNL     1      -6.965  -8.976  10.984  0.00  0.00    -0.082 Cl
ATOM     19 CL   UNL     1      -5.370 -11.541  10.220  0.00  0.00    -0.082 Cl
ENDBRANCH   9  12
BRANCH   2  20
ATOM     20  O   UNL     1      -6.115  -6.493  -0.756  0.00  0.00    -0.506 OA
ATOM     21  H   UNL     1      -5.246  -6.474  -1.179  0.00  0.00    +0.292 HD
ENDBRANCH   2  20
BRANCH   1  22
ATOM     22  C   UNL     1      -5.670  -4.769   1.424  0.00  0.00    -0.036 C 
BRANCH  22  26
ATOM     23  C   UNL     1      -1.936  -3.440  -0.142  0.00  0.00    +0.094 C 
ATOM     24  C   UNL     1      -2.494  -2.791   1.127  0.00  0.00    -0.004 C 
ATOM     25  C   UNL     1      -3.997  -3.064   1.216  0.00  0.00    -0.078 C 
ATOM     26  N   UNL     1      -4.232  -4.513   1.261  0.00  0.00    +0.383 N 
ATOM     27  C   UNL     1      -3.765  -5.132   0.015  0.00  0.00    -0.078 C 
ATOM     28  C   UNL     1      -2.253  -4.938  -0.119  0.00  0.00    -0.004 C 
ATOM     29  H   UNL     1      -3.731  -4.910   2.042  0.00  0.00    -0.081 HD
BRANCH  23  30
ATOM     30  C   UNL     1      -0.443  -3.241  -0.196  0.00  0.00    +0.310 C 
ATOM     31  O   UNL     1       0.293  -4.199  -0.214  0.00  0.00    -0.251 OA
BRANCH  30  32
ATOM     32  O   UNL     1       0.068  -2.001  -0.224  0.00  0.00    -0.465 OA
BRANCH  32  34
ATOM     33  C   UNL     1       1.884  -0.408  -0.300  0.00  0.00    +0.048 C 
ATOM     34  C   UNL     1       1.492  -1.887  -0.274  0.00  0.00    +0.229 C 
ENDBRANCH  32  34
ENDBRANCH  30  32
ENDBRANCH  23  30
ENDBRANCH  22  26
ENDBRANCH   1  22
TORSDOF 7
