REMARK  Name = ZINC39993969
REMARK  5 active torsions:
REMARK  status: ('A' for Active; 'I' for Inactive)
REMARK    1  A    between atoms: N_10  and  C_11
REMARK    2  A    between atoms: C_12  and  C_22
REMARK    3  A    between atoms: C_23  and  C_24
REMARK    4  A    between atoms: C_23  and  C_26
REMARK    5  A    between atoms: N_28  and  C_29
REMARK                            x       y       z     vdW  Elec       q    Type
REMARK                         _______ _______ _______ _____ _____    ______ ____
ROOT
ATOM      1  C   UNL     1       4.818   0.077  -0.336  0.00  0.00    +0.140 A 
ATOM      2  C   UNL     1       4.752   1.445  -0.709  0.00  0.00    +0.081 A 
ATOM      3  C   UNL     1       5.966   2.123  -0.991  0.00  0.00    +0.267 A 
ATOM      4  O   UNL     1       5.959   3.297  -1.315  0.00  0.00    -0.267 OA
ATOM      5  N   UNL     1       7.130   1.444  -0.894  0.00  0.00    -0.268 N 
ATOM      6  C   UNL     1       8.301   2.088  -1.163  0.00  0.00    +0.096 A 
ATOM      7  C   UNL     1       9.484   1.439  -1.076  0.00  0.00    +0.018 A 
ATOM      8  C   UNL     1       9.518   0.088  -0.706  0.00  0.00    +0.005 A 
ATOM      9  C   UNL     1       8.352  -0.565  -0.434  0.00  0.00    +0.047 A 
ATOM     10  C   UNL     1       7.131   0.127  -0.529  0.00  0.00    +0.142 A 
ATOM     11  N   UNL     1       5.997  -0.520  -0.257  0.00  0.00    -0.213 NA
ENDROOT
BRANCH   1  21
ATOM     12  C   UNL     1       2.366  -0.971   3.889  0.00  0.00    +0.000 A 
ATOM     13  C   UNL     1       3.647  -0.527   3.617  0.00  0.00    +0.002 A 
ATOM     14  C   UNL     1       4.073  -0.414   2.309  0.00  0.00    +0.024 A 
ATOM     15  C   UNL     1       3.216  -0.747   1.266  0.00  0.00    +0.038 A 
ATOM     16  C   UNL     1       1.933  -1.195   1.540  0.00  0.00    -0.026 A 
ATOM     17  C   UNL     1       1.512  -1.303   2.855  0.00  0.00    +0.005 A 
ATOM     18  C   UNL     1       0.980  -1.575   0.437  0.00  0.00    +0.038 C 
ATOM     19  C   UNL     1       1.406  -0.933  -0.883  0.00  0.00    +0.024 C 
ATOM     20  C   UNL     1       2.888  -1.246  -1.132  0.00  0.00    +0.113 C 
ATOM     21  N   UNL     1       3.666  -0.621  -0.053  0.00  0.00    -0.284 N 
ENDBRANCH   1  21
BRANCH   2  22
ATOM     22  C   UNL     1       3.517   2.110  -0.797  0.00  0.00    +0.040 C 
ATOM     23  C   UNL     1       3.062   2.568  -2.026  0.00  0.00    +0.114 C 
BRANCH  23  24
ATOM     24  C   UNL     1       1.830   3.360  -2.103  0.00  0.00    +0.259 C 
ATOM     25  O   UNL     1       1.158   3.538  -1.104  0.00  0.00    -0.269 OA
ATOM     26  N   UNL     1       1.442   3.891  -3.280  0.00  0.00    -0.281 N 
ATOM     27  H   UNL     1       1.933   3.685  -4.090  0.00  0.00    +0.155 HD
BRANCH  26  28
ATOM     28  C   UNL     1       0.332   4.740  -3.332  0.00  0.00    +0.034 A 
ATOM     29  C   UNL     1      -0.506   4.722  -4.439  0.00  0.00    +0.025 A 
ATOM     30  C   UNL     1      -1.602   5.561  -4.487  0.00  0.00    +0.022 A 
ATOM     31  C   UNL     1      -1.866   6.419  -3.434  0.00  0.00    +0.041 A 
ATOM     32  C   UNL     1      -1.032   6.439  -2.329  0.00  0.00    +0.022 A 
ATOM     33  C   UNL     1       0.062   5.599  -2.273  0.00  0.00    +0.025 A 
ATOM     34 CL   UNL     1      -3.244   7.473  -3.499  0.00  0.00    -0.084 Cl
ENDBRANCH  26  28
ENDBRANCH  23  24
BRANCH  23  35
ATOM     35  C   UNL     1       3.795   2.268  -3.219  0.00  0.00    +0.104 C 
ATOM     36  N   UNL     1       4.377   2.030  -4.165  0.00  0.00    -0.191 NA
ENDBRANCH  23  35
ENDBRANCH   2  22
TORSDOF 5
