REMARK  Name = ZINC28616788
REMARK  8 active torsions:
REMARK  status: ('A' for Active; 'I' for Inactive)
REMARK    1  A    between atoms: C_3  and  C_33
REMARK    2  A    between atoms: C_5  and  N_7
REMARK    3  A    between atoms: C_8  and  C_10
REMARK    4  A    between atoms: C_10  and  O_11
REMARK    5  A    between atoms: O_11  and  C_12
REMARK    6  A    between atoms: C_14  and  C_28
REMARK    7  A    between atoms: C_19  and  C_21
REMARK    8  A    between atoms: C_21  and  N_22
REMARK                            x       y       z     vdW  Elec       q    Type
REMARK                         _______ _______ _______ _____ _____    ______ ____
ROOT
ATOM      1  C   UNL     1       6.097   1.515   2.034  0.00  0.00    +0.227 A 
ATOM      2  C   UNL     1       6.918   0.806   1.120  0.00  0.00    +0.077 A 
ATOM      3  C   UNL     1       8.266   1.111   0.649  0.00  0.00    +0.010 A 
ATOM      4  C   UNL     1       8.851   0.270  -0.237  0.00  0.00    +0.057 A 
ATOM      5  S   UNL     1       7.617  -0.991  -0.493  0.00  0.00    -0.076 S 
ATOM      6  C   UNL     1       6.353  -0.370   0.584  0.00  0.00    +0.116 A 
ATOM      7  N   UNL     1       5.144  -0.768   0.926  0.00  0.00    -0.227 NA
ATOM      8  C   UNL     1       4.426  -0.063   1.778  0.00  0.00    +0.118 A 
ATOM      9  N   UNL     1       4.894   1.048   2.318  0.00  0.00    -0.199 NA
ENDROOT
BRANCH   3  10
ATOM     10  C   UNL     1       8.978   2.314   1.129  0.00  0.00    +0.021 A 
ATOM     11  C   UNL     1      10.245   2.421   1.637  0.00  0.00    +0.016 A 
ATOM     12  C   UNL     1      10.699   3.665   2.025  0.00  0.00    +0.008 A 
ATOM     13  C   UNL     1       9.882   4.739   1.891  0.00  0.00    +0.046 A 
ATOM     14  S   UNL     1       8.413   4.007   1.190  0.00  0.00    -0.097 S 
ENDBRANCH   3  10
BRANCH   1  15
ATOM     15  O   UNL     1       6.541   2.659   2.608  0.00  0.00    -0.466 OA
BRANCH  15  16
ATOM     16  C   UNL     1       5.654   3.315   3.517  0.00  0.00    +0.326 C 
BRANCH  16  18
ATOM     17  N   UNL     1       5.661   5.343   4.933  0.00  0.00    -0.283 N 
ATOM     18  C   UNL     1       6.314   4.560   4.052  0.00  0.00    +0.255 C 
ATOM     19  O   UNL     1       7.433   4.856   3.691  0.00  0.00    -0.272 OA
ATOM     20  H   UNL     1       4.615   5.124   5.194  0.00  0.00    +0.155 HD
BRANCH  17  25
ATOM     21  C   UNL     1       6.236   8.672   6.396  0.00  0.00    +0.003 A 
ATOM     22  C   UNL     1       7.588   8.618   6.666  0.00  0.00    +0.019 A 
ATOM     23  C   UNL     1       8.316   7.466   6.360  0.00  0.00    +0.054 A 
ATOM     24  C   UNL     1       7.671   6.373   5.781  0.00  0.00    +0.042 A 
ATOM     25  C   UNL     1       6.312   6.437   5.514  0.00  0.00    +0.035 A 
ATOM     26  C   UNL     1       5.598   7.590   5.818  0.00  0.00    +0.023 A 
BRANCH  23  27
ATOM     27  C   UNL     1       9.719   7.408   6.638  0.00  0.00    +0.099 C 
ATOM     28  N   UNL     1      10.833   7.361   6.859  0.00  0.00    -0.191 NA
ENDBRANCH  23  27
ENDBRANCH  17  25
ENDBRANCH  16  18
ENDBRANCH  15  16
ENDBRANCH   1  15
BRANCH   8  29
ATOM     29  C   UNL     1       3.044  -0.538   2.149  0.00  0.00    -0.001 C 
BRANCH  29  30
ATOM     30  N   UNL     1       2.062   0.041   1.222  0.00  0.00    +0.384 N 
ATOM     31  C   UNL     1       0.743  -0.578   1.399  0.00  0.00    -0.078 C 
ATOM     32  C   UNL     1      -0.215  -0.058   0.325  0.00  0.00    -0.019 C 
ATOM     33  C   UNL     1      -0.325   1.465   0.441  0.00  0.00    -0.004 C 
ATOM     34  C   UNL     1       1.069   2.082   0.302  0.00  0.00    -0.019 C 
ATOM     35  C   UNL     1       1.989   1.500   1.377  0.00  0.00    -0.078 C 
ATOM     36  H   UNL     1       2.397  -0.171   0.196  0.00  0.00    -0.081 HD
ENDBRANCH  29  30
ENDBRANCH   8  29
TORSDOF 8
