REMARK  Name = ZINC16287088
REMARK  7 active torsions:
REMARK  status: ('A' for Active; 'I' for Inactive)
REMARK    1  A    between atoms: C_1  and  C_2
REMARK    2  A    between atoms: C_2  and  C_4
REMARK    3  A    between atoms: C_2  and  N_14
REMARK    4  A    between atoms: C_15  and  C_17
REMARK    5  A    between atoms: C_17  and  N_18
REMARK    6  A    between atoms: C_21  and  C_25
REMARK    7  A    between atoms: C_21  and  C_26
REMARK                            x       y       z     vdW  Elec       q    Type
REMARK                         _______ _______ _______ _____ _____    ______ ____
ROOT
ATOM      1  C   UNL     1      -3.533   7.344  -2.350  0.00  0.00    +0.213 C 
ENDROOT
BRANCH   1   2
ATOM      2  N   UNL     1      -4.076   8.679  -2.083  0.00  0.00    -0.215 N 
ATOM      3  C   UNL     1      -3.412   9.827  -2.321  0.00  0.00    +0.251 C 
ATOM      4  O   UNL     1      -2.296   9.947  -2.777  0.00  0.00    -0.272 OA
ATOM      5  C   UNL     1      -4.352  10.939  -1.898  0.00  0.00    +0.135 C 
ATOM      6  N   UNL     1      -5.548  10.220  -1.426  0.00  0.00    -0.281 N 
ATOM      7  C   UNL     1      -5.293   8.908  -1.578  0.00  0.00    +0.310 C 
ATOM      8  O   UNL     1      -6.080   8.028  -1.286  0.00  0.00    -0.252 OA
ATOM      9  C   UNL     1      -3.737  11.761  -0.764  0.00  0.00    +0.047 C 
ATOM     10  H   UNL     1      -6.362  10.615  -1.077  0.00  0.00    +0.152 HD
BRANCH   5  11
ATOM     11  C   UNL     1      -4.692  11.821  -3.071  0.00  0.00    -0.015 A 
ATOM     12  C   UNL     1      -3.777  11.995  -4.093  0.00  0.00    +0.007 A 
ATOM     13  C   UNL     1      -4.090  12.801  -5.171  0.00  0.00    +0.015 A 
ATOM     14  C   UNL     1      -5.315  13.441  -5.224  0.00  0.00    +0.018 A 
ATOM     15  C   UNL     1      -6.229  13.270  -4.199  0.00  0.00    +0.015 A 
ATOM     16  C   UNL     1      -5.917  12.460  -3.123  0.00  0.00    +0.007 A 
ATOM     17 BR   UNL     1      -5.742  14.548  -6.696  0.00  0.00    -0.050 Br
ENDBRANCH   5  11
ENDBRANCH   1   2
BRANCH   1  19
ATOM     18  N   UNL     1      -2.219   5.631  -1.143  0.00  0.00    -0.311 N 
ATOM     19  C   UNL     1      -2.804   6.845  -1.129  0.00  0.00    +0.231 C 
ATOM     20  O   UNL     1      -2.744   7.536  -0.134  0.00  0.00    -0.274 OA
ATOM     21  H   UNL     1      -2.267   5.079  -1.939  0.00  0.00    +0.149 HD
BRANCH  18  23
ATOM     22  C   UNL     1      -0.075   5.675   0.033  0.00  0.00    +0.028 C 
ATOM     23  C   UNL     1      -1.510   5.146   0.044  0.00  0.00    +0.076 C 
BRANCH  23  24
ATOM     24  C   UNL     1      -1.490   3.616   0.036  0.00  0.00    -0.010 C 
ATOM     25  C   UNL     1      -0.773   3.123  -1.223  0.00  0.00    +0.012 C 
ATOM     26  C   UNL     1      -0.753   1.593  -1.232  0.00  0.00    -0.010 C 
ATOM     27  C   UNL     1      -0.013   1.086   0.008  0.00  0.00    +0.007 C 
ATOM     28  C   UNL     1      -0.729   1.579   1.267  0.00  0.00    -0.010 C 
ATOM     29  C   UNL     1      -0.750   3.109   1.275  0.00  0.00    +0.012 C 
ATOM     30  C   UNL     1      -2.164   1.050   1.278  0.00  0.00    +0.007 C 
ATOM     31  C   UNL     1      -2.904   1.556   0.038  0.00  0.00    -0.010 C 
ATOM     32  C   UNL     1      -2.188   1.063  -1.221  0.00  0.00    +0.007 C 
ATOM     33  C   UNL     1      -2.925   3.086   0.047  0.00  0.00    +0.012 C 
ENDBRANCH  23  24
ENDBRANCH  18  23
ENDBRANCH   1  19
TORSDOF 5
