REMARK  Name = ZINC08962183
REMARK  9 active torsions:
REMARK  status: ('A' for Active; 'I' for Inactive)
REMARK    1  A    between atoms: C_1  and  C_2
REMARK    2  A    between atoms: C_2  and  C_3
REMARK    3  A    between atoms: C_10  and  N_16
REMARK    4  A    between atoms: N_16  and  S_17
REMARK    5  A    between atoms: S_17  and  C_20
REMARK    6  A    between atoms: C_22  and  C_29
REMARK    7  A    between atoms: C_23  and  O_27
REMARK    8  A    between atoms: C_24  and  C_26
REMARK    9  A    between atoms: O_27  and  C_28
REMARK                            x       y       z     vdW  Elec       q    Type
REMARK                         _______ _______ _______ _____ _____    ______ ____
ROOT
ATOM      1  C   UNL     1      -0.729   1.579   1.267  0.00  0.00    +0.110 C 
ATOM      2  C   UNL     1       0.030   1.098   2.496  0.00  0.00    +0.251 C 
ATOM      3  O   UNL     1      -0.187  -0.286   2.738  0.00  0.00    -0.489 OA
ATOM      4  C   UNL     1      -0.126  -1.119   1.667  0.00  0.00    +0.133 A 
ATOM      5  C   UNL     1       0.961  -1.955   1.477  0.00  0.00    +0.048 A 
ATOM      6  C   UNL     1       1.008  -2.787   0.376  0.00  0.00    +0.028 A 
ATOM      7  C   UNL     1      -0.032  -2.793  -0.548  0.00  0.00    +0.049 A 
ATOM      8  C   UNL     1      -1.127  -1.964  -0.369  0.00  0.00    +0.041 A 
ATOM      9  C   UNL     1      -1.181  -1.123   0.741  0.00  0.00    +0.080 A 
ATOM     10  C   UNL     1      -2.333  -0.230   0.965  0.00  0.00    +0.248 C 
ATOM     11  O   UNL     1      -3.470  -0.651   0.877  0.00  0.00    -0.270 OA
ATOM     12  N   UNL     1      -2.101   1.069   1.272  0.00  0.00    -0.305 N 
ATOM     13  H   UNL     1      -2.840   1.658   1.493  0.00  0.00    +0.149 HD
ENDROOT
BRANCH   1  15
ATOM     14  C   UNL     1       1.347   1.778  -0.110  0.00  0.00    +0.006 C 
ATOM     15  C   UNL     1      -0.013   1.086   0.008  0.00  0.00    +0.022 C 
ENDBRANCH   1  15
BRANCH   7  16
ATOM     16  N   UNL     1       0.028  -3.639  -1.662  0.00  0.00    -0.216 N 
ATOM     17  H   UNL     1      -0.206  -3.302  -2.541  0.00  0.00    +0.174 HD
BRANCH  16  18
ATOM     18  S   UNL     1       0.498  -5.217  -1.479  0.00  0.00    +0.072 S 
ATOM     19  O   UNL     1       0.432  -5.812  -2.767  0.00  0.00    -0.150 OA
ATOM     20  O   UNL     1       1.692  -5.198  -0.708  0.00  0.00    -0.150 OA
BRANCH  18  21
ATOM     21  C   UNL     1      -0.726  -6.014  -0.492  0.00  0.00    +0.109 A 
ATOM     22  C   UNL     1      -0.596  -6.035   0.884  0.00  0.00    +0.035 A 
ATOM     23  C   UNL     1      -1.557  -6.654   1.660  0.00  0.00    -0.007 A 
ATOM     24  C   UNL     1      -2.646  -7.265   1.056  0.00  0.00    +0.126 A 
ATOM     25  C   UNL     1      -2.771  -7.247  -0.325  0.00  0.00    -0.007 A 
ATOM     26  C   UNL     1      -1.811  -6.621  -1.096  0.00  0.00    +0.035 A 
ATOM     27  C   UNL     1      -3.953  -7.910  -0.984  0.00  0.00    +0.047 C 
ATOM     28  C   UNL     1      -1.418  -6.673   3.160  0.00  0.00    +0.047 C 
BRANCH  24  29
ATOM     29  O   UNL     1      -3.590  -7.881   1.817  0.00  0.00    -0.495 OA
ATOM     30  C   UNL     1      -3.387  -9.265   2.107  0.00  0.00    +0.277 C 
ENDBRANCH  24  29
ENDBRANCH  18  21
ENDBRANCH  16  18
ENDBRANCH   7  16
TORSDOF 5
