REMARK  Name = ZINC10129727
REMARK  10 active torsions:
REMARK  status: ('A' for Active; 'I' for Inactive)
REMARK    1  A    between atoms: C_1  and  C_2
REMARK    2  A    between atoms: C_7  and  N_8
REMARK    3  A    between atoms: C_9  and  C_11
REMARK    4  A    between atoms: N_13  and  C_14
REMARK    5  A    between atoms: C_14  and  C_15
REMARK    6  A    between atoms: C_15  and  C_17
REMARK    7  A    between atoms: C_15  and  N_66
REMARK    8  A    between atoms: C_20  and  N_23
REMARK    9  A    between atoms: N_23  and  C_24
REMARK   10  A    between atoms: N_23  and  C_25
REMARK                            x       y       z     vdW  Elec       q    Type
REMARK                         _______ _______ _______ _____ _____    ______ ____
ROOT
ATOM      1  C   UNL     1      -1.320   2.845  -1.081  0.00  0.00    -0.020 C 
ENDROOT
BRANCH   1  11
ATOM      2  C   UNL     1      -0.622   0.761  -0.059  0.00  0.00    -0.073 C 
ATOM      3  C   UNL     1       0.588   0.103   0.606  0.00  0.00    +0.017 C 
ATOM      4  C   UNL     1       0.934   0.832   1.879  0.00  0.00    -0.048 A 
ATOM      5  C   UNL     1       1.756   0.200   2.800  0.00  0.00    +0.004 A 
ATOM      6  C   UNL     1       2.105   0.836   3.974  0.00  0.00    +0.000 A 
ATOM      7  C   UNL     1       1.632   2.108   4.234  0.00  0.00    +0.000 A 
ATOM      8  C   UNL     1       0.811   2.737   3.319  0.00  0.00    +0.002 A 
ATOM      9  C   UNL     1       0.459   2.099   2.139  0.00  0.00    -0.061 A 
ATOM     10  C   UNL     1      -0.442   2.824   1.174  0.00  0.00    -0.042 C 
ATOM     11  N   UNL     1      -0.350   2.208  -0.161  0.00  0.00    +0.388 N 
ATOM     12  H   UNL     1       0.599   2.346  -0.529  0.00  0.00    -0.080 HD
ENDBRANCH   1  11
BRANCH   1  13
ATOM     13  C   UNL     1      -2.642   2.123  -1.022  0.00  0.00    -0.059 A 
ATOM     14  C   UNL     1      -3.265   1.921   0.195  0.00  0.00    +0.004 A 
ATOM     15  C   UNL     1      -4.479   1.265   0.252  0.00  0.00    +0.023 A 
ATOM     16  C   UNL     1      -5.068   0.798  -0.916  0.00  0.00    +0.029 A 
ATOM     17  C   UNL     1      -4.437   0.997  -2.137  0.00  0.00    +0.023 A 
ATOM     18  C   UNL     1      -3.226   1.659  -2.187  0.00  0.00    +0.004 A 
BRANCH  16  19
ATOM     19  N   UNL     1      -6.293   0.129  -0.862  0.00  0.00    -0.336 N 
ATOM     20  C   UNL     1      -6.972  -0.258  -2.102  0.00  0.00    +0.129 C 
ATOM     21  C   UNL     1      -6.899  -0.186   0.433  0.00  0.00    +0.129 C 
ENDBRANCH  16  19
ENDBRANCH   1  13
BRANCH   1  22
ATOM     22  C   UNL     1      -1.519   4.308  -0.679  0.00  0.00    +0.094 C 
BRANCH  22  25
ATOM     23  C   UNL     1      -0.141   6.270  -0.248  0.00  0.00    +0.299 C 
ATOM     24  O   UNL     1      -1.138   6.853   0.123  0.00  0.00    -0.265 OA
ATOM     25  N   UNL     1      -0.224   4.992  -0.669  0.00  0.00    -0.309 N 
ATOM     26  H   UNL     1       0.573   4.526  -0.965  0.00  0.00    +0.149 HD
BRANCH  23  28
ATOM     27  N   UNL     1       1.263   8.245   0.184  0.00  0.00    -0.278 N 
ATOM     28  C   UNL     1       1.180   6.968  -0.237  0.00  0.00    +0.303 C 
ATOM     29  O   UNL     1       2.178   6.384  -0.608  0.00  0.00    -0.265 OA
ATOM     30  H   UNL     1       0.480   8.690   0.543  0.00  0.00    +0.155 HD
BRANCH  27  37
ATOM     31  C   UNL     1       1.195  11.078  -0.068  0.00  0.00    +0.045 C 
ATOM     32  C   UNL     1       2.492  10.313  -0.021  0.00  0.00    -0.029 A 
ATOM     33  C   UNL     1       3.696  10.986  -0.100  0.00  0.00    +0.005 A 
ATOM     34  C   UNL     1       4.886  10.284  -0.057  0.00  0.00    +0.000 A 
ATOM     35  C   UNL     1       4.877   8.907   0.067  0.00  0.00    +0.002 A 
ATOM     36  C   UNL     1       3.677   8.228   0.152  0.00  0.00    +0.023 A 
ATOM     37  C   UNL     1       2.479   8.929   0.103  0.00  0.00    +0.037 A 
ENDBRANCH  27  37
ENDBRANCH  23  28
ENDBRANCH  22  25
ENDBRANCH   1  22
TORSDOF 7
