REMARK  Name = ZINC13060355
REMARK  9 active torsions:
REMARK  status: ('A' for Active; 'I' for Inactive)
REMARK    1  A    between atoms: C_1  and  C_2
REMARK    2  A    between atoms: C_3  and  C_25
REMARK    3  A    between atoms: C_4  and  C_18
REMARK    4  A    between atoms: N_9  and  C_10
REMARK    5  A    between atoms: C_13  and  C_16
REMARK    6  A    between atoms: C_25  and  O_27
REMARK    7  A    between atoms: O_27  and  C_28
REMARK    8  A    between atoms: C_28  and  C_29
REMARK    9  A    between atoms: C_28  and  C_30
REMARK                            x       y       z     vdW  Elec       q    Type
REMARK                         _______ _______ _______ _____ _____    ______ ____
ROOT
ATOM      1  C   UNL     1      -4.135   2.920   2.855  0.00  0.00    +0.062 C 
ATOM      2  C   UNL     1      -3.935   2.166   1.565  0.00  0.00    +0.029 C 
ATOM      3  C   UNL     1      -2.765   1.530   1.343  0.00  0.00    +0.078 C 
ATOM      4  C   UNL     1      -2.606   0.784   0.033  0.00  0.00    +0.144 C 
ATOM      5  N   UNL     1      -3.748   0.814  -0.895  0.00  0.00    -0.288 N 
ATOM      6  C   UNL     1      -4.854   1.494  -0.532  0.00  0.00    +0.311 C 
ATOM      7  O   UNL     1      -5.801   1.525  -1.292  0.00  0.00    -0.252 OA
ATOM      8  N   UNL     1      -4.941   2.137   0.640  0.00  0.00    -0.228 N 
ATOM      9  H   UNL     1      -3.706   0.356  -1.749  0.00  0.00    +0.151 HD
ENDROOT
BRANCH   4  10
ATOM     10  C   UNL     1      -1.409   1.354  -0.683  0.00  0.00    -0.022 A 
ATOM     11  C   UNL     1      -0.196   0.694  -0.635  0.00  0.00    +0.007 A 
ATOM     12  C   UNL     1       0.901   1.213  -1.297  0.00  0.00    +0.015 A 
ATOM     13  C   UNL     1       0.785   2.397  -2.003  0.00  0.00    +0.018 A 
ATOM     14  C   UNL     1      -0.428   3.060  -2.047  0.00  0.00    +0.015 A 
ATOM     15  C   UNL     1      -1.524   2.540  -1.385  0.00  0.00    +0.007 A 
ATOM     16 BR   UNL     1       2.285   3.109  -2.908  0.00  0.00    -0.050 Br
ENDBRANCH   4  10
BRANCH   8  17
ATOM     17  C   UNL     1      -6.126   2.815   0.932  0.00  0.00    +0.043 A 
ATOM     18  C   UNL     1      -6.332   4.098   0.435  0.00  0.00    +0.025 A 
ATOM     19  C   UNL     1      -7.501   4.768   0.717  0.00  0.00    +0.017 A 
ATOM     20  C   UNL     1      -8.477   4.162   1.513  0.00  0.00    +0.063 A 
ATOM     21  C   UNL     1      -8.264   2.875   2.016  0.00  0.00    +0.017 A 
ATOM     22  C   UNL     1      -7.095   2.209   1.725  0.00  0.00    +0.025 A 
BRANCH  20  23
ATOM     23  C   UNL     1      -9.729   4.878   1.822  0.00  0.00    +0.387 C 
ATOM     24  O   UNL     1     -10.577   4.350   2.514  0.00  0.00    -0.241 OA
ATOM     25  O   UNL     1      -9.933   6.119   1.336  0.00  0.00    -0.241 OA
ENDBRANCH  20  23
ENDBRANCH   8  17
BRANCH   3  26
ATOM     26  C   UNL     1      -1.723   1.558   2.300  0.00  0.00    +0.339 C 
ATOM     27  O   UNL     1      -1.908   2.075   3.385  0.00  0.00    -0.245 OA
BRANCH  26  28
ATOM     28  O   UNL     1      -0.524   1.011   2.008  0.00  0.00    -0.459 OA
BRANCH  28  29
ATOM     29  C   UNL     1       0.481   1.076   3.021  0.00  0.00    +0.171 C 
ATOM     30  C   UNL     1       1.413  -0.131   2.892  0.00  0.00    +0.052 C 
ATOM     31  C   UNL     1       1.290   2.364   2.856  0.00  0.00    +0.052 C 
ENDBRANCH  28  29
ENDBRANCH  26  28
ENDBRANCH   3  26
TORSDOF 6
