REMARK  Name = ZINC13064610
REMARK  11 active torsions:
REMARK  status: ('A' for Active; 'I' for Inactive)
REMARK    1  A    between atoms: C_1  and  C_2
REMARK    2  A    between atoms: C_2  and  C_3
REMARK    3  A    between atoms: C_3  and  C_5
REMARK    4  A    between atoms: C_3  and  N_69
REMARK    5  A    between atoms: N_9  and  C_10
REMARK    6  A    between atoms: C_16  and  C_17
REMARK    7  A    between atoms: C_16  and  N_69
REMARK    8  A    between atoms: C_22  and  C_23
REMARK    9  A    between atoms: C_22  and  N_69
REMARK   10  A    between atoms: C_27  and  C_36
REMARK   11  A    between atoms: C_28  and  C_35
REMARK                            x       y       z     vdW  Elec       q    Type
REMARK                         _______ _______ _______ _____ _____    ______ ____
ROOT
ATOM      1  N   UNL     1      -5.526   4.113  -1.667  0.00  0.00    +0.392 N 
ATOM      2  H   UNL     1      -4.894   4.528  -2.361  0.00  0.00    -0.080 HD
ENDROOT
BRANCH   1   3
ATOM      3  C   UNL     1      -6.800   4.862  -1.669  0.00  0.00    +0.003 C 
BRANCH   3   4
ATOM      4  C   UNL     1      -6.505   6.311  -1.956  0.00  0.00    +0.138 A 
ATOM      5  N   UNL     1      -5.523   7.024  -1.459  0.00  0.00    -0.115 NA
ATOM      6  N   UNL     1      -5.608   8.214  -1.946  0.00  0.00    -0.023 NA
ATOM      7  N   UNL     1      -6.619   8.279  -2.741  0.00  0.00    -0.044 NA
ATOM      8  N   UNL     1      -7.194   7.125  -2.778  0.00  0.00    -0.228 N 
BRANCH   8   9
ATOM      9  C   UNL     1      -8.377   6.767  -3.565  0.00  0.00    +0.111 C 
ATOM     10  C   UNL     1      -8.083   6.975  -5.052  0.00  0.00    +0.027 C 
ATOM     11  C   UNL     1      -9.319   6.601  -5.873  0.00  0.00    +0.002 C 
ATOM     12  C   UNL     1     -10.495   7.487  -5.457  0.00  0.00    +0.000 C 
ATOM     13  C   UNL     1     -10.789   7.279  -3.970  0.00  0.00    +0.002 C 
ATOM     14  C   UNL     1      -9.553   7.653  -3.148  0.00  0.00    +0.027 C 
ENDBRANCH   8   9
ENDBRANCH   3   4
BRANCH   3  16
ATOM     15  C   UNL     1      -7.925   3.292  -0.083  0.00  0.00    +0.002 C 
ATOM     16  C   UNL     1      -7.492   4.742  -0.309  0.00  0.00    -0.011 C 
ENDBRANCH   3  16
ENDBRANCH   1   3
BRANCH   1  17
ATOM     17  C   UNL     1      -5.770   2.700  -2.025  0.00  0.00    -0.034 C 
BRANCH  17  18
ATOM     18  C   UNL     1      -6.286   2.637  -3.439  0.00  0.00    -0.027 A 
ATOM     19  C   UNL     1      -5.589   2.631  -4.602  0.00  0.00    +0.009 A 
ATOM     20  C   UNL     1      -6.280   2.567  -5.797  0.00  0.00    +0.008 A 
ATOM     21  C   UNL     1      -7.634   2.512  -5.771  0.00  0.00    +0.045 A 
ATOM     22  S   UNL     1      -7.972   2.543  -4.019  0.00  0.00    -0.103 S 
ENDBRANCH  17  18
ENDBRANCH   1  17
BRANCH   1  23
ATOM     23  C   UNL     1      -4.894   4.194  -0.333  0.00  0.00    -0.036 C 
BRANCH  23  24
ATOM     24  C   UNL     1      -3.464   3.733  -0.446  0.00  0.00    +0.001 A 
ATOM     25  C   UNL     1      -2.473   4.641  -0.627  0.00  0.00    +0.017 A 
ATOM     26  C   UNL     1      -1.095   4.160  -0.738  0.00  0.00    -0.001 A 
ATOM     27  C   UNL     1      -0.033   5.047  -0.943  0.00  0.00    +0.013 A 
ATOM     28  C   UNL     1       1.242   4.566  -1.042  0.00  0.00    -0.047 A 
ATOM     29  C   UNL     1       1.493   3.204  -0.941  0.00  0.00    -0.046 A 
ATOM     30  C   UNL     1       0.462   2.312  -0.739  0.00  0.00    +0.030 A 
ATOM     31  C   UNL     1      -0.845   2.778  -0.641  0.00  0.00    +0.049 A 
ATOM     32  N   UNL     1      -1.896   1.907  -0.445  0.00  0.00    -0.322 N 
ATOM     33  H   UNL     1      -1.721   0.956  -0.374  0.00  0.00    +0.169 HD
ATOM     34  C   UNL     1      -3.159   2.358  -0.350  0.00  0.00    +0.251 A 
ATOM     35  O   UNL     1      -4.063   1.560  -0.177  0.00  0.00    -0.268 OA
ATOM     36  C   UNL     1       2.907   2.696  -1.053  0.00  0.00    +0.044 C 
ATOM     37  C   UNL     1       2.386   5.522  -1.262  0.00  0.00    +0.044 C 
ENDBRANCH  23  24
ENDBRANCH   1  23
TORSDOF 8
