REMARK  Name = ZINC08869305
REMARK  6 active torsions:
REMARK  status: ('A' for Active; 'I' for Inactive)
REMARK    1  A    between atoms: C_1  and  C_2
REMARK    2  A    between atoms: C_5  and  S_8
REMARK    3  A    between atoms: S_8  and  N_11
REMARK    4  A    between atoms: C_15  and  C_17
REMARK    5  A    between atoms: N_19  and  C_20
REMARK    6  A    between atoms: C_21  and  C_28
REMARK                            x       y       z     vdW  Elec       q    Type
REMARK                         _______ _______ _______ _____ _____    ______ ____
ROOT
ATOM      1  C   UNL     1       5.242   4.474   0.688  0.00  0.00    +0.236 C 
ATOM      2  O   UNL     1       4.508   5.126   1.399  0.00  0.00    -0.274 OA
ATOM      3  N   UNL     1       4.772   3.378   0.060  0.00  0.00    -0.278 N 
ATOM      4  H   UNL     1       5.360   2.856  -0.509  0.00  0.00    +0.155 HD
ENDROOT
BRANCH   3   5
ATOM      5  C   UNL     1       3.450   2.996   0.227  0.00  0.00    +0.084 A 
ATOM      6  C   UNL     1       2.790   1.913  -0.329  0.00  0.00    +0.068 A 
ATOM      7  C   UNL     1       1.379   1.733   0.010  0.00  0.00    -0.023 A 
ATOM      8  C   UNL     1       0.869   2.658   0.843  0.00  0.00    -0.004 A 
ATOM      9  S   UNL     1       2.223   3.758   1.179  0.00  0.00    -0.077 S 
ATOM     10  C   UNL     1      -0.582   2.405   1.147  0.00  0.00    +0.043 C 
ATOM     11  C   UNL     1      -0.816   0.936   0.731  0.00  0.00    +0.010 C 
ATOM     12  C   UNL     1       0.274   0.735  -0.340  0.00  0.00    +0.037 C 
BRANCH   6  13
ATOM     13  C   UNL     1       3.481   0.980  -1.224  0.00  0.00    +0.244 C 
ATOM     14  O   UNL     1       3.494   1.185  -2.424  0.00  0.00    -0.270 OA
ATOM     15  N   UNL     1       4.103  -0.103  -0.719  0.00  0.00    -0.325 N 
ATOM     16  H   UNL     1       4.093  -0.266   0.237  0.00  0.00    +0.145 HD
ATOM     17  H   UNL     1       4.560  -0.721  -1.311  0.00  0.00    +0.145 HD
ENDBRANCH   6  13
ENDBRANCH   3   5
BRANCH   1  22
ATOM     18  N   UNL     1       6.812   6.338   0.713  0.00  0.00    -0.165 NA
ATOM     19  C   UNL     1       7.711   6.572   1.858  0.00  0.00    +0.110 C 
ATOM     20  C   UNL     1       8.586   5.296   1.942  0.00  0.00    +0.019 C 
ATOM     21  C   UNL     1       7.564   4.189   1.560  0.00  0.00    +0.031 C 
ATOM     22  C   UNL     1       6.679   4.888   0.507  0.00  0.00    +0.166 C 
BRANCH  18  23
ATOM     23  S   UNL     1       6.073   7.513  -0.190  0.00  0.00    +0.062 S 
ATOM     24  O   UNL     1       5.004   6.882  -0.881  0.00  0.00    -0.153 OA
ATOM     25  O   UNL     1       5.872   8.623   0.674  0.00  0.00    -0.153 OA
BRANCH  23  30
ATOM     26  C   UNL     1      10.031   9.287  -4.385  0.00  0.00    +0.044 C 
ATOM     27  C   UNL     1       9.042   8.845  -3.338  0.00  0.00    -0.050 A 
ATOM     28  C   UNL     1       8.115   7.862  -3.633  0.00  0.00    +0.005 A 
ATOM     29  C   UNL     1       7.208   7.456  -2.672  0.00  0.00    +0.029 A 
ATOM     30  C   UNL     1       7.229   8.031  -1.415  0.00  0.00    +0.106 A 
ATOM     31  C   UNL     1       8.152   9.017  -1.121  0.00  0.00    +0.029 A 
ATOM     32  C   UNL     1       9.062   9.420  -2.081  0.00  0.00    +0.005 A 
ENDBRANCH  23  30
ENDBRANCH  18  23
ENDBRANCH   1  22
TORSDOF 5
