REMARK  Name = ZINC08790124
REMARK  4 active torsions:
REMARK  status: ('A' for Active; 'I' for Inactive)
REMARK    1  A    between atoms: C_7  and  C_11
REMARK    2  A    between atoms: C_11  and  C_12
REMARK    3  A    between atoms: C_12  and  N_13
REMARK    4  A    between atoms: C_14  and  C_16
REMARK                            x       y       z     vdW  Elec       q    Type
REMARK                         _______ _______ _______ _____ _____    ______ ____
ROOT
ATOM      1  C   UNL     1       4.028   7.671   2.605  0.00  0.00    +0.167 C 
ATOM      2  C   UNL     1       5.384   7.282   1.999  0.00  0.00    +0.069 C 
ATOM      3  C   UNL     1       6.228   6.567   3.022  0.00  0.00    -0.015 A 
ATOM      4  C   UNL     1       7.426   5.783   2.780  0.00  0.00    +0.003 A 
ATOM      5  C   UNL     1       8.120   5.460   1.610  0.00  0.00    +0.010 A 
ATOM      6  C   UNL     1       9.242   4.680   1.750  0.00  0.00    +0.001 A 
ATOM      7  C   UNL     1       9.673   4.228   2.987  0.00  0.00    +0.002 A 
ATOM      8  C   UNL     1       9.005   4.533   4.160  0.00  0.00    +0.026 A 
ATOM      9  C   UNL     1       7.863   5.324   4.048  0.00  0.00    +0.047 A 
ATOM     10  N   UNL     1       6.986   5.802   4.977  0.00  0.00    -0.356 N 
ATOM     11  H   UNL     1       7.044   5.646   5.933  0.00  0.00    +0.166 HD
ATOM     12  C   UNL     1       6.010   6.535   4.357  0.00  0.00    +0.046 A 
ATOM     13  C   UNL     1       4.838   7.223   5.014  0.00  0.00    +0.155 C 
ATOM     14  N   UNL     1       4.264   8.119   3.981  0.00  0.00    -0.273 N 
ATOM     15  C   UNL     1       4.094   9.340   4.548  0.00  0.00    +0.248 C 
ATOM     16  O   UNL     1       3.464  10.253   4.050  0.00  0.00    -0.270 OA
ATOM     17  C   UNL     1       4.765   9.387   5.851  0.00  0.00    +0.042 A 
ATOM     18  C   UNL     1       5.248   8.097   6.150  0.00  0.00    -0.009 A 
ATOM     19  C   UNL     1       5.947   7.840   7.308  0.00  0.00    +0.006 A 
ATOM     20  C   UNL     1       6.148   8.909   8.177  0.00  0.00    +0.000 A 
ATOM     21  C   UNL     1       5.671  10.174   7.897  0.00  0.00    +0.001 A 
ATOM     22  C   UNL     1       4.969  10.451   6.733  0.00  0.00    +0.013 A 
ENDROOT
BRANCH   1  24
ATOM     23  N   UNL     1       2.768   5.886   1.444  0.00  0.00    -0.313 N 
ATOM     24  C   UNL     1       3.109   6.477   2.607  0.00  0.00    +0.234 C 
ATOM     25  O   UNL     1       2.676   6.047   3.655  0.00  0.00    -0.274 OA
ATOM     26  H   UNL     1       3.114   6.231   0.606  0.00  0.00    +0.149 HD
BRANCH  23  27
ATOM     27  C   UNL     1       1.874   4.726   1.447  0.00  0.00    +0.109 C 
BRANCH  27  28
ATOM     28  C   UNL     1       1.649   4.252   0.009  0.00  0.00    +0.056 C 
BRANCH  28  35
ATOM     29  C   UNL     1      -3.016   3.796   0.051  0.00  0.00    +0.001 A 
ATOM     30  C   UNL     1      -3.430   2.471   0.048  0.00  0.00    +0.002 A 
ATOM     31  C   UNL     1      -2.508   1.447   0.033  0.00  0.00    +0.026 A 
ATOM     32  C   UNL     1      -1.149   1.741   0.016  0.00  0.00    +0.047 A 
ATOM     33  C   UNL     1      -0.734   3.086   0.026  0.00  0.00    +0.003 A 
ATOM     34  C   UNL     1      -1.686   4.108   0.040  0.00  0.00    +0.010 A 
ATOM     35  C   UNL     1       0.730   3.058   0.011  0.00  0.00    -0.021 A 
ATOM     36  C   UNL     1       1.098   1.767   0.001  0.00  0.00    +0.087 A 
ATOM     37  N   UNL     1      -0.011   0.966   0.007  0.00  0.00    -0.360 N 
ATOM     38  H   UNL     1       0.002  -0.004   0.002  0.00  0.00    +0.165 HD
ENDBRANCH  28  35
ENDBRANCH  27  28
ENDBRANCH  23  27
ENDBRANCH   1  24
TORSDOF 4
