REMARK  Name = ZINC00706185
REMARK  13 active torsions:
REMARK  status: ('A' for Active; 'I' for Inactive)
REMARK    1  A    between atoms: C_1  and  C_2
REMARK    2  A    between atoms: C_2  and  C_39
REMARK    3  A    between atoms: C_6  and  C_24
REMARK    4  A    between atoms: C_8  and  C_22
REMARK    5  A    between atoms: C_9  and  N_21
REMARK    6  A    between atoms: N_10  and  C_11
REMARK    7  A    between atoms: C_15  and  C_17
REMARK    8  A    between atoms: C_26  and  O_34
REMARK    9  A    between atoms: C_27  and  O_32
REMARK   10  A    between atoms: C_28  and  O_30
REMARK   11  A    between atoms: O_30  and  C_31
REMARK   12  A    between atoms: O_32  and  C_33
REMARK   13  A    between atoms: O_34  and  C_35
REMARK                            x       y       z     vdW  Elec       q    Type
REMARK                         _______ _______ _______ _____ _____    ______ ____
ROOT
ATOM      1  C   UNL     1       3.286   5.573   2.051  0.00  0.00    +0.011 C 
ATOM      2  C   UNL     1       3.548   5.818   0.564  0.00  0.00    -0.023 C 
ATOM      3  C   UNL     1       2.393   5.248  -0.262  0.00  0.00    +0.058 C 
ATOM      4  C   UNL     1       1.109   5.947   0.111  0.00  0.00    +0.025 C 
ATOM      5  C   UNL     1       1.111   7.231   0.526  0.00  0.00    +0.025 C 
ATOM      6  C   UNL     1      -0.173   7.928   0.900  0.00  0.00    +0.098 C 
ATOM      7  C   UNL     1      -1.364   7.200   0.350  0.00  0.00    +0.077 C 
ATOM      8  C   UNL     1      -1.269   5.909  -0.066  0.00  0.00    +0.107 C 
ATOM      9  N   UNL     1      -0.065   5.247   0.015  0.00  0.00    -0.260 N 
ATOM     10  C   UNL     1       2.311   7.958   0.627  0.00  0.00    +0.162 C 
ATOM     11  O   UNL     1       2.277   9.118   0.986  0.00  0.00    -0.292 OA
ATOM     12  C   UNL     1       3.636   7.325   0.299  0.00  0.00    +0.086 C 
ATOM     13  C   UNL     1       4.857   5.142   0.154  0.00  0.00    +0.011 C 
ENDROOT
BRANCH   9  14
ATOM     14  C   UNL     1      -0.040   3.847  -0.007  0.00  0.00    +0.040 A 
ATOM     15  C   UNL     1      -0.098   3.131   1.182  0.00  0.00    +0.024 A 
ATOM     16  C   UNL     1      -0.073   1.751   1.157  0.00  0.00    +0.002 A 
ATOM     17  C   UNL     1       0.010   1.081  -0.051  0.00  0.00    +0.012 A 
ATOM     18  C   UNL     1       0.073   1.791  -1.235  0.00  0.00    +0.057 A 
ATOM     19  C   UNL     1       0.043   3.172  -1.218  0.00  0.00    +0.036 A 
BRANCH  18  20
ATOM     20  C   UNL     1       0.169   1.057  -2.548  0.00  0.00    +0.417 C 
ATOM     21  F   UNL     1       0.178  -0.322  -2.312  0.00  0.00    -0.166 F 
ATOM     22  F   UNL     1      -0.931   1.386  -3.348  0.00  0.00    -0.166 F 
ATOM     23  F   UNL     1       1.349   1.425  -3.203  0.00  0.00    -0.166 F 
ENDBRANCH  18  20
ENDBRANCH   9  14
BRANCH   6  24
ATOM     24  C   UNL     1      -0.282   7.989   2.402  0.00  0.00    -0.028 A 
ATOM     25  C   UNL     1      -0.307   6.821   3.140  0.00  0.00    +0.054 A 
ATOM     26  C   UNL     1      -0.401   6.874   4.522  0.00  0.00    +0.165 A 
ATOM     27  C   UNL     1      -0.483   8.103   5.165  0.00  0.00    +0.204 A 
ATOM     28  C   UNL     1      -0.463   9.276   4.419  0.00  0.00    +0.165 A 
ATOM     29  C   UNL     1      -0.362   9.214   3.037  0.00  0.00    +0.054 A 
BRANCH  28  30
ATOM     30  O   UNL     1      -0.543  10.481   5.043  0.00  0.00    -0.491 OA
ATOM     31  C   UNL     1      -0.516  11.644   4.213  0.00  0.00    +0.277 C 
ENDBRANCH  28  30
BRANCH  27  32
ATOM     32  O   UNL     1      -0.582   8.159   6.521  0.00  0.00    -0.488 OA
ATOM     33  C   UNL     1      -1.899   8.149   7.076  0.00  0.00    +0.277 C 
ENDBRANCH  27  32
BRANCH  26  34
ATOM     34  O   UNL     1      -0.420   5.724   5.248  0.00  0.00    -0.491 OA
ATOM     35  C   UNL     1      -0.332   4.496   4.521  0.00  0.00    +0.277 C 
ENDBRANCH  26  34
ENDBRANCH   6  24
BRANCH   8  36
ATOM     36  N   UNL     1      -2.376   5.264  -0.564  0.00  0.00    -0.345 N 
ATOM     37  H   UNL     1      -2.330   4.319  -0.780  0.00  0.00    +0.144 HD
ATOM     38  H   UNL     1      -3.203   5.753  -0.699  0.00  0.00    +0.144 HD
ENDBRANCH   8  36
BRANCH   7  39
ATOM     39  C   UNL     1      -2.622   7.879   0.257  0.00  0.00    +0.099 C 
ATOM     40  N   UNL     1      -3.619   8.417   0.184  0.00  0.00    -0.191 NA
ENDBRANCH   7  39
TORSDOF 8
