REMARK  Name = ZINC36758480
REMARK  10 active torsions:
REMARK  status: ('A' for Active; 'I' for Inactive)
REMARK    1  A    between atoms: C_1  and  C_2
REMARK    2  A    between atoms: C_2  and  C_3
REMARK    3  A    between atoms: C_3  and  C_4
REMARK    4  A    between atoms: C_3  and  C_5
REMARK    5  A    between atoms: C_3  and  C_6
REMARK    6  A    between atoms: N_14  and  C_18
REMARK    7  A    between atoms: C_18  and  C_19
REMARK    8  A    between atoms: N_21  and  C_22
REMARK    9  A    between atoms: C_22  and  C_24
REMARK   10  A    between atoms: C_22  and  C_25
REMARK                            x       y       z     vdW  Elec       q    Type
REMARK                         _______ _______ _______ _____ _____    ______ ____
ROOT
ATOM      1  C   UNL     1       0.739  -2.027  -1.265  0.00  0.00    -0.005 C 
ATOM      2  C   UNL     1       1.478  -2.534  -0.025  0.00  0.00    +0.006 C 
ATOM      3  C   UNL     1       1.488  -4.065  -0.028  0.00  0.00    +0.035 C 
ATOM      4  C   UNL     1       2.175  -4.569  -1.292  0.00  0.00    +0.113 C 
ATOM      5  C   UNL     1       1.464  -4.051  -2.538  0.00  0.00    +0.035 C 
ATOM      6  C   UNL     1       1.455  -2.521  -2.524  0.00  0.00    +0.006 C 
ATOM      7  C   UNL     1       3.629  -4.155  -1.304  0.00  0.00    +0.247 C 
ATOM      8  O   UNL     1       4.071  -3.026  -1.302  0.00  0.00    -0.273 OA
ATOM      9  N   UNL     1       4.332  -5.307  -1.316  0.00  0.00    -0.215 N 
ATOM     10  C   UNL     1       3.526  -6.376  -1.315  0.00  0.00    +0.310 C 
ATOM     11  O   UNL     1       3.926  -7.524  -1.325  0.00  0.00    -0.252 OA
ATOM     12  N   UNL     1       2.223  -6.037  -1.301  0.00  0.00    -0.285 N 
ATOM     13  H   UNL     1       1.465  -6.643  -1.296  0.00  0.00    +0.151 HD
ENDROOT
BRANCH   1  14
ATOM     14  C   UNL     1       0.718  -0.497  -1.257  0.00  0.00    -0.032 C 
ATOM     15  C   UNL     1      -0.022   0.009  -2.496  0.00  0.00    +0.011 C 
ATOM     16  C   UNL     1       2.154   0.032  -1.268  0.00  0.00    +0.011 C 
BRANCH  14  18
ATOM     17  C   UNL     1      -0.019   1.526   0.010  0.00  0.00    +0.004 C 
ATOM     18  C   UNL     1       0.002  -0.004   0.002  0.00  0.00    +0.003 C 
ENDBRANCH  14  18
ENDBRANCH   1  14
BRANCH   9  19
ATOM     19  C   UNL     1       5.795  -5.378  -1.331  0.00  0.00    +0.213 C 
BRANCH  19  20
ATOM     20  C   UNL     1       6.311  -5.410   0.085  0.00  0.00    +0.231 C 
ATOM     21  O   UNL     1       5.532  -5.376   1.014  0.00  0.00    -0.274 OA
ATOM     22  N   UNL     1       7.636  -5.476   0.317  0.00  0.00    -0.307 N 
ATOM     23  H   UNL     1       8.259  -5.503  -0.426  0.00  0.00    +0.149 HD
BRANCH  22  24
ATOM     24  C   UNL     1       8.138  -5.507   1.694  0.00  0.00    +0.100 C 
ATOM     25  C   UNL     1       8.265  -4.077   2.222  0.00  0.00    +0.033 C 
BRANCH  24  26
ATOM     26  C   UNL     1       9.489  -6.174   1.721  0.00  0.00    -0.024 A 
ATOM     27  C   UNL     1      10.406  -5.916   0.720  0.00  0.00    +0.009 A 
ATOM     28  C   UNL     1      11.646  -6.527   0.742  0.00  0.00    +0.050 A 
ATOM     29  C   UNL     1      11.972  -7.402   1.768  0.00  0.00    +0.162 A 
ATOM     30  C   UNL     1      11.050  -7.659   2.776  0.00  0.00    +0.162 A 
ATOM     31  C   UNL     1       9.810  -7.039   2.750  0.00  0.00    +0.055 A 
ATOM     32  O   UNL     1      11.353  -8.507   3.796  0.00  0.00    -0.485 OA
ATOM     33  C   UNL     1      12.462  -9.390   3.592  0.00  0.00    +0.270 C 
ATOM     34  C   UNL     1      13.625  -8.574   3.012  0.00  0.00    +0.270 C 
ATOM     35  O   UNL     1      13.195  -7.999   1.773  0.00  0.00    -0.485 OA
ENDBRANCH  24  26
ENDBRANCH  22  24
ENDBRANCH  19  20
ENDBRANCH   9  19
TORSDOF 6
