REMARK  Name = ZINC35707161
REMARK  7 active torsions:
REMARK  status: ('A' for Active; 'I' for Inactive)
REMARK    1  A    between atoms: C_1  and  C_2
REMARK    2  A    between atoms: C_6  and  C_8
REMARK    3  A    between atoms: C_22  and  C_24
REMARK    4  A    between atoms: C_24  and  N_25
REMARK    5  A    between atoms: N_25  and  C_26
REMARK    6  A    between atoms: N_31  and  C_32
REMARK    7  A    between atoms: C_35  and  N_38
REMARK                            x       y       z     vdW  Elec       q    Type
REMARK                         _______ _______ _______ _____ _____    ______ ____
ROOT
ATOM      1  C   UNL     1      -0.244  -0.772   3.570  0.00  0.00    +0.159 C 
ATOM      2  C   UNL     1       1.224  -0.986   3.849  0.00  0.00    +0.049 A 
ATOM      3  C   UNL     1       1.996  -0.453   4.801  0.00  0.00    +0.025 A 
ATOM      4  C   UNL     1       3.298  -0.973   4.628  0.00  0.00    +0.020 A 
ATOM      5  C   UNL     1       3.265  -1.811   3.567  0.00  0.00    +0.092 A 
ATOM      6  N   UNL     1       1.999  -1.831   3.084  0.00  0.00    -0.316 N 
ATOM      7  C   UNL     1       1.453  -2.545   2.008  0.00  0.00    +0.068 A 
ATOM      8  C   UNL     1       2.249  -3.188   1.081  0.00  0.00    +0.028 A 
ATOM      9  C   UNL     1       1.664  -3.873   0.030  0.00  0.00    +0.002 A 
ATOM     10  C   UNL     1       0.287  -3.913  -0.090  0.00  0.00    +0.002 A 
ATOM     11  C   UNL     1      -0.516  -3.275   0.836  0.00  0.00    +0.025 A 
ATOM     12  C   UNL     1       0.059  -2.590   1.895  0.00  0.00    +0.061 A 
ATOM     13  N   UNL     1      -0.744  -1.958   2.856  0.00  0.00    -0.255 N 
ATOM     14  C   UNL     1      -1.974  -2.438   3.127  0.00  0.00    +0.238 C 
ATOM     15  O   UNL     1      -2.417  -3.369   2.487  0.00  0.00    -0.273 OA
ENDROOT
BRANCH   1  21
ATOM     16  C   UNL     1      -1.422   4.072   3.131  0.00  0.00    +0.044 C 
ATOM     17  C   UNL     1      -0.992   2.772   2.503  0.00  0.00    -0.050 A 
ATOM     18  C   UNL     1      -0.765   2.704   1.141  0.00  0.00    +0.003 A 
ATOM     19  C   UNL     1      -0.370   1.511   0.565  0.00  0.00    +0.001 A 
ATOM     20  C   UNL     1      -0.202   0.386   1.351  0.00  0.00    +0.006 A 
ATOM     21  C   UNL     1      -0.428   0.454   2.713  0.00  0.00    -0.021 A 
ATOM     22  C   UNL     1      -0.818   1.649   3.290  0.00  0.00    +0.009 A 
ENDBRANCH   1  21
BRANCH  14  23
ATOM     23  C   UNL     1      -2.800  -1.817   4.224  0.00  0.00    +0.205 C 
BRANCH  23  24
ATOM     24  N   UNL     1      -4.027  -2.596   4.411  0.00  0.00    -0.274 N 
ATOM     25  C   UNL     1      -5.136  -2.286   3.710  0.00  0.00    +0.307 C 
ATOM     26  O   UNL     1      -5.148  -1.303   2.995  0.00  0.00    -0.252 OA
ATOM     27  N   UNL     1      -6.231  -3.067   3.802  0.00  0.00    -0.269 N 
ATOM     28  H   UNL     1      -6.258  -3.790   4.447  0.00  0.00    +0.156 HD
BRANCH  27  29
ATOM     29  C   UNL     1      -7.329  -2.832   2.966  0.00  0.00    +0.035 A 
ATOM     30  C   UNL     1      -7.132  -2.370   1.672  0.00  0.00    +0.025 A 
ATOM     31  C   UNL     1      -8.218  -2.141   0.850  0.00  0.00    +0.034 A 
ATOM     32  C   UNL     1      -9.500  -2.370   1.314  0.00  0.00    +0.126 A 
ATOM     33  C   UNL     1      -9.699  -2.830   2.603  0.00  0.00    +0.034 A 
ATOM     34  C   UNL     1      -8.617  -3.067   3.428  0.00  0.00    +0.025 A 
BRANCH  32  35
ATOM     35  N   UNL     1     -10.661  -2.123   0.430  0.00  0.00    +0.056 N 
ATOM     36  O   UNL     1     -10.488  -1.721  -0.697  0.00  0.00    -0.126 OA
ATOM     37  O   UNL     1     -11.782  -2.324   0.835  0.00  0.00    -0.126 OA
ENDBRANCH  32  35
ENDBRANCH  27  29
BRANCH  24  38
ATOM     38  C   UNL     1      -4.049  -3.711   5.361  0.00  0.00    +0.078 C 
ATOM     39  C   UNL     1      -2.873  -3.834   6.333  0.00  0.00    +0.024 C 
ATOM     40  C   UNL     1      -3.013  -4.821   5.172  0.00  0.00    +0.024 C 
ENDBRANCH  24  38
ENDBRANCH  23  24
ENDBRANCH  14  23
TORSDOF 6
