REMARK  Name = ZINC67293082
REMARK  6 active torsions:
REMARK  status: ('A' for Active; 'I' for Inactive)
REMARK    1  A    between atoms: C_1  and  O_2
REMARK    2  A    between atoms: O_2  and  C_3
REMARK    3  A    between atoms: C_8  and  N_9
REMARK    4  A    between atoms: C_11  and  C_21
REMARK    5  A    between atoms: N_23  and  C_24
REMARK    6  A    between atoms: C_24  and  C_25
REMARK                            x       y       z     vdW  Elec       q    Type
REMARK                         _______ _______ _______ _____ _____    ______ ____
ROOT
ATOM      1  N   UNL     1       0.044  -2.749  -0.148  0.00  0.00    -0.322 N 
ATOM      2  C   UNL     1       0.031  -4.058  -0.270  0.00  0.00    +0.212 A 
ATOM      3  C   UNL     1      -0.629  -4.910   0.739  0.00  0.00    +0.097 A 
ATOM      4  C   UNL     1      -1.103  -6.143   0.312  0.00  0.00    +0.030 A 
ATOM      5  C   UNL     1      -0.906  -6.489  -1.098  0.00  0.00    +0.020 A 
ATOM      6  C   UNL     1      -1.578  -7.577  -1.669  0.00  0.00    +0.031 A 
ATOM      7  C   UNL     1      -1.378  -7.879  -2.998  0.00  0.00    +0.042 A 
ATOM      8  C   UNL     1      -0.516  -7.111  -3.770  0.00  0.00    +0.023 A 
ATOM      9  C   UNL     1       0.153  -6.037  -3.220  0.00  0.00    +0.048 A 
ATOM     10  C   UNL     1      -0.032  -5.716  -1.884  0.00  0.00    +0.138 A 
ATOM     11  O   UNL     1       0.620  -4.668  -1.331  0.00  0.00    -0.439 OA
ATOM     12 CL   UNL     1      -2.207  -9.227  -3.711  0.00  0.00    -0.084 Cl
ATOM     13  H   UNL     1      -0.374  -2.330   0.620  0.00  0.00    +0.169 HD
ENDROOT
BRANCH   1  19
ATOM     14  C   UNL     1      -0.042  -0.904  -1.682  0.00  0.00    +0.143 A 
ATOM     15  C   UNL     1       0.579  -0.127  -2.643  0.00  0.00    +0.049 A 
ATOM     16  C   UNL     1       1.874  -0.412  -3.037  0.00  0.00    +0.024 A 
ATOM     17  C   UNL     1       2.558  -1.477  -2.474  0.00  0.00    +0.043 A 
ATOM     18  C   UNL     1       1.952  -2.262  -1.513  0.00  0.00    +0.049 A 
ATOM     19  C   UNL     1       0.648  -1.978  -1.104  0.00  0.00    +0.085 A 
ATOM     20 CL   UNL     1       4.182  -1.825  -2.978  0.00  0.00    -0.083 Cl
BRANCH  14  22
ATOM     21  C   UNL     1      -1.956   0.486  -1.927  0.00  0.00    +0.277 C 
ATOM     22  O   UNL     1      -1.315  -0.624  -1.294  0.00  0.00    -0.493 OA
ENDBRANCH  14  22
ENDBRANCH   1  19
BRANCH   3  23
ATOM     23  C   UNL     1      -0.779  -4.471   2.136  0.00  0.00    +0.249 C 
ATOM     24  O   UNL     1      -0.410  -3.360   2.468  0.00  0.00    -0.270 OA
ATOM     25  N   UNL     1      -1.324  -5.300   3.049  0.00  0.00    -0.309 N 
ATOM     26  H   UNL     1      -1.674  -6.162   2.773  0.00  0.00    +0.149 HD
BRANCH  25  27
ATOM     27  C   UNL     1      -1.389  -4.899   4.456  0.00  0.00    +0.136 C 
BRANCH  27  28
ATOM     28  C   UNL     1      -2.048  -6.012   5.274  0.00  0.00    +0.135 C 
ATOM     29  C   UNL     1      -2.158  -5.594   6.761  0.00  0.00    +0.035 C 
ATOM     30  C   UNL     1      -3.351  -6.473   7.227  0.00  0.00    +0.031 C 
ATOM     31  C   UNL     1      -4.236  -6.520   5.963  0.00  0.00    +0.160 C 
ATOM     32  O   UNL     1      -3.402  -6.215   4.838  0.00  0.00    -0.375 OA
ENDBRANCH  27  28
ENDBRANCH  25  27
ENDBRANCH   3  23
TORSDOF 5
