REMARK  Name = ZINC66408023
REMARK  8 active torsions:
REMARK  status: ('A' for Active; 'I' for Inactive)
REMARK    1  A    between atoms: C_1  and  C_2
REMARK    2  A    between atoms: C_5  and  C_25
REMARK    3  A    between atoms: C_11  and  C_12
REMARK    4  A    between atoms: C_14  and  O_21
REMARK    5  A    between atoms: C_15  and  O_20
REMARK    6  A    between atoms: C_16  and  O_18
REMARK    7  A    between atoms: O_18  and  C_19
REMARK    8  A    between atoms: O_21  and  C_22
REMARK                            x       y       z     vdW  Elec       q    Type
REMARK                         _______ _______ _______ _____ _____    ______ ____
ROOT
ATOM      1  C   UNL     1       0.730   1.805   0.318  0.00  0.00    +0.044 C 
ATOM      2  C   UNL     1       0.512   0.324   0.148  0.00  0.00    -0.036 A 
ATOM      3  C   UNL     1       0.520  -0.238  -1.113  0.00  0.00    +0.004 A 
ATOM      4  C   UNL     1       0.318  -1.599  -1.266  0.00  0.00    +0.007 A 
ATOM      5  C   UNL     1       0.102  -2.408  -0.168  0.00  0.00    -0.008 A 
ATOM      6  C   UNL     1       0.086  -1.862   1.110  0.00  0.00    +0.135 A 
ATOM      7  C   UNL     1       0.308  -0.486   1.262  0.00  0.00    +0.067 A 
ATOM      8  C   UNL     1       0.332   0.095   2.628  0.00  0.00    +0.196 C 
ATOM      9  O   UNL     1       0.648   1.251   2.844  0.00  0.00    -0.287 OA
ATOM     10  C   UNL     1      -0.059  -0.840   3.707  0.00  0.00    +0.038 C 
ATOM     11  C   UNL     1      -0.715  -0.438   4.819  0.00  0.00    +0.019 C 
ATOM     12  C   UNL     1       0.333  -2.288   3.466  0.00  0.00    +0.268 C 
ATOM     13  O   UNL     1      -0.145  -2.669   2.171  0.00  0.00    -0.486 OA
ATOM     14  C   UNL     1      -0.120  -3.886  -0.356  0.00  0.00    +0.047 C 
ENDROOT
BRANCH  11  15
ATOM     15  C   UNL     1      -0.922  -1.376   5.930  0.00  0.00    -0.017 A 
ATOM     16  C   UNL     1       0.043  -2.350   6.215  0.00  0.00    +0.057 A 
ATOM     17  C   UNL     1      -0.156  -3.231   7.260  0.00  0.00    +0.166 A 
ATOM     18  C   UNL     1      -1.314  -3.152   8.030  0.00  0.00    +0.201 A 
ATOM     19  C   UNL     1      -2.276  -2.184   7.750  0.00  0.00    +0.166 A 
ATOM     20  C   UNL     1      -2.082  -1.296   6.710  0.00  0.00    +0.057 A 
BRANCH  19  21
ATOM     21  O   UNL     1      -3.405  -2.111   8.504  0.00  0.00    -0.491 OA
ATOM     22  C   UNL     1      -4.350  -1.095   8.160  0.00  0.00    +0.277 C 
ENDBRANCH  19  21
BRANCH  18  23
ATOM     23  O   UNL     1      -1.506  -4.020   9.058  0.00  0.00    -0.501 OA
ATOM     24  H   UNL     1      -1.157  -3.711   9.905  0.00  0.00    +0.292 HD
ENDBRANCH  18  23
BRANCH  17  25
ATOM     25  O   UNL     1       0.780  -4.178   7.537  0.00  0.00    -0.491 OA
ATOM     26  C   UNL     1       1.943  -4.203   6.707  0.00  0.00    +0.277 C 
ENDBRANCH  17  25
ENDBRANCH  11  15
TORSDOF 4
