REMARK  Name = ZINC24465314
REMARK  7 active torsions:
REMARK  status: ('A' for Active; 'I' for Inactive)
REMARK    1  A    between atoms: C_1  and  O_2
REMARK    2  A    between atoms: O_2  and  C_3
REMARK    3  A    between atoms: C_8  and  C_9
REMARK    4  A    between atoms: C_12  and  S_15
REMARK    5  A    between atoms: N_13  and  N_14
REMARK    6  A    between atoms: S_15  and  C_16
REMARK    7  A    between atoms: C_16  and  C_17
REMARK                            x       y       z     vdW  Elec       q    Type
REMARK                         _______ _______ _______ _____ _____    ______ ____
ROOT
ATOM      1  C   UNL     1       1.258  -2.159  -0.021  0.00  0.00    +0.185 A 
ATOM      2  N   UNL     1       0.219  -2.962  -0.015  0.00  0.00    -0.127 NA
ATOM      3  N   UNL     1       0.610  -4.186  -0.026  0.00  0.00    -0.121 NA
ATOM      4  C   UNL     1       1.923  -4.241  -0.039  0.00  0.00    +0.209 A 
ATOM      5  N   UNL     1       2.382  -2.954  -0.042  0.00  0.00    -0.224 N 
ENDROOT
BRANCH   1  11
ATOM      6  C   UNL     1       0.002  -0.004   0.002  0.00  0.00    +0.131 A 
ATOM      7  C   UNL     1      -0.017   1.381   0.010  0.00  0.00    +0.046 A 
ATOM      8  C   UNL     1       1.170   2.090   0.002  0.00  0.00    +0.004 A 
ATOM      9  C   UNL     1       2.383   1.424  -0.013  0.00  0.00    +0.001 A 
ATOM     10  C   UNL     1       2.418   0.045  -0.021  0.00  0.00    +0.015 A 
ATOM     11  C   UNL     1       1.227  -0.682  -0.013  0.00  0.00    +0.062 A 
BRANCH   6  13
ATOM     12  C   UNL     1      -2.374   0.057   0.026  0.00  0.00    +0.277 C 
ATOM     13  O   UNL     1      -1.163  -0.702   0.010  0.00  0.00    -0.494 OA
ENDBRANCH   6  13
ENDBRANCH   1  11
BRANCH   5  14
ATOM     14  N   UNL     1       3.684  -2.541  -0.059  0.00  0.00    -0.295 N 
ATOM     15  H   UNL     1       4.495  -3.284  -0.074  0.00  0.00    +0.163 HD
ATOM     16  H   UNL     1       3.921  -1.467  -0.056  0.00  0.00    +0.163 HD
ENDBRANCH   5  14
BRANCH   4  17
ATOM     17  S   UNL     1       2.908  -5.701  -0.057  0.00  0.00    -0.080 S 
BRANCH  17  18
ATOM     18  C   UNL     1       1.606  -6.959  -0.050  0.00  0.00    +0.113 C 
BRANCH  18  19
ATOM     19  C   UNL     1       2.232  -8.330  -0.064  0.00  0.00    -0.020 A 
ATOM     20  C   UNL     1       2.501  -8.954  -1.268  0.00  0.00    +0.055 A 
ATOM     21  C   UNL     1       3.082 -10.213  -1.283  0.00  0.00    +0.162 A 
ATOM     22  C   UNL     1       3.384 -10.850  -0.085  0.00  0.00    +0.163 A 
ATOM     23  C   UNL     1       3.106 -10.222   1.119  0.00  0.00    +0.065 A 
ATOM     24  C   UNL     1       2.531  -8.964   1.128  0.00  0.00    +0.026 A 
ATOM     25 BR   UNL     1       2.151  -8.111   2.773  0.00  0.00    -0.050 Br
ATOM     26  O   UNL     1       3.954 -12.086  -0.078  0.00  0.00    -0.485 OA
ATOM     27  C   UNL     1       3.876 -12.838  -1.294  0.00  0.00    +0.270 C 
ATOM     28  C   UNL     1       4.260 -11.912  -2.457  0.00  0.00    +0.270 C 
ATOM     29  O   UNL     1       3.342 -10.813  -2.477  0.00  0.00    -0.485 OA
ENDBRANCH  18  19
ENDBRANCH  17  18
ENDBRANCH   4  17
TORSDOF 6
