REMARK  Name = ZINC39984696
REMARK  9 active torsions:
REMARK  status: ('A' for Active; 'I' for Inactive)
REMARK    1  A    between atoms: C_1  and  C_2
REMARK    2  A    between atoms: C_4  and  O_26
REMARK    3  A    between atoms: C_6  and  O_25
REMARK    4  A    between atoms: C_7  and  C_8
REMARK    5  A    between atoms: C_10  and  C_18
REMARK    6  A    between atoms: C_11  and  C_14
REMARK    7  A    between atoms: C_21  and  C_24
REMARK    8  A    between atoms: O_26  and  C_27
REMARK    9  A    between atoms: C_27  and  C_28
REMARK                            x       y       z     vdW  Elec       q    Type
REMARK                         _______ _______ _______ _____ _____    ______ ____
ROOT
ATOM      1  C   UNL     1      -0.279   1.774   0.218  0.00  0.00    +0.044 C 
ATOM      2  C   UNL     1      -0.194   0.276   0.081  0.00  0.00    -0.038 A 
ATOM      3  C   UNL     1      -0.355  -0.314  -1.158  0.00  0.00    +0.049 A 
ATOM      4  C   UNL     1      -0.278  -1.693  -1.286  0.00  0.00    +0.125 A 
ATOM      5  C   UNL     1      -0.039  -2.480  -0.170  0.00  0.00    +0.091 A 
ATOM      6  C   UNL     1       0.123  -1.886   1.072  0.00  0.00    +0.126 A 
ATOM      7  C   UNL     1       0.050  -0.505   1.194  0.00  0.00    +0.025 A 
ENDROOT
BRANCH   7   8
ATOM      8  C   UNL     1       0.232   0.142   2.543  0.00  0.00    +0.166 C 
ATOM      9  C   UNL     1       1.666  -0.006   3.020  0.00  0.00    +0.034 C 
ATOM     10  C   UNL     1       1.552  -0.726   4.161  0.00  0.00    +0.170 C 
ATOM     11  N   UNL     1       0.258  -1.014   4.409  0.00  0.00    -0.173 NA
ATOM     12  N   UNL     1      -0.540  -0.575   3.572  0.00  0.00    -0.296 N 
ATOM     13  H   UNL     1      -1.504  -0.683   3.589  0.00  0.00    +0.183 HD
BRANCH   9  14
ATOM     14  C   UNL     1       2.887   0.510   2.393  0.00  0.00    +0.055 C 
ATOM     15  C   UNL     1       3.243   1.987   2.480  0.00  0.00    +0.126 C 
ATOM     16  S   UNL     1       5.008   1.925   1.938  0.00  0.00    -0.128 S 
ATOM     17  C   UNL     1       4.900   0.265   1.135  0.00  0.00    +0.160 C 
ATOM     18  N   UNL     1       3.677  -0.269   1.767  0.00  0.00    -0.273 NA
ATOM     19  C   UNL     1       6.117  -0.595   1.480  0.00  0.00    +0.044 C 
ENDBRANCH   9  14
BRANCH  10  20
ATOM     20  C   UNL     1       2.708  -1.147   5.032  0.00  0.00    +0.436 C 
ATOM     21  F   UNL     1       3.911  -0.779   4.419  0.00  0.00    -0.164 F 
ATOM     22  F   UNL     1       2.608  -0.517   6.277  0.00  0.00    -0.164 F 
ATOM     23  F   UNL     1       2.679  -2.534   5.207  0.00  0.00    -0.164 F 
ENDBRANCH  10  20
ENDBRANCH   7   8
BRANCH   6  24
ATOM     24  O   UNL     1       0.357  -2.654   2.168  0.00  0.00    -0.506 OA
ATOM     25  H   UNL     1       1.295  -2.815   2.342  0.00  0.00    +0.292 HD
ENDBRANCH   6  24
BRANCH   4  26
ATOM     26  O   UNL     1      -0.438  -2.273  -2.505  0.00  0.00    -0.487 OA
BRANCH  26  27
ATOM     27  C   UNL     1      -0.346  -3.698  -2.563  0.00  0.00    +0.264 C 
BRANCH  27  28
ATOM     28  C   UNL     1      -0.547  -4.157  -3.984  0.00  0.00    -0.010 A 
ATOM     29  C   UNL     1      -1.819  -4.446  -4.443  0.00  0.00    +0.010 A 
ATOM     30  C   UNL     1      -2.005  -4.866  -5.746  0.00  0.00    +0.039 A 
ATOM     31  C   UNL     1      -0.917  -4.998  -6.593  0.00  0.00    +0.123 A 
ATOM     32  C   UNL     1       0.356  -4.709  -6.132  0.00  0.00    +0.039 A 
ATOM     33  C   UNL     1       0.539  -4.283  -4.830  0.00  0.00    +0.010 A 
ATOM     34  F   UNL     1      -1.097  -5.410  -7.867  0.00  0.00    -0.205 F 
ENDBRANCH  27  28
ENDBRANCH  26  27
ENDBRANCH   4  26
TORSDOF 7
