REMARK  Name = ZINC36005482
REMARK  13 active torsions:
REMARK  status: ('A' for Active; 'I' for Inactive)
REMARK    1  A    between atoms: C_1  and  C_2
REMARK    2  A    between atoms: C_2  and  N_3
REMARK    3  A    between atoms: C_4  and  C_23
REMARK    4  A    between atoms: C_5  and  C_18
REMARK    5  A    between atoms: C_6  and  C_11
REMARK    6  A    between atoms: C_18  and  O_20
REMARK    7  A    between atoms: O_20  and  C_21
REMARK    8  A    between atoms: C_21  and  C_22
REMARK    9  A    between atoms: C_23  and  N_24
REMARK   10  A    between atoms: N_33  and  C_34
REMARK   11  A    between atoms: C_34  and  C_35
REMARK   12  A    between atoms: C_34  and  C_36
REMARK   13  A    between atoms: C_34  and  C_37
REMARK                            x       y       z     vdW  Elec       q    Type
REMARK                         _______ _______ _______ _____ _____    ______ ____
ROOT
ATOM      1  N   UNL     1       0.861   0.313   1.585  0.00  0.00    -0.261 N 
ATOM      2  C   UNL     1       1.904  -0.531   1.334  0.00  0.00    +0.010 C 
ATOM      3  C   UNL     1       2.194  -1.548   2.174  0.00  0.00    +0.077 C 
ATOM      4  C   UNL     1       1.324  -1.719   3.402  0.00  0.00    +0.145 C 
ATOM      5  N   UNL     1       0.225  -0.755   3.581  0.00  0.00    -0.288 N 
ATOM      6  C   UNL     1       0.063   0.212   2.656  0.00  0.00    +0.307 C 
ATOM      7  O   UNL     1      -0.838   1.015   2.796  0.00  0.00    -0.252 OA
ATOM      8  H   UNL     1      -0.367  -0.812   4.347  0.00  0.00    +0.151 HD
ENDROOT
BRANCH   4   9
ATOM      9  C   UNL     1       2.213  -1.639   4.617  0.00  0.00    -0.004 A 
ATOM     10  C   UNL     1       2.422  -0.423   5.241  0.00  0.00    +0.007 A 
ATOM     11  C   UNL     1       3.238  -0.349   6.354  0.00  0.00    +0.000 A 
ATOM     12  C   UNL     1       3.844  -1.491   6.845  0.00  0.00    +0.001 A 
ATOM     13  C   UNL     1       3.635  -2.707   6.222  0.00  0.00    +0.020 A 
ATOM     14  C   UNL     1       2.815  -2.782   5.110  0.00  0.00    +0.046 A 
ATOM     15 CL   UNL     1       2.547  -4.310   4.331  0.00  0.00    -0.083 Cl
ENDBRANCH   4   9
BRANCH   1  17
ATOM     16  C   UNL     1       1.313   2.667   1.099  0.00  0.00    +0.025 C 
ATOM     17  C   UNL     1       0.603   1.395   0.631  0.00  0.00    +0.111 C 
ENDBRANCH   1  17
BRANCH   3  18
ATOM     18  C   UNL     1       3.274  -2.425   1.915  0.00  0.00    +0.339 C 
ATOM     19  O   UNL     1       3.072  -3.495   1.373  0.00  0.00    -0.245 OA
BRANCH  18  20
ATOM     20  O   UNL     1       4.528  -2.074   2.270  0.00  0.00    -0.462 OA
BRANCH  20  21
ATOM     21  C   UNL     1       5.583  -2.954   1.879  0.00  0.00    +0.229 C 
ATOM     22  C   UNL     1       6.905  -2.459   2.470  0.00  0.00    +0.048 C 
ENDBRANCH  20  21
ENDBRANCH  18  20
ENDBRANCH   3  18
BRANCH   2  23
ATOM     23  C   UNL     1       2.744  -0.326   0.100  0.00  0.00    -0.026 C 
BRANCH  23  24
ATOM     24  N   UNL     1       2.278  -1.223  -0.965  0.00  0.00    +0.384 N 
ATOM     25  C   UNL     1       3.260  -1.203  -2.047  0.00  0.00    -0.077 C 
ATOM     26  C   UNL     1       3.240  -2.536  -2.763  0.00  0.00    +0.000 C 
ATOM     27  C   UNL     1       2.286  -2.456  -3.968  0.00  0.00    +0.107 C 
ATOM     28  N   UNL     1       1.071  -1.685  -3.634  0.00  0.00    -0.287 N 
ATOM     29  C   UNL     1       0.388  -1.828  -2.364  0.00  0.00    +0.091 C 
ATOM     30  C   UNL     1       0.973  -0.831  -1.338  0.00  0.00    -0.059 C 
ATOM     31  C   UNL     1       0.581  -0.818  -4.541  0.00  0.00    +0.303 C 
ATOM     32  O   UNL     1       1.083  -0.746  -5.646  0.00  0.00    -0.253 OA
ATOM     33  N   UNL     1      -0.466  -0.031  -4.224  0.00  0.00    -0.294 N 
ATOM     34  H   UNL     1      -0.821  -0.036  -3.321  0.00  0.00    +0.151 HD
ATOM     35  H   UNL     1       2.235  -2.160  -0.594  0.00  0.00    -0.081 HD
BRANCH  33  36
ATOM     36  C   UNL     1      -1.069   0.832  -5.244  0.00  0.00    +0.028 C 
ATOM     37  C   UNL     1      -1.589  -0.028  -6.397  0.00  0.00    +0.031 C 
ATOM     38  C   UNL     1      -2.230   1.615  -4.627  0.00  0.00    +0.031 C 
ATOM     39  C   UNL     1      -0.017   1.810  -5.770  0.00  0.00    +0.031 C 
ENDBRANCH  33  36
ENDBRANCH  23  24
ENDBRANCH   2  23
TORSDOF 8
