REMARK  Name = ZINC38653115
REMARK  6 active torsions:
REMARK  status: ('A' for Active; 'I' for Inactive)
REMARK    1  A    between atoms: C_1  and  C_2
REMARK    2  A    between atoms: C_5  and  C_18
REMARK    3  A    between atoms: N_9  and  C_11
REMARK    4  A    between atoms: C_18  and  O_20
REMARK    5  A    between atoms: O_20  and  C_21
REMARK    6  A    between atoms: C_21  and  C_22
REMARK                            x       y       z     vdW  Elec       q    Type
REMARK                         _______ _______ _______ _____ _____    ______ ____
ROOT
ATOM      1  C   UNL     1      -0.018   1.503   0.010  0.00  0.00    +0.062 C 
ATOM      2  C   UNL     1       0.002  -0.004   0.002  0.00  0.00    +0.025 C 
ATOM      3  C   UNL     1      -1.104  -0.781   0.003  0.00  0.00    +0.004 C 
ATOM      4  C   UNL     1      -2.480  -0.815  -0.235  0.00  0.00    +0.029 C 
ATOM      5  C   UNL     1      -3.055  -1.942  -0.762  0.00  0.00    +0.094 C 
ATOM      6  S   UNL     1      -1.698  -3.107  -0.866  0.00  0.00    -0.089 S 
ATOM      7  C   UNL     1      -0.558  -2.201   0.248  0.00  0.00    +0.188 C 
ATOM      8  N   UNL     1       0.798  -2.105  -0.292  0.00  0.00    -0.234 N 
ATOM      9  N   UNL     1       1.145  -0.762  -0.013  0.00  0.00    -0.267 N 
ATOM     10  H   UNL     1       2.044  -0.432   0.143  0.00  0.00    +0.170 HD
ENDROOT
BRANCH   8  11
ATOM     11  C   UNL     1       1.560  -3.091  -0.927  0.00  0.00    +0.067 A 
ATOM     12  C   UNL     1       1.057  -3.748  -2.042  0.00  0.00    +0.026 A 
ATOM     13  C   UNL     1       1.812  -4.721  -2.667  0.00  0.00    +0.002 A 
ATOM     14  C   UNL     1       3.067  -5.042  -2.184  0.00  0.00    +0.002 A 
ATOM     15  C   UNL     1       3.572  -4.390  -1.074  0.00  0.00    +0.022 A 
ATOM     16  C   UNL     1       2.824  -3.411  -0.447  0.00  0.00    +0.064 A 
ATOM     17 CL   UNL     1       3.461  -2.588   0.943  0.00  0.00    -0.082 Cl
ENDBRANCH   8  11
BRANCH   5  18
ATOM     18  C   UNL     1      -4.406  -2.139  -1.137  0.00  0.00    +0.346 C 
ATOM     19  O   UNL     1      -5.213  -1.238  -1.001  0.00  0.00    -0.244 OA
BRANCH  18  20
ATOM     20  O   UNL     1      -4.799  -3.327  -1.644  0.00  0.00    -0.453 OA
BRANCH  20  21
ATOM     21  C   UNL     1      -6.177  -3.456  -2.001  0.00  0.00    +0.305 C 
BRANCH  21  22
ATOM     22  C   UNL     1      -6.428  -4.838  -2.545  0.00  0.00    +0.161 C 
ATOM     23  N   UNL     1      -5.420  -5.675  -2.606  0.00  0.00    -0.158 NA
ATOM     24  C   UNL     1      -5.541  -6.920  -3.079  0.00  0.00    +0.271 C 
ATOM     25  O   UNL     1      -4.583  -7.673  -3.115  0.00  0.00    -0.268 OA
ATOM     26  C   UNL     1      -6.886  -7.360  -3.563  0.00  0.00    +0.071 C 
ATOM     27  C   UNL     1      -7.219  -8.505  -4.184  0.00  0.00    -0.042 C 
ATOM     28  C   UNL     1      -6.592  -9.680  -4.931  0.00  0.00    +0.033 C 
ATOM     29  C   UNL     1      -7.580 -10.036  -6.062  0.00  0.00    +0.006 C 
ATOM     30  C   UNL     1      -8.809  -9.113  -5.858  0.00  0.00    +0.019 C 
ATOM     31  C   UNL     1      -8.716  -8.765  -4.361  0.00  0.00    +0.079 C 
ATOM     32  S   UNL     1      -9.420  -7.112  -4.016  0.00  0.00    -0.097 S 
ATOM     33  C   UNL     1      -7.940  -6.330  -3.422  0.00  0.00    +0.112 C 
ATOM     34  N   UNL     1      -7.656  -5.148  -2.931  0.00  0.00    -0.224 NA
ENDBRANCH  21  22
ENDBRANCH  20  21
ENDBRANCH  18  20
ENDBRANCH   5  18
TORSDOF 5
