REMARK  Name = ZINC05017551
REMARK  6 active torsions:
REMARK  status: ('A' for Active; 'I' for Inactive)
REMARK    1  A    between atoms: C_1  and  O_2
REMARK    2  A    between atoms: O_2  and  C_3
REMARK    3  A    between atoms: C_3  and  C_5
REMARK    4  A    between atoms: C_6  and  C_20
REMARK    5  A    between atoms: C_11  and  C_13
REMARK    6  A    between atoms: C_20  and  N_47
REMARK                            x       y       z     vdW  Elec       q    Type
REMARK                         _______ _______ _______ _____ _____    ______ ____
ROOT
ATOM      1  C   UNL     1       1.476   1.636  -0.262  0.00  0.00    +0.076 C 
ATOM      2  C   UNL     1       1.618   2.535  -1.259  0.00  0.00    +0.008 C 
ATOM      3  N   UNL     1       0.573   2.848  -2.080  0.00  0.00    -0.274 N 
ATOM      4  C   UNL     1      -0.647   2.306  -1.970  0.00  0.00    +0.304 C 
ATOM      5  O   UNL     1      -1.515   2.647  -2.749  0.00  0.00    -0.252 OA
ATOM      6  N   UNL     1      -0.942   1.393  -1.024  0.00  0.00    -0.288 N 
ATOM      7  C   UNL     1       0.118   0.987  -0.086  0.00  0.00    +0.145 C 
ATOM      8  H   UNL     1       0.722   3.499  -2.783  0.00  0.00    +0.156 HD
ATOM      9  H   UNL     1      -1.833   1.012  -0.962  0.00  0.00    +0.151 HD
ENDROOT
BRANCH   7  10
ATOM     10  C   UNL     1      -0.361   1.283   1.312  0.00  0.00    -0.004 A 
ATOM     11  C   UNL     1      -1.135   2.403   1.555  0.00  0.00    +0.007 A 
ATOM     12  C   UNL     1      -1.574   2.675   2.837  0.00  0.00    +0.000 A 
ATOM     13  C   UNL     1      -1.240   1.828   3.877  0.00  0.00    +0.001 A 
ATOM     14  C   UNL     1      -0.467   0.708   3.636  0.00  0.00    +0.020 A 
ATOM     15  C   UNL     1      -0.031   0.432   2.352  0.00  0.00    +0.046 A 
ATOM     16 CL   UNL     1       0.934  -0.978   2.046  0.00  0.00    -0.083 Cl
ENDBRANCH   7  10
BRANCH   1  17
ATOM     17  C   UNL     1       2.557   1.311   0.590  0.00  0.00    +0.338 C 
ATOM     18  O   UNL     1       3.203   0.299   0.394  0.00  0.00    -0.245 OA
BRANCH  17  20
ATOM     19  C   UNL     1       3.907   1.682   2.502  0.00  0.00    +0.280 C 
ATOM     20  O   UNL     1       2.873   2.124   1.619  0.00  0.00    -0.465 OA
ENDBRANCH  17  20
ENDBRANCH   1  17
BRANCH   2  21
ATOM     21  C   UNL     1       2.952   3.204  -1.469  0.00  0.00    -0.026 C 
BRANCH  21  27
ATOM     22  C   UNL     1       3.812   1.376  -2.803  0.00  0.00    -0.078 C 
ATOM     23  C   UNL     1       4.238   0.973  -4.216  0.00  0.00    -0.019 C 
ATOM     24  C   UNL     1       5.465   1.792  -4.626  0.00  0.00    -0.004 C 
ATOM     25  C   UNL     1       5.126   3.283  -4.543  0.00  0.00    -0.019 C 
ATOM     26  C   UNL     1       4.673   3.619  -3.120  0.00  0.00    -0.078 C 
ATOM     27  N   UNL     1       3.475   2.816  -2.795  0.00  0.00    +0.383 N 
ATOM     28  H   UNL     1       2.754   2.993  -3.503  0.00  0.00    -0.081 HD
ENDBRANCH  21  27
ENDBRANCH   2  21
TORSDOF 5
