REMARK  Name = ZINC02530444
REMARK  5 active torsions:
REMARK  status: ('A' for Active; 'I' for Inactive)
REMARK    1  A    between atoms: C_1  and  C_2
REMARK    2  A    between atoms: C_7  and  N_8
REMARK    3  A    between atoms: C_9  and  C_11
REMARK    4  A    between atoms: N_13  and  N_14
REMARK    5  A    between atoms: C_15  and  C_16
REMARK                            x       y       z     vdW  Elec       q    Type
REMARK                         _______ _______ _______ _____ _____    ______ ____
ROOT
ATOM      1  C   UNL     1       1.710   8.588   0.015  0.00  0.00    +0.318 C 
ATOM      2  O   UNL     1       2.815   8.084  -0.005  0.00  0.00    -0.263 OA
ATOM      3  N   UNL     1       0.613   7.805   0.019  0.00  0.00    -0.199 N 
ATOM      4  H   UNL     1      -0.270   8.208   0.035  0.00  0.00    +0.178 HD
ENDROOT
BRANCH   1   6
ATOM      5  N   UNL     1       2.665  10.854   0.032  0.00  0.00    -0.277 N 
ATOM      6  C   UNL     1       1.568  10.071   0.035  0.00  0.00    +0.305 C 
ATOM      7  O   UNL     1       0.463  10.575   0.056  0.00  0.00    -0.265 OA
ATOM      8  H   UNL     1       3.546  10.454   0.096  0.00  0.00    +0.155 HD
BRANCH   5  15
ATOM      9  C   UNL     1       4.763  12.477   1.062  0.00  0.00    +0.045 C 
ATOM     10  C   UNL     1       3.533  13.072   0.425  0.00  0.00    -0.029 A 
ATOM     11  C   UNL     1       3.400  14.443   0.327  0.00  0.00    +0.005 A 
ATOM     12  C   UNL     1       2.273  14.989  -0.259  0.00  0.00    +0.000 A 
ATOM     13  C   UNL     1       1.275  14.166  -0.748  0.00  0.00    +0.002 A 
ATOM     14  C   UNL     1       1.405  12.794  -0.658  0.00  0.00    +0.023 A 
ATOM     15  C   UNL     1       2.534  12.241  -0.066  0.00  0.00    +0.037 A 
ENDBRANCH   5  15
ENDBRANCH   1   6
BRANCH   3  16
ATOM     16  N   UNL     1       0.747   6.411  -0.001  0.00  0.00    -0.187 NA
ATOM     17  C   UNL     1      -0.312   5.656   0.003  0.00  0.00    +0.145 C 
BRANCH  17  18
ATOM     18  C   UNL     1      -0.171   4.191  -0.017  0.00  0.00    +0.077 A 
ATOM     19  C   UNL     1      -1.272   3.385  -0.014  0.00  0.00    +0.209 A 
ATOM     20  O   UNL     1      -1.186   2.055  -0.038  0.00  0.00    -0.462 OA
ATOM     21  C   UNL     1      -0.016   1.387  -0.055  0.00  0.00    +0.138 A 
ATOM     22  C   UNL     1       0.003  -0.004  -0.074  0.00  0.00    +0.047 A 
ATOM     23  C   UNL     1       1.206  -0.676  -0.098  0.00  0.00    +0.004 A 
ATOM     24  C   UNL     1       2.407   0.018  -0.103  0.00  0.00    +0.001 A 
ATOM     25  C   UNL     1       2.412   1.395  -0.086  0.00  0.00    +0.015 A 
ATOM     26  C   UNL     1       1.201   2.087  -0.061  0.00  0.00    +0.065 A 
ATOM     27  C   UNL     1       1.163   3.562  -0.042  0.00  0.00    +0.201 A 
ATOM     28  O   UNL     1       2.183   4.229  -0.045  0.00  0.00    -0.286 OA
ENDBRANCH  17  18
ENDBRANCH   3  16
TORSDOF 4
