REMARK  Name = ZINC63241010
REMARK  9 active torsions:
REMARK  status: ('A' for Active; 'I' for Inactive)
REMARK    1  A    between atoms: C_1  and  C_2
REMARK    2  A    between atoms: C_9  and  N_13
REMARK    3  A    between atoms: C_10  and  C_11
REMARK    4  A    between atoms: C_14  and  C_16
REMARK    5  A    between atoms: C_16  and  O_17
REMARK    6  A    between atoms: O_17  and  C_18
REMARK    7  A    between atoms: C_18  and  C_20
REMARK    8  A    between atoms: C_20  and  C_21
REMARK    9  A    between atoms: C_21  and  C_22
REMARK                            x       y       z     vdW  Elec       q    Type
REMARK                         _______ _______ _______ _____ _____    ______ ____
ROOT
ATOM      1  N   UNL     1       0.696  -5.849   2.431  0.00  0.00    -0.276 N 
ATOM      2  C   UNL     1       1.678  -6.098   3.319  0.00  0.00    +0.255 C 
ATOM      3  O   UNL     1       2.384  -5.194   3.713  0.00  0.00    -0.272 OA
ATOM      4  H   UNL     1       0.132  -6.573   2.116  0.00  0.00    +0.155 HD
ENDROOT
BRANCH   1  12
ATOM      5  C   UNL     1      -0.019   1.526   0.010  0.00  0.00    +0.008 C 
ATOM      6  C   UNL     1       0.002  -0.004   0.002  0.00  0.00    -0.009 C 
ATOM      7  C   UNL     1      -1.434  -0.537   0.019  0.00  0.00    +0.008 C 
ATOM      8  C   UNL     1      -1.433  -2.045  -0.237  0.00  0.00    +0.037 C 
ATOM      9  C   UNL     1      -0.464  -2.704   0.734  0.00  0.00    -0.018 A 
ATOM     10  C   UNL     1       0.485  -1.986   1.374  0.00  0.00    -0.004 A 
ATOM     11  S   UNL     1       1.344  -3.168   2.371  0.00  0.00    -0.077 S 
ATOM     12  C   UNL     1       0.493  -4.558   1.966  0.00  0.00    +0.090 A 
ATOM     13  C   UNL     1      -0.459  -4.119   1.059  0.00  0.00    +0.084 A 
ATOM     14  C   UNL     1       0.739  -0.515   1.248  0.00  0.00    +0.046 C 
BRANCH  13  15
ATOM     15  C   UNL     1      -1.399  -5.024   0.469  0.00  0.00    +0.102 C 
ATOM     16  N   UNL     1      -2.144  -5.741   0.000  0.00  0.00    -0.191 NA
ENDBRANCH  13  15
ENDBRANCH   1  12
BRANCH   2  17
ATOM     17  C   UNL     1       1.900  -7.501   3.824  0.00  0.00    +0.328 C 
BRANCH  17  18
ATOM     18  O   UNL     1       2.989  -7.508   4.749  0.00  0.00    -0.455 OA
BRANCH  18  19
ATOM     19  C   UNL     1       3.317  -8.690   5.295  0.00  0.00    +0.308 C 
ATOM     20  O   UNL     1       2.700  -9.685   4.997  0.00  0.00    -0.251 OA
BRANCH  19  21
ATOM     21  C   UNL     1       4.456  -8.775   6.279  0.00  0.00    +0.125 C 
BRANCH  21  22
ATOM     22  C   UNL     1       4.619 -10.223   6.745  0.00  0.00    +0.044 C 
BRANCH  22  23
ATOM     23  C   UNL     1       5.758 -10.308   7.729  0.00  0.00    -0.041 C 
ATOM     24  C   UNL     1       5.671 -10.268   9.079  0.00  0.00    -0.001 A 
ATOM     25  C   UNL     1       4.534 -10.139   9.999  0.00  0.00    +0.010 A 
ATOM     26  C   UNL     1       4.767 -10.130  11.331  0.00  0.00    +0.001 A 
ATOM     27  C   UNL     1       6.062 -10.240  11.854  0.00  0.00    +0.002 A 
ATOM     28  C   UNL     1       7.156 -10.363  11.072  0.00  0.00    +0.026 A 
ATOM     29  C   UNL     1       7.029 -10.384   9.656  0.00  0.00    +0.043 A 
ATOM     30  N   UNL     1       7.921 -10.491   8.701  0.00  0.00    -0.380 N 
ATOM     31  C   UNL     1       7.228 -10.461   7.408  0.00  0.00    +0.144 C 
ATOM     32  H   UNL     1       8.878 -10.579   8.828  0.00  0.00    +0.160 HD
ENDBRANCH  22  23
ENDBRANCH  21  22
ENDBRANCH  19  21
ENDBRANCH  18  19
ENDBRANCH  17  18
ENDBRANCH   2  17
TORSDOF 8
