REMARK  Name = ZINC00803781
REMARK  4 active torsions:
REMARK  status: ('A' for Active; 'I' for Inactive)
REMARK    1  A    between atoms: C_1  and  C_2
REMARK    2  A    between atoms: C_6  and  N_22
REMARK    3  A    between atoms: C_7  and  C_11
REMARK    4  A    between atoms: C_11  and  C_13
REMARK                            x       y       z     vdW  Elec       q    Type
REMARK                         _______ _______ _______ _____ _____    ______ ____
ROOT
ATOM      1  C   UNL     1      -2.542   3.866  -0.080  0.00  0.00    +0.065 C 
ATOM      2  C   UNL     1      -1.224   3.135  -0.080  0.00  0.00    +0.040 A 
ATOM      3  C   UNL     1      -1.206   1.748  -0.112  0.00  0.00    +0.024 A 
ATOM      4  C   UNL     1      -0.011   1.069  -0.107  0.00  0.00    +0.014 A 
ATOM      5  C   UNL     1       1.199   1.806  -0.079  0.00  0.00    +0.029 A 
ATOM      6  C   UNL     1       2.566   1.308  -0.075  0.00  0.00    +0.052 A 
ATOM      7  C   UNL     1       3.596   2.227  -0.045  0.00  0.00    +0.083 A 
ATOM      8  S   UNL     1       2.750   3.795  -0.023  0.00  0.00    -0.064 S 
ATOM      9  C   UNL     1       1.072   3.214  -0.052  0.00  0.00    +0.111 A 
ATOM     10  N   UNL     1      -0.097   3.818  -0.053  0.00  0.00    -0.245 NA
ENDROOT
BRANCH   6  11
ATOM     11  N   UNL     1       2.827  -0.053  -0.100  0.00  0.00    -0.356 N 
ATOM     12  H   UNL     1       2.093  -0.687  -0.120  0.00  0.00    +0.142 HD
ATOM     13  H   UNL     1       3.743  -0.371  -0.096  0.00  0.00    +0.142 HD
ENDBRANCH   6  11
BRANCH   7  14
ATOM     14  C   UNL     1       4.990   1.982  -0.036  0.00  0.00    +0.202 C 
ATOM     15  O   UNL     1       5.408   0.842   0.067  0.00  0.00    -0.286 OA
BRANCH  14  16
ATOM     16  C   UNL     1       5.939   3.109  -0.151  0.00  0.00    +0.027 A 
ATOM     17  C   UNL     1       7.241   2.981   0.339  0.00  0.00    +0.015 A 
ATOM     18  C   UNL     1       8.124   4.033   0.231  0.00  0.00    +0.050 A 
ATOM     19  C   UNL     1       7.725   5.222  -0.364  0.00  0.00    +0.166 A 
ATOM     20  C   UNL     1       6.426   5.356  -0.856  0.00  0.00    +0.167 A 
ATOM     21  C   UNL     1       5.538   4.303  -0.755  0.00  0.00    +0.061 A 
ATOM     22  O   UNL     1       6.288   6.607  -1.386  0.00  0.00    -0.453 OA
ATOM     23  C   UNL     1       7.630   7.090  -1.583  0.00  0.00    +0.466 C 
ATOM     24  O   UNL     1       8.397   6.388  -0.587  0.00  0.00    -0.453 OA
ENDBRANCH  14  16
ENDBRANCH   7  14
TORSDOF 3
