REMARK  Name = ZINC39696220
REMARK  11 active torsions:
REMARK  status: ('A' for Active; 'I' for Inactive)
REMARK    1  A    between atoms: C_1  and  C_2
REMARK    2  A    between atoms: C_2  and  C_3
REMARK    3  A    between atoms: C_6  and  C_9
REMARK    4  A    between atoms: C_9  and  C_11
REMARK    5  A    between atoms: C_9  and  N_12
REMARK    6  A    between atoms: C_13  and  C_15
REMARK    7  A    between atoms: C_26  and  C_28
REMARK    8  A    between atoms: C_30  and  O_36
REMARK    9  A    between atoms: C_33  and  O_34
REMARK   10  A    between atoms: O_34  and  C_35
REMARK   11  A    between atoms: O_36  and  C_37
REMARK                            x       y       z     vdW  Elec       q    Type
REMARK                         _______ _______ _______ _____ _____    ______ ____
ROOT
ATOM      1  C   UNL     1      -6.687  -4.981  -2.003  0.00  0.00    +0.100 C 
ATOM      2  C   UNL     1      -5.373  -5.768  -2.208  0.00  0.00    +0.121 C 
ATOM      3  N   UNL     1      -5.529  -6.981  -1.371  0.00  0.00    -0.296 N 
ATOM      4  C   UNL     1      -6.947  -7.374  -1.552  0.00  0.00    +0.115 C 
ATOM      5  C   UNL     1      -7.718  -6.040  -1.576  0.00  0.00    -0.004 C 
ATOM      6  C   UNL     1      -8.857  -6.106  -2.589  0.00  0.00    -0.010 C 
ATOM      7  C   UNL     1      -9.899  -7.123  -2.114  0.00  0.00    -0.082 C 
ATOM      8  N   UNL     1     -10.411  -6.723  -0.798  0.00  0.00    +0.379 N 
ATOM      9  C   UNL     1      -9.326  -6.752   0.191  0.00  0.00    -0.082 C 
ATOM     10  C   UNL     1      -8.261  -5.719  -0.187  0.00  0.00    -0.010 C 
ATOM     11  C   UNL     1      -4.593  -7.591  -0.617  0.00  0.00    +0.250 C 
ATOM     12  O   UNL     1      -3.491  -7.091  -0.494  0.00  0.00    -0.270 OA
ATOM     13  H   UNL     1     -10.788  -5.789  -0.855  0.00  0.00    -0.086 HD
ATOM     14  H   UNL     1     -11.140  -7.360  -0.514  0.00  0.00    -0.086 HD
ENDROOT
BRANCH  11  15
ATOM     15  C   UNL     1      -4.904  -8.865   0.059  0.00  0.00    +0.082 A 
ATOM     16  C   UNL     1      -5.746  -9.797  -0.554  0.00  0.00    +0.062 A 
ATOM     17  C   UNL     1      -6.033 -10.989   0.085  0.00  0.00    +0.121 A 
ATOM     18  C   UNL     1      -5.487 -11.261   1.334  0.00  0.00    +0.049 A 
ATOM     19  C   UNL     1      -4.655 -10.346   1.946  0.00  0.00    +0.050 A 
ATOM     20  C   UNL     1      -4.353  -9.148   1.315  0.00  0.00    +0.132 A 
BRANCH  20  21
ATOM     21  O   UNL     1      -3.530  -8.251   1.915  0.00  0.00    -0.494 OA
ATOM     22  C   UNL     1      -3.005  -8.608   3.196  0.00  0.00    +0.277 C 
ENDBRANCH  20  21
BRANCH  17  23
ATOM     23  O   UNL     1      -6.852 -11.897  -0.510  0.00  0.00    -0.495 OA
ATOM     24  C   UNL     1      -7.107 -13.107   0.206  0.00  0.00    +0.277 C 
ENDBRANCH  17  23
ENDBRANCH  11  15
BRANCH   1  26
ATOM     25  N   UNL     1      -7.223  -2.801  -0.965  0.00  0.00    -0.308 N 
ATOM     26  C   UNL     1      -6.517  -3.948  -0.919  0.00  0.00    +0.219 C 
ATOM     27  O   UNL     1      -5.745  -4.149  -0.006  0.00  0.00    -0.275 OA
ATOM     28  H   UNL     1      -7.840  -2.640  -1.695  0.00  0.00    +0.149 HD
BRANCH  25  29
ATOM     29  C   UNL     1      -7.057  -1.797   0.089  0.00  0.00    +0.100 C 
ATOM     30  C   UNL     1      -7.970  -2.139   1.268  0.00  0.00    +0.033 C 
BRANCH  29  34
ATOM     31  C   UNL     1      -8.092   2.055  -1.442  0.00  0.00    -0.048 A 
ATOM     32  C   UNL     1      -7.007   1.916  -0.597  0.00  0.00    +0.004 A 
ATOM     33  C   UNL     1      -6.672   0.669  -0.101  0.00  0.00    +0.006 A 
ATOM     34  C   UNL     1      -7.423  -0.438  -0.451  0.00  0.00    -0.027 A 
ATOM     35  C   UNL     1      -8.508  -0.298  -1.295  0.00  0.00    +0.006 A 
ATOM     36  C   UNL     1      -8.845   0.948  -1.787  0.00  0.00    +0.004 A 
BRANCH  31  38
ATOM     37  C   UNL     1      -9.433   4.098  -1.024  0.00  0.00    +0.009 C 
ATOM     38  C   UNL     1      -8.457   3.413  -1.982  0.00  0.00    +0.032 C 
ENDBRANCH  31  38
ENDBRANCH  29  34
ENDBRANCH  25  29
ENDBRANCH   1  26
TORSDOF 7
