REMARK  Name = ZINC16886930
REMARK  5 active torsions:
REMARK  status: ('A' for Active; 'I' for Inactive)
REMARK    1  A    between atoms: C_1  and  N_2
REMARK    2  A    between atoms: C_3  and  C_5
REMARK    3  A    between atoms: C_5  and  N_16
REMARK    4  A    between atoms: C_6  and  C_7
REMARK    5  A    between atoms: C_17  and  C_19
REMARK                            x       y       z     vdW  Elec       q    Type
REMARK                         _______ _______ _______ _____ _____    ______ ____
ROOT
ATOM      1  C   UNL     1       0.015   0.126   0.072  0.00  0.00    +0.097 C 
ATOM      2  C   UNL     1      -1.115  -0.610   0.185  0.00  0.00    +0.036 C 
ENDROOT
BRANCH   2   3
ATOM      3  C   UNL     1      -1.031  -2.072   0.305  0.00  0.00    -0.019 A 
ATOM      4  C   UNL     1       0.050  -2.762  -0.257  0.00  0.00    +0.012 A 
ATOM      5  C   UNL     1       0.129  -4.132  -0.138  0.00  0.00    +0.050 A 
ATOM      6  C   UNL     1      -0.865  -4.835   0.530  0.00  0.00    +0.166 A 
ATOM      7  C   UNL     1      -1.948  -4.155   1.088  0.00  0.00    +0.167 A 
ATOM      8  C   UNL     1      -2.033  -2.781   0.978  0.00  0.00    +0.057 A 
ATOM      9  O   UNL     1      -2.775  -5.066   1.681  0.00  0.00    -0.453 OA
ATOM     10  C   UNL     1      -1.984  -6.259   1.836  0.00  0.00    +0.466 C 
ATOM     11  O   UNL     1      -1.017  -6.169   0.774  0.00  0.00    -0.453 OA
ENDBRANCH   2   3
BRANCH   1  14
ATOM     12  C   UNL     1       0.949   3.773  -0.369  0.00  0.00    +0.128 C 
ATOM     13  N   UNL     1       1.045   2.322  -0.198  0.00  0.00    -0.313 N 
ATOM     14  C   UNL     1      -0.071   1.567  -0.202  0.00  0.00    +0.258 C 
ATOM     15  O   UNL     1      -1.150   2.078  -0.438  0.00  0.00    -0.269 OA
ATOM     16  H   UNL     1       1.913   1.904  -0.081  0.00  0.00    +0.149 HD
ENDBRANCH   1  14
BRANCH   1  17
ATOM     17  N   UNL     1       1.266  -0.484   0.216  0.00  0.00    -0.277 N 
ATOM     18  C   UNL     1       2.172  -0.407  -0.778  0.00  0.00    +0.250 C 
ATOM     19  O   UNL     1       1.936   0.263  -1.765  0.00  0.00    -0.270 OA
ATOM     20  H   UNL     1       1.480  -0.964   1.032  0.00  0.00    +0.155 HD
BRANCH  18  21
ATOM     21  C   UNL     1       3.452  -1.136  -0.669  0.00  0.00    +0.055 A 
ATOM     22  C   UNL     1       3.726  -1.906   0.464  0.00  0.00    +0.016 A 
ATOM     23  C   UNL     1       4.922  -2.585   0.560  0.00  0.00    +0.021 A 
ATOM     24  C   UNL     1       5.852  -2.504  -0.464  0.00  0.00    +0.042 A 
ATOM     25  C   UNL     1       5.588  -1.743  -1.589  0.00  0.00    +0.040 A 
ATOM     26  C   UNL     1       4.392  -1.062  -1.700  0.00  0.00    +0.054 A 
ATOM     27 CL   UNL     1       4.058  -0.113  -3.115  0.00  0.00    -0.083 Cl
ATOM     28 CL   UNL     1       7.356  -3.362  -0.335  0.00  0.00    -0.083 Cl
ENDBRANCH  18  21
ENDBRANCH   1  17
TORSDOF 4
