REMARK  Name = ZINC35843691
REMARK  16 active torsions:
REMARK  status: ('A' for Active; 'I' for Inactive)
REMARK    1  A    between atoms: C_1  and  C_2
REMARK    2  A    between atoms: C_2  and  C_3
REMARK    3  A    between atoms: C_3  and  C_4
REMARK    4  A    between atoms: C_4  and  N_5
REMARK    5  A    between atoms: N_5  and  C_6
REMARK    6  A    between atoms: N_5  and  C_31
REMARK    7  A    between atoms: C_6  and  C_7
REMARK    8  A    between atoms: N_9  and  C_10
REMARK    9  A    between atoms: N_9  and  C_22
REMARK   10  A    between atoms: C_10  and  C_11
REMARK   11  A    between atoms: C_11  and  C_12
REMARK   12  A    between atoms: C_22  and  C_23
REMARK   13  A    between atoms: C_31  and  C_33
REMARK   14  A    between atoms: C_31  and  C_34
REMARK   15  A    between atoms: C_34  and  O_36
REMARK   16  A    between atoms: O_36  and  C_37
REMARK                            x       y       z     vdW  Elec       q    Type
REMARK                         _______ _______ _______ _____ _____    ______ ____
ROOT
ATOM      1  C   UNL     1      -4.294  -3.758   0.439  0.00  0.00    +0.199 C 
ATOM      2  O   UNL     1      -5.329  -3.318  -0.015  0.00  0.00    -0.278 OA
ATOM      3  N   UNL     1      -4.296  -4.928   1.109  0.00  0.00    -0.298 N 
ENDROOT
BRANCH   1   4
ATOM      4  C   UNL     1      -3.006  -2.998   0.254  0.00  0.00    +0.020 C 
BRANCH   4   5
ATOM      5  N   UNL     1      -3.238  -1.851  -0.633  0.00  0.00    +0.394 N 
ATOM      6  H   UNL     1      -4.143  -1.451  -0.437  0.00  0.00    -0.080 HD
BRANCH   5   7
ATOM      7  C   UNL     1      -3.192  -2.296  -2.032  0.00  0.00    +0.040 C 
ATOM      8  C   UNL     1      -4.253  -3.375  -2.259  0.00  0.00    -0.002 C 
BRANCH   7   9
ATOM      9  C   UNL     1      -1.829  -2.861  -2.336  0.00  0.00    +0.293 C 
ATOM     10  O   UNL     1      -1.034  -3.033  -1.442  0.00  0.00    -0.253 OA
BRANCH   9  11
ATOM     11  O   UNL     1      -1.497  -3.173  -3.598  0.00  0.00    -0.469 OA
ATOM     12  C   UNL     1      -0.188  -3.704  -3.813  0.00  0.00    +0.280 C 
ENDBRANCH   9  11
ENDBRANCH   7   9
ENDBRANCH   5   7
BRANCH   5  13
ATOM     13  C   UNL     1      -2.197  -0.839  -0.407  0.00  0.00    -0.077 C 
BRANCH  13  14
ATOM     14  C   UNL     1      -2.513   0.411  -1.231  0.00  0.00    -0.019 C 
BRANCH  14  16
ATOM     15  C   UNL     1      -1.821   2.762  -1.718  0.00  0.00    +0.004 C 
ATOM     16  C   UNL     1      -1.505   1.512  -0.894  0.00  0.00    -0.005 C 
ENDBRANCH  14  16
ENDBRANCH  13  14
ENDBRANCH   5  13
ENDBRANCH   4   5
ENDBRANCH   1   4
BRANCH   3  17
ATOM     17  C   UNL     1      -5.526  -5.720   1.197  0.00  0.00    +0.113 C 
BRANCH  17  18
ATOM     18  C   UNL     1      -5.592  -6.690   0.016  0.00  0.00    +0.056 C 
BRANCH  18  19
ATOM     19  C   UNL     1      -6.857  -7.505   0.106  0.00  0.00    -0.021 A 
ATOM     20  C   UNL     1      -6.986  -8.721   0.660  0.00  0.00    +0.087 A 
ATOM     21  N   UNL     1      -8.282  -9.146   0.555  0.00  0.00    -0.360 N 
ATOM     22  H   UNL     1      -8.618  -9.995   0.883  0.00  0.00    +0.165 HD
ATOM     23  C   UNL     1      -9.038  -8.190  -0.085  0.00  0.00    +0.047 A 
ATOM     24  C   UNL     1      -8.180  -7.117  -0.389  0.00  0.00    +0.003 A 
ATOM     25  C   UNL     1      -8.679  -5.989  -1.043  0.00  0.00    +0.010 A 
ATOM     26  C   UNL     1     -10.002  -5.932  -1.382  0.00  0.00    +0.001 A 
ATOM     27  C   UNL     1     -10.853  -6.986  -1.080  0.00  0.00    +0.002 A 
ATOM     28  C   UNL     1     -10.380  -8.112  -0.444  0.00  0.00    +0.026 A 
ENDBRANCH  18  19
ENDBRANCH  17  18
ENDBRANCH   3  17
BRANCH   3  29
ATOM     29  C   UNL     1      -3.069  -5.407   1.751  0.00  0.00    +0.142 C 
BRANCH  29  30
ATOM     30  C   UNL     1      -3.075  -5.012   3.205  0.00  0.00    -0.029 A 
ATOM     31  C   UNL     1      -2.591  -3.775   3.587  0.00  0.00    +0.007 A 
ATOM     32  C   UNL     1      -2.595  -3.412   4.921  0.00  0.00    +0.022 A 
ATOM     33  C   UNL     1      -3.086  -4.287   5.874  0.00  0.00    +0.059 A 
ATOM     34  C   UNL     1      -3.571  -5.525   5.491  0.00  0.00    +0.060 A 
ATOM     35  C   UNL     1      -3.571  -5.885   4.155  0.00  0.00    +0.026 A 
ATOM     36 CL   UNL     1      -4.186  -6.624   6.686  0.00  0.00    -0.082 Cl
ATOM     37 CL   UNL     1      -3.091  -3.832   7.549  0.00  0.00    -0.082 Cl
ENDBRANCH  29  30
ENDBRANCH   3  29
TORSDOF 13
