REMARK  Name = ZINC00248132
REMARK  5 active torsions:
REMARK  status: ('A' for Active; 'I' for Inactive)
REMARK    1  A    between atoms: C_1  and  C_2
REMARK    2  A    between atoms: C_3  and  C_20
REMARK    3  A    between atoms: C_4  and  C_10
REMARK    4  A    between atoms: C_20  and  O_22
REMARK    5  A    between atoms: O_22  and  C_23
REMARK                            x       y       z     vdW  Elec       q    Type
REMARK                         _______ _______ _______ _____ _____    ______ ____
ROOT
ATOM      1  C   UNL     1       6.431   4.320  -2.462  0.00  0.00    +0.061 C 
ATOM      2  C   UNL     1       5.691   4.097  -1.168  0.00  0.00    +0.018 C 
ATOM      3  C   UNL     1       4.374   4.354  -1.110  0.00  0.00    +0.061 C 
ATOM      4  C   UNL     1       3.599   4.100   0.158  0.00  0.00    +0.067 C 
ATOM      5  C   UNL     1       4.499   4.364   1.367  0.00  0.00    +0.109 C 
ATOM      6  C   UNL     1       5.831   3.690   1.155  0.00  0.00    +0.218 C 
ATOM      7  O   UNL     1       6.414   3.196   2.096  0.00  0.00    -0.275 OA
ATOM      8  N   UNL     1       6.374   3.636  -0.074  0.00  0.00    -0.289 N 
ATOM      9  H   UNL     1       7.263   3.265  -0.188  0.00  0.00    +0.155 HD
ENDROOT
BRANCH   4  10
ATOM     10  C   UNL     1       3.132   2.668   0.183  0.00  0.00    -0.032 A 
ATOM     11  C   UNL     1       4.022   1.654  -0.002  0.00  0.00    +0.005 A 
ATOM     12  C   UNL     1       3.608   0.324   0.017  0.00  0.00    +0.001 A 
ATOM     13  C   UNL     1       2.302  -0.001   0.222  0.00  0.00    +0.008 A 
ATOM     14  C   UNL     1       1.355   1.018   0.417  0.00  0.00    -0.018 A 
ATOM     15  C   UNL     1       1.775   2.371   0.397  0.00  0.00    -0.014 A 
ATOM     16  C   UNL     1       0.827   3.390   0.591  0.00  0.00    +0.009 A 
ATOM     17  C   UNL     1      -0.479   3.065   0.794  0.00  0.00    +0.001 A 
ATOM     18  C   UNL     1      -0.892   1.734   0.814  0.00  0.00    +0.001 A 
ATOM     19  C   UNL     1      -0.003   0.721   0.630  0.00  0.00    +0.008 A 
ENDBRANCH   4  10
BRANCH   3  20
ATOM     20  C   UNL     1       3.708   4.867  -2.248  0.00  0.00    +0.337 C 
ATOM     21  O   UNL     1       4.346   5.193  -3.231  0.00  0.00    -0.245 OA
BRANCH  20  22
ATOM     22  O   UNL     1       2.365   4.997  -2.242  0.00  0.00    -0.465 OA
ATOM     23  C   UNL     1       1.759   5.522  -3.425  0.00  0.00    +0.280 C 
ENDBRANCH  20  22
ENDBRANCH   3  20
TORSDOF 3
