REMARK  Name = ZINC63562998
REMARK  5 active torsions:
REMARK  status: ('A' for Active; 'I' for Inactive)
REMARK    1  A    between atoms: C_7  and  C_10
REMARK    2  A    between atoms: C_10  and  C_11
REMARK    3  A    between atoms: C_11  and  N_12
REMARK    4  A    between atoms: C_13  and  C_15
REMARK    5  A    between atoms: C_18  and  C_20
REMARK                            x       y       z     vdW  Elec       q    Type
REMARK                         _______ _______ _______ _____ _____    ______ ____
ROOT
ATOM      1  C   UNL     1      -1.730  -6.532  -2.622  0.00  0.00    +0.147 A 
ATOM      2  C   UNL     1      -2.164  -7.214  -3.717  0.00  0.00    +0.051 A 
ATOM      3  N   UNL     1      -3.005  -8.187  -3.278  0.00  0.00    -0.327 N 
ATOM      4  C   UNL     1      -3.058  -8.095  -1.916  0.00  0.00    +0.142 A 
ATOM      5  N   UNL     1      -2.290  -7.102  -1.533  0.00  0.00    -0.223 NA
ATOM      6  C   UNL     1      -3.731  -9.145  -4.116  0.00  0.00    +0.123 C 
ATOM      7  C   UNL     1      -2.948  -9.388  -5.408  0.00  0.00    +0.022 C 
ATOM      8  C   UNL     1      -3.373  -8.375  -6.470  0.00  0.00    +0.002 C 
ATOM      9  C   UNL     1      -3.065  -6.955  -6.007  0.00  0.00    +0.006 C 
ATOM     10  C   UNL     1      -1.792  -6.960  -5.154  0.00  0.00    +0.056 C 
ENDROOT
BRANCH   4  11
ATOM     11  C   UNL     1      -3.844  -8.973  -1.022  0.00  0.00    +0.018 A 
ATOM     12  C   UNL     1      -3.520  -9.062   0.333  0.00  0.00    +0.013 A 
ATOM     13  C   UNL     1      -4.257  -9.882   1.162  0.00  0.00    +0.021 A 
ATOM     14  C   UNL     1      -5.316 -10.615   0.653  0.00  0.00    +0.041 A 
ATOM     15  C   UNL     1      -5.641 -10.530  -0.690  0.00  0.00    +0.021 A 
ATOM     16  C   UNL     1      -4.915  -9.709  -1.528  0.00  0.00    +0.013 A 
ATOM     17 CL   UNL     1      -6.238 -11.645   1.703  0.00  0.00    -0.084 Cl
ENDBRANCH   4  11
BRANCH   1  19
ATOM     18  N   UNL     1      -0.455  -4.800  -1.460  0.00  0.00    -0.310 N 
ATOM     19  C   UNL     1      -0.809  -5.382  -2.623  0.00  0.00    +0.264 C 
ATOM     20  O   UNL     1      -0.368  -4.957  -3.674  0.00  0.00    -0.268 OA
ATOM     21  H   UNL     1      -0.806  -5.139  -0.622  0.00  0.00    +0.149 HD
BRANCH  18  22
ATOM     22  C   UNL     1       0.461  -3.657  -1.461  0.00  0.00    +0.109 C 
BRANCH  22  23
ATOM     23  C   UNL     1       0.697  -3.191  -0.023  0.00  0.00    +0.052 C 
BRANCH  23  30
ATOM     24  C   UNL     1      -0.006   1.344   0.014  0.00  0.00    +0.001 A 
ATOM     25  C   UNL     1       1.177   2.096   0.007  0.00  0.00    +0.002 A 
ATOM     26  C   UNL     1       2.402   1.529  -0.010  0.00  0.00    +0.026 A 
ATOM     27  C   UNL     1       2.538   0.113  -0.020  0.00  0.00    +0.043 A 
ATOM     28  N   UNL     1       3.595  -0.662  -0.037  0.00  0.00    -0.380 N 
ATOM     29  C   UNL     1       3.150  -2.060  -0.042  0.00  0.00    +0.144 C 
ATOM     30  C   UNL     1       1.639  -2.014  -0.025  0.00  0.00    -0.040 C 
ATOM     31  C   UNL     1       1.304  -0.704  -0.012  0.00  0.00    -0.001 A 
ATOM     32  C   UNL     1       0.011  -0.008   0.006  0.00  0.00    +0.010 A 
ATOM     33  H   UNL     1       4.517  -0.361  -0.045  0.00  0.00    +0.160 HD
ENDBRANCH  23  30
ENDBRANCH  22  23
ENDBRANCH  18  22
ENDBRANCH   1  19
TORSDOF 5
