REMARK  Name = ZINC46550654
REMARK  8 active torsions:
REMARK  status: ('A' for Active; 'I' for Inactive)
REMARK    1  A    between atoms: C_1  and  C_2
REMARK    2  A    between atoms: C_2  and  N_3
REMARK    3  A    between atoms: N_14  and  N_15
REMARK    4  A    between atoms: C_16  and  C_18
REMARK    5  A    between atoms: C_18  and  C_19
REMARK    6  A    between atoms: C_18  and  C_20
REMARK    7  A    between atoms: C_18  and  C_30
REMARK    8  A    between atoms: C_20  and  C_21
REMARK                            x       y       z     vdW  Elec       q    Type
REMARK                         _______ _______ _______ _____ _____    ______ ____
ROOT
ATOM      1  N   UNL     1       4.122  -0.480   0.025  0.00  0.00    -0.234 N 
ATOM      2  C   UNL     1       4.774  -0.316   1.193  0.00  0.00    +0.240 C 
ATOM      3  O   UNL     1       4.179   0.094   2.167  0.00  0.00    -0.273 OA
ATOM      4  H   UNL     1       4.612  -0.732  -0.773  0.00  0.00    +0.173 HD
ENDROOT
BRANCH   1  16
ATOM      5  N   UNL     1       0.721  -0.260  -1.248  0.00  0.00    -0.280 N 
ATOM      6  C   UNL     1       0.024  -0.407  -2.399  0.00  0.00    +0.263 A 
ATOM      7  O   UNL     1      -1.179  -0.231  -2.435  0.00  0.00    -0.267 OA
ATOM      8  C   UNL     1       0.775  -0.788  -3.603  0.00  0.00    +0.065 A 
ATOM      9  C   UNL     1       0.149  -0.964  -4.837  0.00  0.00    +0.015 A 
ATOM     10  C   UNL     1       0.896  -1.319  -5.926  0.00  0.00    +0.001 A 
ATOM     11  C   UNL     1       2.268  -1.504  -5.816  0.00  0.00    +0.002 A 
ATOM     12  C   UNL     1       2.907  -1.338  -4.620  0.00  0.00    +0.028 A 
ATOM     13  C   UNL     1       2.171  -0.976  -3.487  0.00  0.00    +0.080 A 
ATOM     14  N   UNL     1       2.762  -0.800  -2.282  0.00  0.00    -0.214 NA
ATOM     15  C   UNL     1       2.071  -0.455  -1.225  0.00  0.00    +0.216 A 
ATOM     16  N   UNL     1       2.735  -0.288  -0.036  0.00  0.00    -0.234 N 
ATOM     17  H   UNL     1       2.245  -0.036   0.762  0.00  0.00    +0.173 HD
BRANCH   5  19
ATOM     18  C   UNL     1      -0.017   1.644   0.099  0.00  0.00    +0.027 C 
ATOM     19  C   UNL     1       0.020   0.119  -0.018  0.00  0.00    +0.125 C 
ENDBRANCH   5  19
ENDBRANCH   1  16
BRANCH   2  20
ATOM     20  C   UNL     1       6.242  -0.641   1.288  0.00  0.00    +0.076 C 
ATOM     21  C   UNL     1       6.475  -2.085   0.839  0.00  0.00    +0.026 C 
BRANCH  20  22
ATOM     22  C   UNL     1       7.023   0.293   0.400  0.00  0.00    -0.032 A 
ATOM     23  C   UNL     1       7.868  -0.217  -0.567  0.00  0.00    +0.004 A 
ATOM     24  C   UNL     1       8.584   0.640  -1.382  0.00  0.00    +0.000 A 
ATOM     25  C   UNL     1       8.454   2.008  -1.230  0.00  0.00    +0.000 A 
ATOM     26  C   UNL     1       7.607   2.518  -0.264  0.00  0.00    +0.000 A 
ATOM     27  C   UNL     1       6.888   1.661   0.548  0.00  0.00    +0.004 A 
ENDBRANCH  20  22
BRANCH  20  28
ATOM     28  C   UNL     1       6.709  -0.476   2.736  0.00  0.00    +0.083 C 
BRANCH  28  29
ATOM     29  C   UNL     1       8.200  -0.681   2.810  0.00  0.00    +0.081 A 
ATOM     30  N   UNL     1       9.134   0.220   2.721  0.00  0.00    -0.244 NA
ATOM     31  C   UNL     1      10.444  -0.092   2.804  0.00  0.00    +0.078 A 
ATOM     32  C   UNL     1      11.579   0.742   2.730  0.00  0.00    +0.029 A 
ATOM     33  C   UNL     1      12.831   0.218   2.839  0.00  0.00    +0.002 A 
ATOM     34  C   UNL     1      13.037  -1.142   3.024  0.00  0.00    +0.001 A 
ATOM     35  C   UNL     1      11.948  -1.991   3.102  0.00  0.00    +0.017 A 
ATOM     36  C   UNL     1      10.681  -1.472   2.994  0.00  0.00    +0.039 A 
ATOM     37  S   UNL     1       9.033  -2.127   3.033  0.00  0.00    -0.072 S 
ENDBRANCH  28  29
ENDBRANCH  20  28
ENDBRANCH   2  20
TORSDOF 6
