REMARK  Name = ZINC02254053
REMARK  13 active torsions:
REMARK  status: ('A' for Active; 'I' for Inactive)
REMARK    1  A    between atoms: C_1  and  C_2
REMARK    2  A    between atoms: C_2  and  C_3
REMARK    3  A    between atoms: C_3  and  C_4
REMARK    4  A    between atoms: C_3  and  C_5
REMARK    5  A    between atoms: C_3  and  C_6
REMARK    6  A    between atoms: C_13  and  N_20
REMARK    7  A    between atoms: C_14  and  C_15
REMARK    8  A    between atoms: C_15  and  O_17
REMARK    9  A    between atoms: O_17  and  C_18
REMARK   10  A    between atoms: C_18  and  C_19
REMARK   11  A    between atoms: N_20  and  C_21
REMARK   12  A    between atoms: C_21  and  N_23
REMARK   13  A    between atoms: C_24  and  C_26
REMARK                            x       y       z     vdW  Elec       q    Type
REMARK                         _______ _______ _______ _____ _____    ______ ____
ROOT
ATOM      1  C   UNL     1       0.739  -2.027  -1.265  0.00  0.00    -0.000 C 
ATOM      2  C   UNL     1       1.455  -2.524  -2.524  0.00  0.00    +0.009 C 
ATOM      3  C   UNL     1       1.699  -4.031  -2.424  0.00  0.00    +0.037 C 
ATOM      4  C   UNL     1       0.380  -4.720  -2.095  0.00  0.00    -0.021 A 
ATOM      5  C   UNL     1      -0.659  -4.026  -1.585  0.00  0.00    -0.004 A 
ATOM      6  S   UNL     1      -1.944  -5.225  -1.371  0.00  0.00    -0.077 S 
ATOM      7  C   UNL     1      -1.114  -6.631  -1.950  0.00  0.00    +0.086 A 
ATOM      8  C   UNL     1       0.138  -6.139  -2.296  0.00  0.00    +0.091 A 
ATOM      9  C   UNL     1      -0.701  -2.562  -1.272  0.00  0.00    +0.046 C 
ENDROOT
BRANCH   1  10
ATOM     10  C   UNL     1       0.718  -0.497  -1.257  0.00  0.00    -0.032 C 
ATOM     11  C   UNL     1      -0.022   0.009  -2.496  0.00  0.00    +0.011 C 
ATOM     12  C   UNL     1       2.154   0.032  -1.268  0.00  0.00    +0.011 C 
BRANCH  10  14
ATOM     13  C   UNL     1      -0.019   1.526   0.010  0.00  0.00    +0.004 C 
ATOM     14  C   UNL     1       0.002  -0.004   0.002  0.00  0.00    +0.003 C 
ENDBRANCH  10  14
ENDBRANCH   1  10
BRANCH   8  15
ATOM     15  C   UNL     1       1.175  -7.017  -2.841  0.00  0.00    +0.342 C 
ATOM     16  O   UNL     1       1.952  -7.579  -2.093  0.00  0.00    -0.245 OA
BRANCH  15  17
ATOM     17  O   UNL     1       1.268  -7.203  -4.174  0.00  0.00    -0.461 OA
BRANCH  17  18
ATOM     18  C   UNL     1       2.320  -8.087  -4.644  0.00  0.00    +0.229 C 
ATOM     19  C   UNL     1       2.269  -8.173  -6.171  0.00  0.00    +0.048 C 
ENDBRANCH  17  18
ENDBRANCH  15  17
ENDBRANCH   8  15
BRANCH   7  20
ATOM     20  N   UNL     1      -1.585  -7.930  -2.046  0.00  0.00    -0.290 N 
ATOM     21  H   UNL     1      -1.010  -8.630  -2.392  0.00  0.00    +0.154 HD
BRANCH  20  22
ATOM     22  C   UNL     1      -2.843  -8.221  -1.658  0.00  0.00    +0.141 C 
ATOM     23  S   UNL     1      -3.858  -6.985  -1.047  0.00  0.00    -0.018 S 
BRANCH  22  24
ATOM     24  N   UNL     1      -3.301  -9.485  -1.751  0.00  0.00    -0.263 N 
ATOM     25  C   UNL     1      -4.559  -9.776  -1.363  0.00  0.00    +0.256 C 
ATOM     26  O   UNL     1      -5.280  -8.898  -0.929  0.00  0.00    -0.270 OA
ATOM     27  H   UNL     1      -2.726 -10.185  -2.097  0.00  0.00    +0.157 HD
BRANCH  25  28
ATOM     28  C   UNL     1      -5.059 -11.156  -1.465  0.00  0.00    +0.122 A 
ATOM     29  C   UNL     1      -4.249 -12.165  -1.957  0.00  0.00    +0.031 A 
ATOM     30  C   UNL     1      -4.772 -13.481  -2.037  0.00  0.00    +0.018 A 
ATOM     31  C   UNL     1      -3.979 -14.527  -2.531  0.00  0.00    +0.011 A 
ATOM     32  C   UNL     1      -4.489 -15.791  -2.606  0.00  0.00    +0.001 A 
ATOM     33  C   UNL     1      -5.790 -16.050  -2.196  0.00  0.00    +0.004 A 
ATOM     34  C   UNL     1      -6.587 -15.037  -1.707  0.00  0.00    +0.047 A 
ATOM     35  C   UNL     1      -6.090 -13.741  -1.621  0.00  0.00    +0.139 A 
ATOM     36  O   UNL     1      -6.874 -12.751  -1.142  0.00  0.00    -0.422 OA
ATOM     37  C   UNL     1      -6.424 -11.489  -1.041  0.00  0.00    +0.350 A 
ATOM     38  O   UNL     1      -7.152 -10.619  -0.601  0.00  0.00    -0.244 OA
ENDBRANCH  25  28
ENDBRANCH  22  24
ENDBRANCH  20  22
ENDBRANCH   7  20
TORSDOF 9
