REMARK  Name = ZINC37185332
REMARK  5 active torsions:
REMARK  status: ('A' for Active; 'I' for Inactive)
REMARK    1  A    between atoms: C_1  and  C_2
REMARK    2  A    between atoms: C_6  and  N_8
REMARK    3  A    between atoms: N_8  and  C_9
REMARK    4  A    between atoms: C_9  and  C_10
REMARK    5  A    between atoms: C_14  and  N_16
REMARK                            x       y       z     vdW  Elec       q    Type
REMARK                         _______ _______ _______ _____ _____    ______ ____
ROOT
ATOM      1  C   UNL     1       0.071  -4.261   2.379  0.00  0.00    +0.137 C 
ENDROOT
BRANCH   1   2
ATOM      2  C   UNL     1       0.084  -4.774   3.796  0.00  0.00    -0.028 A 
ATOM      3  C   UNL     1       1.288  -4.988   4.442  0.00  0.00    +0.006 A 
ATOM      4  C   UNL     1       1.301  -5.458   5.742  0.00  0.00    +0.018 A 
ATOM      5  C   UNL     1       0.110  -5.714   6.396  0.00  0.00    +0.048 A 
ATOM      6  C   UNL     1      -1.094  -5.500   5.750  0.00  0.00    +0.140 A 
ATOM      7  C   UNL     1      -1.106  -5.025   4.452  0.00  0.00    +0.039 A 
ATOM      8 BR   UNL     1       0.127  -6.358   8.175  0.00  0.00    -0.048 Br
BRANCH   6   9
ATOM      9  N   UNL     1      -2.369  -5.774   6.450  0.00  0.00    +0.058 N 
ATOM     10  O   UNL     1      -3.421  -5.587   5.885  0.00  0.00    -0.126 OA
ATOM     11  O   UNL     1      -2.358  -6.186   7.587  0.00  0.00    -0.126 OA
ENDBRANCH   6   9
ENDBRANCH   1   2
BRANCH   1  12
ATOM     12  N   UNL     1       0.051  -2.796   2.390  0.00  0.00    -0.340 N 
ATOM     13  H   UNL     1       0.049  -2.318   3.234  0.00  0.00    +0.146 HD
BRANCH  12  19
ATOM     14  C   UNL     1      -0.018   1.503   0.010  0.00  0.00    +0.044 C 
ATOM     15  C   UNL     1       0.002  -0.004   0.002  0.00  0.00    -0.049 A 
ATOM     16  C   UNL     1       0.006  -0.688  -1.200  0.00  0.00    +0.003 A 
ATOM     17  C   UNL     1       0.024  -2.071  -1.212  0.00  0.00    +0.002 A 
ATOM     18  C   UNL     1       0.039  -2.773  -0.023  0.00  0.00    +0.023 A 
ATOM     19  C   UNL     1       0.036  -2.089   1.186  0.00  0.00    +0.028 A 
ATOM     20  C   UNL     1       0.023  -0.700   1.194  0.00  0.00    +0.026 A 
ENDBRANCH  12  19
ENDBRANCH   1  12
TORSDOF 4
