REMARK  Name = ZINC09452622
REMARK  4 active torsions:
REMARK  status: ('A' for Active; 'I' for Inactive)
REMARK    1  A    between atoms: C_1  and  C_2
REMARK    2  A    between atoms: C_22  and  C_29
REMARK    3  A    between atoms: C_29  and  C_31
REMARK    4  A    between atoms: C_35  and  N_37
REMARK                            x       y       z     vdW  Elec       q    Type
REMARK                         _______ _______ _______ _____ _____    ______ ____
ROOT
ATOM      1  C   UNL     1      -0.925  -4.825   3.017  0.00  0.00    +0.044 C 
ATOM      2  C   UNL     1       0.316  -4.344   2.311  0.00  0.00    -0.050 A 
ATOM      3  C   UNL     1       1.519  -5.001   2.498  0.00  0.00    +0.005 A 
ATOM      4  C   UNL     1       2.659  -4.564   1.856  0.00  0.00    +0.024 A 
ATOM      5  C   UNL     1       2.606  -3.458   1.011  0.00  0.00    +0.036 A 
ATOM      6  C   UNL     1       1.391  -2.806   0.829  0.00  0.00    -0.026 A 
ATOM      7  C   UNL     1       0.256  -3.244   1.473  0.00  0.00    +0.008 A 
ATOM      8  C   UNL     1       1.664  -1.674  -0.124  0.00  0.00    +0.060 C 
ATOM      9  C   UNL     1       3.136  -1.780  -0.433  0.00  0.00    +0.212 C 
ATOM     10  O   UNL     1       3.775  -1.055  -1.166  0.00  0.00    -0.277 OA
ATOM     11  N   UNL     1       3.605  -2.834   0.261  0.00  0.00    -0.286 N 
ATOM     12  C   UNL     1       0.823  -1.794  -1.389  0.00  0.00    +0.085 C 
ATOM     13  C   UNL     1       1.672  -1.960  -2.618  0.00  0.00    -0.011 A 
ATOM     14  C   UNL     1       2.664  -1.198  -3.194  0.00  0.00    +0.006 A 
ATOM     15  C   UNL     1       3.276  -1.624  -4.359  0.00  0.00    +0.000 A 
ATOM     16  C   UNL     1       2.889  -2.816  -4.943  0.00  0.00    +0.002 A 
ATOM     17  C   UNL     1       1.896  -3.583  -4.370  0.00  0.00    +0.023 A 
ATOM     18  C   UNL     1       1.275  -3.162  -3.196  0.00  0.00    +0.038 A 
ATOM     19  N   UNL     1       0.262  -3.751  -2.437  0.00  0.00    -0.285 N 
ATOM     20  C   UNL     1      -0.062  -3.011  -1.360  0.00  0.00    +0.228 C 
ATOM     21  O   UNL     1      -0.905  -3.274  -0.527  0.00  0.00    -0.275 OA
ATOM     22  C   UNL     1      -0.012  -0.504  -1.462  0.00  0.00    +0.066 C 
ATOM     23  C   UNL     1      -0.004  -0.001   0.001  0.00  0.00    -0.055 C 
ATOM     24  C   UNL     1       2.257   0.666  -0.050  0.00  0.00    -0.076 C 
ATOM     25  C   UNL     1       1.447   1.976  -0.002  0.00  0.00    -0.020 C 
ATOM     26  C   UNL     1      -0.030   1.537   0.006  0.00  0.00    -0.016 C 
ATOM     27  H   UNL     1       4.529  -3.127   0.241  0.00  0.00    +0.155 HD
ATOM     28  H   UNL     1      -0.159  -4.596  -2.660  0.00  0.00    +0.155 HD
ATOM     29  N   UNL     1       1.327  -0.363   0.452  0.00  0.00    +0.395 N 
ATOM     30  H   UNL     1       1.364  -0.407   1.477  0.00  0.00    -0.079 HD
ENDROOT
BRANCH  22  31
ATOM     31  C   UNL     1       0.636   0.503  -2.376  0.00  0.00    +0.166 C 
ATOM     32  O   UNL     1       1.455   1.282  -1.936  0.00  0.00    -0.292 OA
BRANCH  31  33
ATOM     33  C   UNL     1       0.277   0.542  -3.803  0.00  0.00    +0.020 A 
ATOM     34  C   UNL     1      -0.663  -0.359  -4.315  0.00  0.00    +0.011 A 
ATOM     35  C   UNL     1      -0.999  -0.313  -5.652  0.00  0.00    +0.003 A 
ATOM     36  C   UNL     1      -0.401   0.614  -6.488  0.00  0.00    +0.033 A 
ATOM     37  C   UNL     1       0.534   1.505  -5.989  0.00  0.00    +0.127 A 
ATOM     38  C   UNL     1       0.876   1.475  -4.654  0.00  0.00    +0.044 A 
BRANCH  37  39
ATOM     39  N   UNL     1       1.167   2.492  -6.892  0.00  0.00    +0.056 N 
ATOM     40  O   UNL     1       1.990   3.277  -6.455  0.00  0.00    -0.126 OA
ATOM     41  O   UNL     1       0.866   2.519  -8.072  0.00  0.00    -0.126 OA
ENDBRANCH  37  39
ENDBRANCH  31  33
ENDBRANCH  22  31
TORSDOF 3
