REMARK  Name = ZINC21151289
REMARK  11 active torsions:
REMARK  status: ('A' for Active; 'I' for Inactive)
REMARK    1  A    between atoms: C_1  and  C_2
REMARK    2  A    between atoms: C_2  and  C_3
REMARK    3  A    between atoms: C_3  and  C_4
REMARK    4  A    between atoms: C_4  and  N_5
REMARK    5  A    between atoms: C_10  and  C_24
REMARK    6  A    between atoms: C_14  and  C_15
REMARK    7  A    between atoms: C_14  and  C_16
REMARK    8  A    between atoms: N_18  and  C_19
REMARK    9  A    between atoms: N_29  and  C_32
REMARK   10  A    between atoms: C_34  and  C_39
REMARK   11  A    between atoms: C_37  and  C_38
REMARK                            x       y       z     vdW  Elec       q    Type
REMARK                         _______ _______ _______ _____ _____    ______ ____
ROOT
ATOM      1  N   UNL     1       0.800   4.047   0.168  0.00  0.00    -0.281 N 
ATOM      2  C   UNL     1       1.499   3.093  -0.493  0.00  0.00    +0.266 C 
ATOM      3  O   UNL     1       2.221   3.364  -1.433  0.00  0.00    -0.268 OA
ATOM      4  C   UNL     1       1.336   1.711  -0.012  0.00  0.00    +0.124 A 
ATOM      5  C   UNL     1       2.010   0.577  -0.312  0.00  0.00    +0.067 A 
ATOM      6  C   UNL     1       1.418  -0.427   0.486  0.00  0.00    +0.148 A 
ATOM      7  N   UNL     1       0.455   0.141   1.193  0.00  0.00    -0.166 NA
ATOM      8  N   UNL     1       0.373   1.385   0.920  0.00  0.00    -0.256 N 
ATOM      9  C   UNL     1      -0.559   2.396   1.435  0.00  0.00    +0.179 C 
ATOM     10  C   UNL     1       0.124   3.763   1.429  0.00  0.00    +0.130 C 
ATOM     11  C   UNL     1       1.153   3.803   2.561  0.00  0.00    +0.044 C 
ENDROOT
BRANCH   6  12
ATOM     12  C   UNL     1       1.804  -1.853   0.526  0.00  0.00    +0.267 C 
ATOM     13  O   UNL     1       2.784  -2.234  -0.085  0.00  0.00    -0.268 OA
ATOM     14  N   UNL     1       1.071  -2.731   1.239  0.00  0.00    -0.293 N 
ATOM     15  C   UNL     1      -0.194  -2.322   1.868  0.00  0.00    +0.127 C 
ATOM     16  C   UNL     1      -1.282  -3.327   1.460  0.00  0.00    +0.124 C 
ATOM     17  N   UNL     1      -0.835  -4.687   1.792  0.00  0.00    -0.327 N 
ATOM     18  C   UNL     1       0.365  -5.054   1.028  0.00  0.00    +0.124 C 
ATOM     19  C   UNL     1       1.518  -4.121   1.413  0.00  0.00    +0.127 C 
BRANCH  17  20
ATOM     20  C   UNL     1      -1.860  -5.614   1.592  0.00  0.00    +0.033 A 
ATOM     21  C   UNL     1      -2.363  -5.830   0.315  0.00  0.00    +0.026 A 
ATOM     22  C   UNL     1      -3.373  -6.751   0.119  0.00  0.00    -0.049 A 
ATOM     23  C   UNL     1      -3.891  -7.450   1.194  0.00  0.00    +0.004 A 
ATOM     24  C   UNL     1      -3.396  -7.234   2.467  0.00  0.00    +0.005 A 
ATOM     25  C   UNL     1      -2.382  -6.318   2.669  0.00  0.00    -0.029 A 
ATOM     26  C   UNL     1      -1.843  -6.083   4.056  0.00  0.00    +0.045 C 
ATOM     27  C   UNL     1      -3.917  -6.989  -1.266  0.00  0.00    +0.044 C 
ENDBRANCH  17  20
ENDBRANCH   6  12
BRANCH  10  28
ATOM     28  C   UNL     1      -0.913   4.827   1.677  0.00  0.00    +0.238 C 
ATOM     29  O   UNL     1      -0.731   5.663   2.536  0.00  0.00    -0.273 OA
ATOM     30  N   UNL     1      -2.043   4.850   0.943  0.00  0.00    -0.311 N 
ATOM     31  H   UNL     1      -2.173   4.144   0.110  0.00  0.00    +0.149 HD
BRANCH  30  32
ATOM     32  C   UNL     1      -3.100   5.815   1.256  0.00  0.00    +0.073 C 
ATOM     33  C   UNL     1      -4.046   5.235   2.327  0.00  0.00    +0.022 C 
ATOM     34  C   UNL     1      -5.450   5.739   1.906  0.00  0.00    +0.002 C 
ATOM     35  C   UNL     1      -5.397   5.651   0.361  0.00  0.00    +0.002 C 
ATOM     36  C   UNL     1      -3.958   6.080   0.006  0.00  0.00    +0.022 C 
ENDBRANCH  30  32
ENDBRANCH  10  28
BRANCH   1  37
ATOM     37  C   UNL     1       0.720   5.396  -0.397  0.00  0.00    +0.109 C 
BRANCH  37  38
ATOM     38  C   UNL     1      -0.376   5.439  -1.464  0.00  0.00    +0.019 C 
BRANCH  38  40
ATOM     39  C   UNL     1      -1.555   6.891  -3.120  0.00  0.00    +0.004 C 
ATOM     40  C   UNL     1      -0.459   6.848  -2.054  0.00  0.00    -0.002 C 
ENDBRANCH  38  40
ENDBRANCH  37  38
ENDBRANCH   1  37
TORSDOF 7
