REMARK  Name = ZINC33058964
REMARK  10 active torsions:
REMARK  status: ('A' for Active; 'I' for Inactive)
REMARK    1  A    between atoms: C_1  and  C_2
REMARK    2  A    between atoms: C_4  and  C_36
REMARK    3  A    between atoms: C_5  and  C_9
REMARK    4  A    between atoms: C_6  and  C_8
REMARK    5  A    between atoms: C_10  and  C_11
REMARK    6  A    between atoms: C_12  and  S_17
REMARK    7  A    between atoms: C_13  and  C_16
REMARK    8  A    between atoms: S_17  and  N_20
REMARK    9  A    between atoms: C_23  and  C_26
REMARK   10  A    between atoms: N_28  and  C_29
REMARK                            x       y       z     vdW  Elec       q    Type
REMARK                         _______ _______ _______ _____ _____    ______ ____
ROOT
ATOM      1  S   UNL     1      -0.820  -0.865   1.153  0.00  0.00    +0.066 S 
ATOM      2  O   UNL     1      -0.190  -2.136   1.237  0.00  0.00    -0.153 OA
ATOM      3  O   UNL     1      -0.961  -0.009   2.278  0.00  0.00    -0.153 OA
ENDROOT
BRANCH   1   5
ATOM      4  C   UNL     1      -3.561  -0.365   0.686  0.00  0.00    +0.187 A 
ATOM      5  C   UNL     1      -2.444  -1.149   0.529  0.00  0.00    +0.174 A 
ATOM      6  C   UNL     1      -2.901  -2.236  -0.240  0.00  0.00    +0.107 A 
ATOM      7  N   UNL     1      -4.166  -2.026  -0.471  0.00  0.00    -0.081 NA
ATOM      8  O   UNL     1      -4.553  -0.996   0.029  0.00  0.00    -0.353 OA
ATOM      9  C   UNL     1      -2.085  -3.414  -0.708  0.00  0.00    +0.071 C 
BRANCH   4  11
ATOM     10  C   UNL     1      -4.827   1.558   1.482  0.00  0.00    +0.012 C 
ATOM     11  C   UNL     1      -3.653   0.902   1.417  0.00  0.00    +0.051 C 
BRANCH  10  16
ATOM     12  C   UNL     1      -5.190   6.528   4.350  0.00  0.00    +0.044 C 
ATOM     13  C   UNL     1      -5.095   5.226   3.598  0.00  0.00    -0.050 A 
ATOM     14  C   UNL     1      -5.586   5.138   2.307  0.00  0.00    +0.007 A 
ATOM     15  C   UNL     1      -5.503   3.950   1.613  0.00  0.00    -0.043 A 
ATOM     16  C   UNL     1      -4.920   2.831   2.216  0.00  0.00    -0.019 A 
ATOM     17  C   UNL     1      -4.431   2.926   3.523  0.00  0.00    -0.043 A 
ATOM     18  C   UNL     1      -4.517   4.123   4.202  0.00  0.00    +0.007 A 
ATOM     19  C   UNL     1      -3.807   1.724   4.184  0.00  0.00    +0.044 C 
ATOM     20  C   UNL     1      -6.038   3.857   0.207  0.00  0.00    +0.044 C 
ENDBRANCH  10  16
ENDBRANCH   4  11
ENDBRANCH   1   5
BRANCH   1  21
ATOM     21  N   UNL     1       0.002  -0.004   0.002  0.00  0.00    -0.176 NA
ATOM     22  C   UNL     1      -0.018   1.465   0.010  0.00  0.00    +0.110 C 
ATOM     23  C   UNL     1       1.426   1.978  -0.001  0.00  0.00    +0.030 C 
ATOM     24  C   UNL     1       2.171   1.366  -1.189  0.00  0.00    +0.077 C 
ATOM     25  C   UNL     1       2.201  -0.158  -1.045  0.00  0.00    +0.030 C 
ATOM     26  C   UNL     1       0.766  -0.695  -1.046  0.00  0.00    +0.110 C 
BRANCH  24  27
ATOM     27  C   UNL     1       3.582   1.895  -1.223  0.00  0.00    +0.216 C 
ATOM     28  O   UNL     1       4.519   1.129  -1.140  0.00  0.00    -0.276 OA
ATOM     29  N   UNL     1       3.803   3.218  -1.345  0.00  0.00    -0.312 N 
ATOM     30  H   UNL     1       2.953   3.913  -1.421  0.00  0.00    +0.149 HD
BRANCH  29  31
ATOM     31  C   UNL     1       5.174   3.732  -1.378  0.00  0.00    +0.073 C 
ATOM     32  C   UNL     1       5.683   3.892   0.069  0.00  0.00    +0.022 C 
ATOM     33  C   UNL     1       7.188   3.914   0.047  0.00  0.00    +0.002 C 
ATOM     34  C   UNL     1       7.754   5.346  -0.004  0.00  0.00    +0.000 C 
ATOM     35  C   UNL     1       6.974   6.262  -0.967  0.00  0.00    +0.000 C 
ATOM     36  C   UNL     1       6.611   5.571  -2.253  0.00  0.00    +0.002 C 
ATOM     37  C   UNL     1       5.189   4.989  -2.111  0.00  0.00    +0.022 C 
ENDBRANCH  29  31
ENDBRANCH  24  27
ENDBRANCH   1  21
TORSDOF 6
