REMARK  Name = ZINC09972663
REMARK  6 active torsions:
REMARK  status: ('A' for Active; 'I' for Inactive)
REMARK    1  A    between atoms: C_1  and  C_2
REMARK    2  A    between atoms: C_2  and  C_3
REMARK    3  A    between atoms: C_3  and  C_29
REMARK    4  A    between atoms: C_8  and  C_10
REMARK    5  A    between atoms: C_15  and  O_16
REMARK    6  A    between atoms: N_19  and  C_22
REMARK                            x       y       z     vdW  Elec       q    Type
REMARK                         _______ _______ _______ _____ _____    ______ ____
ROOT
ATOM      1  C   UNL     1       1.001   1.907  -5.095  0.00  0.00    +0.048 C 
ATOM      2  C   UNL     1       0.027   2.847  -4.356  0.00  0.00    +0.086 C 
ATOM      3  C   UNL     1       0.262   2.559  -2.849  0.00  0.00    +0.077 C 
ATOM      4  C   UNL     1       1.367   1.483  -2.819  0.00  0.00    -0.023 C 
ATOM      5  C   UNL     1       0.818   3.858  -2.311  0.00  0.00    +0.229 C 
ATOM      6  O   UNL     1       1.135   4.061  -1.158  0.00  0.00    -0.275 OA
ATOM      7  N   UNL     1       0.902   4.745  -3.329  0.00  0.00    -0.210 N 
ATOM      8  C   UNL     1       0.482   4.281  -4.512  0.00  0.00    +0.229 C 
ATOM      9  O   UNL     1       0.469   4.911  -5.548  0.00  0.00    -0.275 OA
ATOM     10  N   UNL     1       2.050   1.649  -4.101  0.00  0.00    +0.396 N 
ATOM     11  H   UNL     1       2.700   2.442  -4.057  0.00  0.00    -0.083 HD
ATOM     12  H   UNL     1       2.567   0.795  -4.342  0.00  0.00    -0.083 HD
ENDROOT
BRANCH   7  13
ATOM     13  C   UNL     1       1.387   6.049  -3.155  0.00  0.00    +0.044 A 
ATOM     14  C   UNL     1       2.586   6.430  -3.742  0.00  0.00    +0.025 A 
ATOM     15  C   UNL     1       3.058   7.717  -3.573  0.00  0.00    +0.017 A 
ATOM     16  C   UNL     1       2.343   8.623  -2.810  0.00  0.00    +0.018 A 
ATOM     17  C   UNL     1       1.150   8.244  -2.220  0.00  0.00    +0.017 A 
ATOM     18  C   UNL     1       0.670   6.960  -2.391  0.00  0.00    +0.025 A 
ATOM     19 BR   UNL     1       2.996  10.382  -2.574  0.00  0.00    -0.050 Br
ENDBRANCH   7  13
BRANCH   4  20
ATOM     20  C   UNL     1       2.301   1.720  -1.661  0.00  0.00    -0.019 A 
ATOM     21  C   UNL     1       3.464   2.442  -1.847  0.00  0.00    +0.005 A 
ATOM     22  C   UNL     1       4.321   2.662  -0.784  0.00  0.00    +0.000 A 
ATOM     23  C   UNL     1       4.016   2.159   0.468  0.00  0.00    +0.004 A 
ATOM     24  C   UNL     1       2.852   1.441   0.660  0.00  0.00    +0.045 A 
ATOM     25  C   UNL     1       1.993   1.215  -0.406  0.00  0.00    +0.118 A 
BRANCH  25  26
ATOM     26  O   UNL     1       0.849   0.505  -0.220  0.00  0.00    -0.507 OA
ATOM     27  H   UNL     1       0.950  -0.447  -0.361  0.00  0.00    +0.292 HD
ENDBRANCH  25  26
ENDBRANCH   4  20
BRANCH   1  28
ATOM     28  C   UNL     1       0.302   0.631  -5.488  0.00  0.00    +0.346 C 
ATOM     29  O   UNL     1      -0.897   0.620  -5.639  0.00  0.00    -0.248 OA
ATOM     30  O   UNL     1       1.011  -0.494  -5.672  0.00  0.00    -0.248 OA
ENDBRANCH   1  28
BRANCH   1  32
ATOM     31  C   UNL     1       2.538   1.650  -7.048  0.00  0.00    +0.003 C 
ATOM     32  C   UNL     1       1.577   2.600  -6.332  0.00  0.00    -0.004 C 
ENDBRANCH   1  32
TORSDOF 5
