REMARK  Name = ZINC09058992
REMARK  6 active torsions:
REMARK  status: ('A' for Active; 'I' for Inactive)
REMARK    1  A    between atoms: C_1  and  O_2
REMARK    2  A    between atoms: O_2  and  C_3
REMARK    3  A    between atoms: C_6  and  C_9
REMARK    4  A    between atoms: C_19  and  C_35
REMARK    5  A    between atoms: C_21  and  C_23
REMARK    6  A    between atoms: C_23  and  C_25
REMARK                            x       y       z     vdW  Elec       q    Type
REMARK                         _______ _______ _______ _____ _____    ______ ____
ROOT
ATOM      1  C   UNL     1      -1.278   2.181   0.071  0.00  0.00    +0.071 C 
ATOM      2  C   UNL     1      -1.336   3.099   1.244  0.00  0.00    +0.033 A 
ATOM      3  C   UNL     1      -1.835   4.349   1.328  0.00  0.00    +0.088 A 
ATOM      4  N   UNL     1      -1.754   4.953   2.560  0.00  0.00    -0.311 N 
ATOM      5  H   UNL     1      -2.100   5.851   2.682  0.00  0.00    +0.170 HD
ATOM      6  C   UNL     1      -1.193   4.304   3.600  0.00  0.00    +0.289 A 
ATOM      7  O   UNL     1      -1.039   4.686   4.747  0.00  0.00    -0.260 OA
ATOM      8  S   UNL     1      -0.749   2.784   2.891  0.00  0.00    -0.030 S 
ATOM      9  S   UNL     1      -2.545   5.137  -0.104  0.00  0.00    -0.091 S 
ATOM     10  C   UNL     1      -2.722   3.739  -1.255  0.00  0.00    +0.177 C 
ATOM     11  C   UNL     1      -1.414   2.941  -1.246  0.00  0.00    +0.097 C 
ENDROOT
BRANCH   1  15
ATOM     12  C   UNL     1       2.459   0.107   0.094  0.00  0.00    +0.120 A 
ATOM     13  C   UNL     1       1.269  -0.603   0.164  0.00  0.00    +0.046 A 
ATOM     14  C   UNL     1       0.063   0.070   0.159  0.00  0.00    +0.008 A 
ATOM     15  C   UNL     1       0.040   1.450   0.083  0.00  0.00    -0.038 A 
ATOM     16  C   UNL     1       1.224   2.161   0.014  0.00  0.00    +0.008 A 
ATOM     17  C   UNL     1       2.433   1.493   0.019  0.00  0.00    +0.046 A 
BRANCH  12  19
ATOM     18  C   UNL     1       4.831   0.244   0.025  0.00  0.00    +0.277 C 
ATOM     19  O   UNL     1       3.647  -0.552   0.099  0.00  0.00    -0.495 OA
ENDBRANCH  12  19
ENDBRANCH   1  15
BRANCH  10  20
ATOM     20  C   UNL     1      -2.993   4.256  -2.645  0.00  0.00    +0.370 C 
ATOM     21  O   UNL     1      -2.073   4.589  -3.355  0.00  0.00    -0.245 OA
ATOM     22  O   UNL     1      -4.254   4.348  -3.093  0.00  0.00    -0.245 OA
ENDBRANCH  10  20
BRANCH  11  23
ATOM     23  C   UNL     1      -1.417   1.961  -2.391  0.00  0.00    +0.169 C 
ATOM     24  O   UNL     1      -2.322   1.161  -2.502  0.00  0.00    -0.292 OA
BRANCH  23  25
ATOM     25  C   UNL     1      -0.322   1.974  -3.375  0.00  0.00    +0.018 A 
ATOM     26  C   UNL     1       0.775   2.824  -3.198  0.00  0.00    +0.011 A 
ATOM     27  C   UNL     1       1.792   2.822  -4.124  0.00  0.00    +0.004 A 
ATOM     28  C   UNL     1       1.736   1.995  -5.242  0.00  0.00    -0.044 A 
ATOM     29  C   UNL     1       0.656   1.157  -5.424  0.00  0.00    -0.044 A 
ATOM     30  C   UNL     1      -0.372   1.145  -4.495  0.00  0.00    +0.015 A 
ATOM     31  C   UNL     1       0.540   0.230  -6.606  0.00  0.00    +0.035 C 
ATOM     32  C   UNL     1       1.492   0.659  -7.721  0.00  0.00    +0.005 C 
ATOM     33  C   UNL     1       2.893   0.831  -7.120  0.00  0.00    +0.005 C 
ATOM     34  C   UNL     1       2.882   2.063  -6.218  0.00  0.00    +0.035 C 
ENDBRANCH  23  25
ENDBRANCH  11  23
TORSDOF 5
