REMARK  Name = ZINC13131488
REMARK  3 active torsions:
REMARK  status: ('A' for Active; 'I' for Inactive)
REMARK    1  A    between atoms: C_1  and  C_2
REMARK    2  A    between atoms: C_6  and  C_8
REMARK    3  A    between atoms: C_11  and  C_20
REMARK                            x       y       z     vdW  Elec       q    Type
REMARK                         _______ _______ _______ _____ _____    ______ ____
ROOT
ATOM      1  C   UNL     1       0.054  -2.845   2.489  0.00  0.00    +0.143 C 
ATOM      2  C   UNL     1      -1.182  -3.749   2.571  0.00  0.00    +0.058 C 
ATOM      3  C   UNL     1      -1.036  -4.720   3.748  0.00  0.00    +0.106 C 
ATOM      4  N   UNL     1       0.137  -5.582   3.504  0.00  0.00    -0.307 N 
ATOM      5  C   UNL     1       1.276  -4.948   3.026  0.00  0.00    +0.216 A 
ATOM      6  N   UNL     1       1.255  -3.676   2.555  0.00  0.00    -0.224 N 
ATOM      7  N   UNL     1       2.561  -3.369   2.171  0.00  0.00    -0.132 NA
ATOM      8  C   UNL     1       3.290  -4.434   2.418  0.00  0.00    +0.233 A 
ATOM      9  N   UNL     1       2.501  -5.394   2.936  0.00  0.00    -0.180 NA
ATOM     10  N   UNL     1       4.660  -4.552   2.179  0.00  0.00    -0.326 N 
ATOM     11  H   UNL     1       0.114  -6.537   3.669  0.00  0.00    +0.149 HD
ATOM     12  H   UNL     1       5.152  -3.808   1.797  0.00  0.00    +0.145 HD
ATOM     13  H   UNL     1       5.120  -5.379   2.393  0.00  0.00    +0.145 HD
ENDROOT
BRANCH   1  19
ATOM     14  C   UNL     1      -0.018   1.503   0.010  0.00  0.00    +0.044 C 
ATOM     15  C   UNL     1       0.002  -0.004   0.002  0.00  0.00    -0.050 A 
ATOM     16  C   UNL     1       0.006  -0.689  -1.199  0.00  0.00    +0.003 A 
ATOM     17  C   UNL     1       0.025  -2.071  -1.207  0.00  0.00    +0.001 A 
ATOM     18  C   UNL     1       0.040  -2.768  -0.013  0.00  0.00    +0.006 A 
ATOM     19  C   UNL     1       0.037  -2.084   1.188  0.00  0.00    -0.023 A 
ATOM     20  C   UNL     1       0.023  -0.702   1.195  0.00  0.00    +0.009 A 
ENDBRANCH   1  19
BRANCH   3  21
ATOM     21  C   UNL     1      -2.276  -5.567   3.862  0.00  0.00    -0.027 A 
ATOM     22  C   UNL     1      -2.444  -6.662   3.034  0.00  0.00    +0.007 A 
ATOM     23  C   UNL     1      -3.581  -7.440   3.138  0.00  0.00    +0.020 A 
ATOM     24  C   UNL     1      -4.553  -7.123   4.071  0.00  0.00    +0.041 A 
ATOM     25  C   UNL     1      -4.384  -6.028   4.900  0.00  0.00    +0.020 A 
ATOM     26  C   UNL     1      -3.244  -5.254   4.798  0.00  0.00    +0.007 A 
ATOM     27 CL   UNL     1      -5.982  -8.099   4.202  0.00  0.00    -0.084 Cl
ENDBRANCH   3  21
TORSDOF 2
