REMARK  Name = ZINC36365604
REMARK  4 active torsions:
REMARK  status: ('A' for Active; 'I' for Inactive)
REMARK    1  A    between atoms: C_1  and  C_2
REMARK    2  A    between atoms: N_8  and  C_31
REMARK    3  A    between atoms: C_19  and  C_28
REMARK    4  A    between atoms: C_20  and  C_21
REMARK                            x       y       z     vdW  Elec       q    Type
REMARK                         _______ _______ _______ _____ _____    ______ ____
ROOT
ATOM      1  C   UNL     1      -0.535   1.483   0.107  0.00  0.00    +0.045 C 
ATOM      2  C   UNL     1      -0.445  -0.021   0.086  0.00  0.00    -0.029 A 
ATOM      3  C   UNL     1      -0.717  -0.745  -1.065  0.00  0.00    +0.005 A 
ATOM      4  C   UNL     1      -0.639  -2.122  -1.098  0.00  0.00    +0.001 A 
ATOM      5  C   UNL     1      -0.281  -2.854   0.029  0.00  0.00    +0.007 A 
ATOM      6  C   UNL     1      -0.008  -2.142   1.177  0.00  0.00    -0.005 A 
ATOM      7  C   UNL     1      -0.079  -0.744   1.222  0.00  0.00    +0.043 A 
ATOM      8  N   UNL     1       0.246  -0.286   2.487  0.00  0.00    -0.273 N 
ATOM      9  C   UNL     1       0.548  -1.297   3.329  0.00  0.00    +0.236 C 
ATOM     10  O   UNL     1       0.868  -1.194   4.494  0.00  0.00    -0.274 OA
ATOM     11  C   UNL     1       0.400  -2.584   2.546  0.00  0.00    +0.115 C 
ATOM     12  C   UNL     1       1.742  -3.315   2.509  0.00  0.00    +0.122 C 
ATOM     13  C   UNL     1       1.559  -4.749   2.102  0.00  0.00    +0.219 C 
ATOM     14  O   UNL     1       2.420  -5.273   1.428  0.00  0.00    -0.275 OA
ATOM     15  N   UNL     1       0.486  -5.480   2.450  0.00  0.00    -0.284 N 
ATOM     16  C   UNL     1      -0.591  -4.846   3.132  0.00  0.00    +0.054 A 
ATOM     17  C   UNL     1      -0.627  -3.475   3.168  0.00  0.00    +0.032 A 
ATOM     18  S   UNL     1      -2.002  -3.073   4.017  0.00  0.00    -0.083 S 
ATOM     19  C   UNL     1      -2.599  -4.713   4.383  0.00  0.00    +0.110 A 
ATOM     20  C   UNL     1      -1.628  -5.519   3.775  0.00  0.00    +0.026 A 
ATOM     21  C   UNL     1       0.263   1.129   2.867  0.00  0.00    +0.138 C 
ATOM     22  H   UNL     1       0.446  -6.426   2.240  0.00  0.00    +0.155 HD
ENDROOT
BRANCH  20  23
ATOM     23  C   UNL     1      -1.698  -6.997   3.814  0.00  0.00    +0.004 A 
ATOM     24  C   UNL     1      -1.098  -7.699   4.860  0.00  0.00    +0.010 A 
ATOM     25  C   UNL     1      -1.167  -9.077   4.891  0.00  0.00    +0.001 A 
ATOM     26  C   UNL     1      -1.828  -9.763   3.888  0.00  0.00    +0.001 A 
ATOM     27  C   UNL     1      -2.425  -9.074   2.848  0.00  0.00    +0.020 A 
ATOM     28  C   UNL     1      -2.369  -7.694   2.808  0.00  0.00    +0.049 A 
ATOM     29 CL   UNL     1      -3.124  -6.830   1.506  0.00  0.00    -0.083 Cl
ENDBRANCH  20  23
BRANCH  19  30
ATOM     30  C   UNL     1      -3.753  -5.100   5.101  0.00  0.00    +0.394 C 
ATOM     31  O   UNL     1      -4.499  -4.247   5.569  0.00  0.00    -0.240 OA
ATOM     32  O   UNL     1      -4.009  -6.289   5.256  0.00  0.00    -0.240 OA
ENDBRANCH  19  30
TORSDOF 2
