REMARK  Name = ZINC63520720
REMARK  7 active torsions:
REMARK  status: ('A' for Active; 'I' for Inactive)
REMARK    1  A    between atoms: C_1  and  C_2
REMARK    2  A    between atoms: C_4  and  C_20
REMARK    3  A    between atoms: C_7  and  O_12
REMARK    4  A    between atoms: O_12  and  C_13
REMARK    5  A    between atoms: C_13  and  C_14
REMARK    6  A    between atoms: C_20  and  C_21
REMARK    7  A    between atoms: C_21  and  N_22
REMARK                            x       y       z     vdW  Elec       q    Type
REMARK                         _______ _______ _______ _____ _____    ______ ____
ROOT
ATOM      1  C   UNL     1       0.152   1.147   0.000  0.00  0.00    +0.035 C 
ATOM      2  C   UNL     1       0.126  -0.360  -0.264  0.00  0.00    +0.103 C 
ATOM      3  C   UNL     1      -1.295  -0.874  -0.209  0.00  0.00    -0.037 C 
ATOM      4  C   UNL     1      -1.326  -1.783   0.792  0.00  0.00    +0.003 A 
ATOM      5  C   UNL     1      -2.396  -2.625   1.339  0.00  0.00    +0.055 A 
ATOM      6  C   UNL     1      -2.125  -3.462   2.369  0.00  0.00    +0.122 A 
ATOM      7  C   UNL     1      -0.844  -3.558   2.942  0.00  0.00    +0.048 A 
ATOM      8  C   UNL     1       0.203  -2.825   2.507  0.00  0.00    +0.029 A 
ATOM      9  C   UNL     1       0.022  -1.885   1.396  0.00  0.00    +0.043 A 
ATOM     10  N   UNL     1       0.855  -1.072   0.792  0.00  0.00    -0.378 N 
ATOM     11  H   UNL     1       1.794  -0.959   1.006  0.00  0.00    +0.160 HD
ENDROOT
BRANCH   6  12
ATOM     12  O   UNL     1      -3.125  -4.236   2.867  0.00  0.00    -0.487 OA
BRANCH  12  13
ATOM     13  C   UNL     1      -2.796  -5.104   3.953  0.00  0.00    +0.264 C 
BRANCH  13  14
ATOM     14  C   UNL     1      -4.021  -5.877   4.368  0.00  0.00    -0.010 A 
ATOM     15  C   UNL     1      -4.869  -5.364   5.332  0.00  0.00    +0.007 A 
ATOM     16  C   UNL     1      -5.992  -6.073   5.712  0.00  0.00    +0.000 A 
ATOM     17  C   UNL     1      -6.268  -7.295   5.129  0.00  0.00    +0.000 A 
ATOM     18  C   UNL     1      -5.421  -7.808   4.165  0.00  0.00    +0.000 A 
ATOM     19  C   UNL     1      -4.300  -7.097   3.781  0.00  0.00    +0.007 A 
ENDBRANCH  13  14
ENDBRANCH  12  13
ENDBRANCH   6  12
BRANCH   3  20
ATOM     20  C   UNL     1      -2.444  -0.458  -1.090  0.00  0.00    +0.052 C 
BRANCH  20  21
ATOM     21  C   UNL     1      -3.702  -1.230  -0.688  0.00  0.00    +0.107 C 
BRANCH  21  22
ATOM     22  N   UNL     1      -4.819  -0.825  -1.544  0.00  0.00    -0.328 N 
ATOM     23  C   UNL     1      -6.068  -1.393  -1.367  0.00  0.00    +0.130 A 
ATOM     24  C   UNL     1      -7.129  -1.098  -2.268  0.00  0.00    +0.051 A 
ATOM     25  C   UNL     1      -7.118  -0.223  -3.442  0.00  0.00    -0.025 A 
ATOM     26  C   UNL     1      -8.270  -0.115  -4.135  0.00  0.00    -0.004 A 
ATOM     27  S   UNL     1      -9.423  -1.154  -3.280  0.00  0.00    -0.073 S 
ATOM     28  C   UNL     1      -8.355  -1.734  -1.988  0.00  0.00    +0.114 A 
ATOM     29  N   UNL     1      -8.492  -2.544  -0.957  0.00  0.00    -0.228 NA
ATOM     30  C   UNL     1      -7.471  -2.779  -0.155  0.00  0.00    +0.224 A 
ATOM     31  N   UNL     1      -6.291  -2.222  -0.360  0.00  0.00    -0.220 NA
ATOM     32  C   UNL     1      -8.517   0.710  -5.361  0.00  0.00    +0.043 C 
ATOM     33  C   UNL     1      -7.365   1.714  -5.511  0.00  0.00    +0.005 C 
ATOM     34  C   UNL     1      -6.038   0.967  -5.338  0.00  0.00    +0.005 C 
ATOM     35  C   UNL     1      -5.870   0.540  -3.879  0.00  0.00    +0.037 C 
ATOM     36  H   UNL     1      -4.683  -0.159  -2.236  0.00  0.00    +0.147 HD
ENDBRANCH  21  22
ENDBRANCH  20  21
ENDBRANCH   3  20
TORSDOF 6
