REMARK  Name = ZINC66591293
REMARK  7 active torsions:
REMARK  status: ('A' for Active; 'I' for Inactive)
REMARK    1  A    between atoms: C_1  and  C_2
REMARK    2  A    between atoms: C_2  and  C_3
REMARK    3  A    between atoms: N_5  and  C_6
REMARK    4  A    between atoms: C_6  and  C_8
REMARK    5  A    between atoms: C_6  and  C_14
REMARK    6  A    between atoms: N_16  and  N_17
REMARK    7  A    between atoms: C_18  and  C_20
REMARK                            x       y       z     vdW  Elec       q    Type
REMARK                         _______ _______ _______ _____ _____    ______ ____
ROOT
ATOM      1  C   UNL     1       0.899  -1.490  -3.741  0.00  0.00    +0.254 C 
ATOM      2  O   UNL     1       0.139  -0.584  -3.475  0.00  0.00    -0.272 OA
ATOM      3  N   UNL     1       1.101  -1.845  -5.026  0.00  0.00    -0.232 N 
ATOM      4  H   UNL     1       1.708  -2.571  -5.239  0.00  0.00    +0.173 HD
ENDROOT
BRANCH   3   5
ATOM      5  N   UNL     1       0.432  -1.166  -6.053  0.00  0.00    -0.231 N 
ATOM      6  C   UNL     1       0.634  -1.521  -7.338  0.00  0.00    +0.273 C 
ATOM      7  O   UNL     1       1.394  -2.428  -7.604  0.00  0.00    -0.270 OA
ATOM      8  H   UNL     1      -0.175  -0.441  -5.840  0.00  0.00    +0.173 HD
BRANCH   6   9
ATOM      9  C   UNL     1      -0.085  -0.791  -8.443  0.00  0.00    +0.297 C 
ATOM     10  C   UNL     1      -1.594  -1.049  -8.337  0.00  0.00    +0.283 C 
ATOM     11  O   UNL     1      -2.243  -0.354  -9.408  0.00  0.00    -0.484 OA
ATOM     12  C   UNL     1      -1.690  -0.483 -10.645  0.00  0.00    +0.162 A 
ATOM     13  C   UNL     1      -2.442  -0.155 -11.763  0.00  0.00    +0.049 A 
ATOM     14  C   UNL     1      -1.893  -0.277 -13.026  0.00  0.00    +0.004 A 
ATOM     15  C   UNL     1      -0.595  -0.727 -13.177  0.00  0.00    +0.004 A 
ATOM     16  C   UNL     1       0.159  -1.057 -12.067  0.00  0.00    +0.049 A 
ATOM     17  C   UNL     1      -0.386  -0.938 -10.797  0.00  0.00    +0.163 A 
ATOM     18  O   UNL     1       0.366  -1.274  -9.713  0.00  0.00    -0.472 OA
ENDBRANCH   6   9
ENDBRANCH   3   5
BRANCH   1  19
ATOM     19  C   UNL     1       1.618  -2.221  -2.636  0.00  0.00    +0.191 C 
BRANCH  19  20
ATOM     20  C   UNL     1       3.026  -1.696  -2.521  0.00  0.00    -0.018 A 
ATOM     21  C   UNL     1       3.261  -0.472  -1.924  0.00  0.00    +0.006 A 
ATOM     22  C   UNL     1       4.552   0.009  -1.818  0.00  0.00    +0.000 A 
ATOM     23  C   UNL     1       5.609  -0.734  -2.308  0.00  0.00    +0.000 A 
ATOM     24  C   UNL     1       5.375  -1.959  -2.904  0.00  0.00    +0.000 A 
ATOM     25  C   UNL     1       4.083  -2.442  -3.006  0.00  0.00    +0.006 A 
ENDBRANCH  19  20
BRANCH  19  28
ATOM     26  C   UNL     1       1.014  -2.916  -0.380  0.00  0.00    +0.214 C 
ATOM     27  O   UNL     1       1.618  -3.951  -0.568  0.00  0.00    -0.276 OA
ATOM     28  N   UNL     1       0.912  -2.007  -1.370  0.00  0.00    -0.300 N 
ATOM     29  H   UNL     1       0.371  -1.212  -1.245  0.00  0.00    +0.150 HD
BRANCH  26  31
ATOM     30  C   UNL     1       0.641  -3.827   1.895  0.00  0.00    +0.013 C 
ATOM     31  C   UNL     1       0.379  -2.646   0.959  0.00  0.00    +0.092 C 
ENDBRANCH  26  31
ENDBRANCH  19  28
ENDBRANCH   1  19
TORSDOF 6
