REMARK  Name = ZINC10585345
REMARK  5 active torsions:
REMARK  status: ('A' for Active; 'I' for Inactive)
REMARK    1  A    between atoms: C_4  and  C_7
REMARK    2  A    between atoms: C_7  and  C_8
REMARK    3  A    between atoms: C_7  and  N_70
REMARK    4  A    between atoms: N_21  and  C_22
REMARK    5  A    between atoms: N_27  and  C_29
REMARK                            x       y       z     vdW  Elec       q    Type
REMARK                         _______ _______ _______ _____ _____    ______ ____
ROOT
ATOM      1  C   UNL     1       1.018  13.248  -4.572  0.00  0.00    -0.058 C 
ATOM      2  C   UNL     1       0.296  12.855  -3.279  0.00  0.00    +0.091 C 
ATOM      3  N   UNL     1       0.005  11.414  -3.326  0.00  0.00    -0.289 N 
ATOM      4  C   UNL     1       1.107  10.492  -3.635  0.00  0.00    +0.091 C 
ATOM      5  C   UNL     1       1.797  10.978  -4.920  0.00  0.00    -0.058 C 
ATOM      6  C   UNL     1      -1.238  10.951  -3.086  0.00  0.00    +0.302 C 
ATOM      7  O   UNL     1      -1.442   9.754  -3.039  0.00  0.00    -0.253 OA
ATOM      8  N   UNL     1      -2.255  11.816  -2.897  0.00  0.00    -0.294 N 
ATOM      9  H   UNL     1      -2.107  12.769  -3.005  0.00  0.00    +0.151 HD
ATOM     10  N   UNL     1       2.209  12.386  -4.731  0.00  0.00    +0.389 N 
ATOM     11  H   UNL     1       2.785  12.453  -3.883  0.00  0.00    -0.080 HD
ENDROOT
BRANCH   8  12
ATOM     12  C   UNL     1      -3.582  11.317  -2.530  0.00  0.00    +0.101 C 
ATOM     13  C   UNL     1      -4.454  11.087  -3.786  0.00  0.00    +0.120 C 
ATOM     14  C   UNL     1      -5.224  12.379  -3.947  0.00  0.00    +0.222 C 
ATOM     15  O   UNL     1      -5.810  12.717  -4.954  0.00  0.00    -0.275 OA
ATOM     16  N   UNL     1      -5.163  13.098  -2.813  0.00  0.00    -0.269 N 
ATOM     17  C   UNL     1      -4.391  12.399  -1.780  0.00  0.00    +0.136 C 
BRANCH  16  18
ATOM     18  C   UNL     1      -5.764  14.351  -2.639  0.00  0.00    +0.040 A 
ATOM     19  C   UNL     1      -5.752  14.960  -1.391  0.00  0.00    +0.027 A 
ATOM     20  C   UNL     1      -6.346  16.195  -1.218  0.00  0.00    +0.051 A 
ATOM     21  C   UNL     1      -6.956  16.831  -2.289  0.00  0.00    +0.162 A 
ATOM     22  C   UNL     1      -6.968  16.225  -3.540  0.00  0.00    +0.164 A 
ATOM     23  C   UNL     1      -6.373  14.985  -3.713  0.00  0.00    +0.073 A 
ATOM     24  O   UNL     1      -7.555  16.837  -4.605  0.00  0.00    -0.485 OA
ATOM     25  C   UNL     1      -8.464  17.904  -4.314  0.00  0.00    +0.270 C 
ATOM     26  C   UNL     1      -7.811  18.821  -3.272  0.00  0.00    +0.270 C 
ATOM     27  O   UNL     1      -7.539  18.047  -2.099  0.00  0.00    -0.485 OA
ENDBRANCH  16  18
ENDBRANCH   8  12
BRANCH  10  28
ATOM     28  C   UNL     1       3.007  12.837  -5.890  0.00  0.00    -0.007 C 
BRANCH  28  32
ATOM     29  C   UNL     1       4.358  16.825  -5.166  0.00  0.00    +0.000 A 
ATOM     30  C   UNL     1       3.846  16.482  -6.404  0.00  0.00    +0.000 A 
ATOM     31  C   UNL     1       3.409  15.192  -6.638  0.00  0.00    +0.002 A 
ATOM     32  C   UNL     1       3.484  14.244  -5.635  0.00  0.00    -0.057 A 
ATOM     33  C   UNL     1       3.991  14.588  -4.395  0.00  0.00    +0.002 A 
ATOM     34  C   UNL     1       4.432  15.877  -4.163  0.00  0.00    +0.000 A 
ENDBRANCH  28  32
BRANCH  28  35
ATOM     35  C   UNL     1       4.196  11.926  -6.050  0.00  0.00    -0.057 A 
ATOM     36  C   UNL     1       4.860  11.453  -4.933  0.00  0.00    +0.002 A 
ATOM     37  C   UNL     1       5.948  10.613  -5.080  0.00  0.00    +0.000 A 
ATOM     38  C   UNL     1       6.378  10.253  -6.343  0.00  0.00    +0.000 A 
ATOM     39  C   UNL     1       5.718  10.730  -7.460  0.00  0.00    +0.000 A 
ATOM     40  C   UNL     1       4.627  11.567  -7.313  0.00  0.00    +0.002 A 
ENDBRANCH  28  35
ENDBRANCH  10  28
TORSDOF 5
