REMARK  Name = ZINC62671671
REMARK  6 active torsions:
REMARK  status: ('A' for Active; 'I' for Inactive)
REMARK    1  A    between atoms: C_1  and  C_2
REMARK    2  A    between atoms: C_6  and  C_19
REMARK    3  A    between atoms: N_12  and  C_13
REMARK    4  A    between atoms: C_19  and  C_20
REMARK    5  A    between atoms: C_20  and  C_21
REMARK    6  A    between atoms: C_20  and  C_22
REMARK                            x       y       z     vdW  Elec       q    Type
REMARK                         _______ _______ _______ _____ _____    ______ ____
ROOT
ATOM      1  C   UNL     1       0.005   1.527  -0.004  0.00  0.00    +0.026 C 
ATOM      2  C   UNL     1       0.011  -0.003  -0.004  0.00  0.00    +0.057 C 
ATOM      3  C   UNL     1       0.628  -0.515  -1.310  0.00  0.00    -0.060 C 
ATOM      4  N   UNL     1       0.757  -1.976  -1.249  0.00  0.00    +0.383 N 
ATOM      5  C   UNL     1       1.704  -2.351  -0.191  0.00  0.00    -0.054 C 
ATOM      6  C   UNL     1       1.141  -1.930   1.170  0.00  0.00    +0.094 C 
ATOM      7  N   UNL     1       0.820  -0.494   1.123  0.00  0.00    -0.286 N 
ATOM      8  C   UNL     1       1.258   0.347   2.080  0.00  0.00    +0.303 C 
ATOM      9  O   UNL     1       0.903   1.510   2.077  0.00  0.00    -0.253 OA
ATOM     10  N   UNL     1       2.091  -0.101   3.041  0.00  0.00    -0.296 N 
ATOM     11  H   UNL     1      -0.145  -2.384  -1.051  0.00  0.00    -0.085 HD
ATOM     12  H   UNL     1       2.434  -1.007   3.002  0.00  0.00    +0.151 HD
ATOM     13  H   UNL     1       1.092  -2.321  -2.136  0.00  0.00    -0.085 HD
ENDROOT
BRANCH  10  14
ATOM     14  C   UNL     1       2.478   0.782   4.144  0.00  0.00    +0.074 C 
ATOM     15  C   UNL     1       3.670   1.641   3.716  0.00  0.00    +0.022 C 
ATOM     16  C   UNL     1       4.074   2.562   4.869  0.00  0.00    +0.002 C 
ATOM     17  C   UNL     1       4.463   1.718   6.084  0.00  0.00    +0.000 C 
ATOM     18  C   UNL     1       3.271   0.860   6.512  0.00  0.00    +0.002 C 
ATOM     19  C   UNL     1       2.867  -0.062   5.360  0.00  0.00    +0.022 C 
ENDBRANCH  10  14
BRANCH   5  20
ATOM     20  C   UNL     1       1.915  -3.866  -0.209  0.00  0.00    -0.011 C 
BRANCH  20  21
ATOM     21  C   UNL     1       2.592  -4.271  -1.520  0.00  0.00    -0.019 C 
ATOM     22  C   UNL     1       3.996  -3.666  -1.578  0.00  0.00    +0.007 C 
ATOM     23  C   UNL     1       2.691  -5.796  -1.593  0.00  0.00    +0.007 C 
ENDBRANCH  20  21
ENDBRANCH   5  20
TORSDOF 3
