REMARK  Name = ZINC13097631
REMARK  11 active torsions:
REMARK  status: ('A' for Active; 'I' for Inactive)
REMARK    1  A    between atoms: C_1  and  C_2
REMARK    2  A    between atoms: C_2  and  O_3
REMARK    3  A    between atoms: O_3  and  C_4
REMARK    4  A    between atoms: C_4  and  C_6
REMARK    5  A    between atoms: C_7  and  N_18
REMARK    6  A    between atoms: C_9  and  C_11
REMARK    7  A    between atoms: C_19  and  C_21
REMARK    8  A    between atoms: C_21  and  N_22
REMARK    9  A    between atoms: N_22  and  C_23
REMARK   10  A    between atoms: N_22  and  C_24
REMARK   11  A    between atoms: C_24  and  C_25
REMARK                            x       y       z     vdW  Elec       q    Type
REMARK                         _______ _______ _______ _____ _____    ______ ____
ROOT
ATOM      1  N   UNL     1      -2.213  -4.754   0.010  0.00  0.00    -0.283 N 
ATOM      2  C   UNL     1      -2.592  -6.043   0.114  0.00  0.00    +0.231 C 
ATOM      3  O   UNL     1      -3.770  -6.330   0.123  0.00  0.00    -0.274 OA
ATOM      4  H   UNL     1      -1.272  -4.529  -0.062  0.00  0.00    +0.155 HD
ENDROOT
BRANCH   1   6
ATOM      5  C   UNL     1      -2.912  -2.503   0.592  0.00  0.00    +0.118 A 
ATOM      6  C   UNL     1      -3.174  -3.742   0.005  0.00  0.00    +0.055 A 
ATOM      7  C   UNL     1      -4.402  -3.940  -0.577  0.00  0.00    +0.040 A 
ATOM      8  C   UNL     1      -5.322  -2.908  -0.557  0.00  0.00    +0.022 A 
ATOM      9  S   UNL     1      -4.439  -1.623   0.312  0.00  0.00    -0.080 S 
BRANCH   8  10
ATOM     10  C   UNL     1      -6.692  -2.878  -1.111  0.00  0.00    -0.011 A 
ATOM     11  C   UNL     1      -7.212  -4.003  -1.754  0.00  0.00    +0.012 A 
ATOM     12  C   UNL     1      -8.491  -3.970  -2.269  0.00  0.00    +0.039 A 
ATOM     13  C   UNL     1      -9.259  -2.823  -2.150  0.00  0.00    +0.123 A 
ATOM     14  C   UNL     1      -8.748  -1.703  -1.512  0.00  0.00    +0.039 A 
ATOM     15  C   UNL     1      -7.473  -1.728  -0.988  0.00  0.00    +0.012 A 
ATOM     16  F   UNL     1     -10.511  -2.796  -2.656  0.00  0.00    -0.205 F 
ENDBRANCH   8  10
BRANCH   5  17
ATOM     17  C   UNL     1      -1.739  -2.061   1.246  0.00  0.00    +0.348 C 
ATOM     18  O   UNL     1      -0.781  -2.805   1.347  0.00  0.00    -0.244 OA
BRANCH  17  19
ATOM     19  O   UNL     1      -1.682  -0.813   1.759  0.00  0.00    -0.461 OA
BRANCH  19  21
ATOM     20  C   UNL     1      -0.589   1.003   2.919  0.00  0.00    +0.048 C 
ATOM     21  C   UNL     1      -0.466  -0.433   2.406  0.00  0.00    +0.229 C 
ENDBRANCH  19  21
ENDBRANCH  17  19
ENDBRANCH   5  17
ENDBRANCH   1   6
BRANCH   2  22
ATOM     22  C   UNL     1      -1.551  -7.128   0.218  0.00  0.00    +0.181 C 
BRANCH  22  23
ATOM     23  N   UNL     1      -2.215  -8.434   0.320  0.00  0.00    -0.290 NA
ATOM     24  C   UNL     1      -2.965  -8.547   1.578  0.00  0.00    +0.105 C 
BRANCH  23  25
ATOM     25  C   UNL     1      -1.245  -9.530   0.186  0.00  0.00    +0.158 C 
BRANCH  25  26
ATOM     26  C   UNL     1      -1.980 -10.838   0.048  0.00  0.00    +0.124 A 
ATOM     27  N   UNL     1      -1.251 -11.976  -0.082  0.00  0.00    -0.309 N 
ATOM     28  H   UNL     1      -0.282 -11.929  -0.085  0.00  0.00    +0.170 HD
ATOM     29  C   UNL     1      -1.863 -13.177  -0.208  0.00  0.00    +0.259 A 
ATOM     30  O   UNL     1      -1.222 -14.205  -0.326  0.00  0.00    -0.267 OA
ATOM     31  C   UNL     1      -3.334 -13.191  -0.197  0.00  0.00    +0.065 A 
ATOM     32  C   UNL     1      -4.061 -14.373  -0.321  0.00  0.00    +0.015 A 
ATOM     33  C   UNL     1      -5.438 -14.328  -0.304  0.00  0.00    +0.001 A 
ATOM     34  C   UNL     1      -6.103 -13.117  -0.167  0.00  0.00    +0.002 A 
ATOM     35  C   UNL     1      -5.403 -11.937  -0.043  0.00  0.00    +0.028 A 
ATOM     36  C   UNL     1      -4.008 -11.957  -0.057  0.00  0.00    +0.078 A 
ATOM     37  N   UNL     1      -3.279 -10.820   0.066  0.00  0.00    -0.232 NA
ENDBRANCH  25  26
ENDBRANCH  23  25
ENDBRANCH  22  23
ENDBRANCH   2  22
TORSDOF 9
