REMARK  Name = ZINC04164750
REMARK  9 active torsions:
REMARK  status: ('A' for Active; 'I' for Inactive)
REMARK    1  A    between atoms: C_1  and  O_2
REMARK    2  A    between atoms: O_2  and  C_3
REMARK    3  A    between atoms: C_5  and  C_12
REMARK    4  A    between atoms: C_8  and  O_9
REMARK    5  A    between atoms: O_9  and  C_10
REMARK    6  A    between atoms: C_12  and  C_14
REMARK    7  A    between atoms: C_12  and  N_25
REMARK    8  A    between atoms: C_23  and  O_24
REMARK    9  A    between atoms: N_25  and  C_26
REMARK                            x       y       z     vdW  Elec       q    Type
REMARK                         _______ _______ _______ _____ _____    ______ ____
ROOT
ATOM      1  C   UNL     1      -1.204   5.898   0.134  0.00  0.00    +0.136 C 
ENDROOT
BRANCH   1   2
ATOM      2  C   UNL     1      -2.037   5.434   1.301  0.00  0.00    +0.021 A 
ATOM      3  C   UNL     1      -1.802   4.179   1.856  0.00  0.00    +0.010 A 
ATOM      4  C   UNL     1      -2.534   3.733   2.914  0.00  0.00    +0.010 A 
ATOM      5  C   UNL     1      -3.549   4.543   3.450  0.00  0.00    +0.004 A 
ATOM      6  C   UNL     1      -4.330   4.114   4.539  0.00  0.00    +0.011 A 
ATOM      7  C   UNL     1      -5.299   4.955   5.008  0.00  0.00    +0.020 A 
ATOM      8  C   UNL     1      -5.491   6.197   4.407  0.00  0.00    +0.111 A 
ATOM      9  N   UNL     1      -4.761   6.593   3.393  0.00  0.00    -0.251 NA
ATOM     10  C   UNL     1      -3.797   5.819   2.887  0.00  0.00    +0.113 A 
ATOM     11  C   UNL     1      -3.015   6.250   1.795  0.00  0.00    +0.148 A 
BRANCH  11  12
ATOM     12  O   UNL     1      -3.234   7.469   1.237  0.00  0.00    -0.504 OA
ATOM     13  H   UNL     1      -3.879   7.462   0.517  0.00  0.00    +0.292 HD
ENDBRANCH  11  12
ENDBRANCH   1   2
BRANCH   1  16
ATOM     14  C   UNL     1      -3.163   6.234  -3.079  0.00  0.00    +0.163 A 
ATOM     15  C   UNL     1      -2.520   6.548  -1.892  0.00  0.00    +0.055 A 
ATOM     16  C   UNL     1      -1.907   5.553  -1.153  0.00  0.00    -0.018 A 
ATOM     17  C   UNL     1      -1.942   4.242  -1.591  0.00  0.00    +0.025 A 
ATOM     18  C   UNL     1      -2.586   3.921  -2.772  0.00  0.00    +0.063 A 
ATOM     19  C   UNL     1      -3.198   4.915  -3.520  0.00  0.00    +0.175 A 
ATOM     20 BR   UNL     1      -2.630   2.126  -3.367  0.00  0.00    -0.046 Br
BRANCH  14  22
ATOM     21  C   UNL     1      -3.686   8.544  -3.296  0.00  0.00    +0.277 C 
ATOM     22  O   UNL     1      -3.762   7.212  -3.809  0.00  0.00    -0.491 OA
ENDBRANCH  14  22
BRANCH  19  23
ATOM     23  O   UNL     1      -3.832   4.601  -4.682  0.00  0.00    -0.490 OA
ATOM     24  C   UNL     1      -5.218   4.266  -4.595  0.00  0.00    +0.277 C 
ENDBRANCH  19  23
ENDBRANCH   1  16
BRANCH   1  25
ATOM     25  N   UNL     1       0.101   5.233   0.171  0.00  0.00    -0.320 N 
ATOM     26  H   UNL     1       0.266   4.457  -0.387  0.00  0.00    +0.148 HD
BRANCH  25  27
ATOM     27  C   UNL     1       1.103   5.714   1.006  0.00  0.00    +0.097 A 
ATOM     28  C   UNL     1       0.896   6.886   1.726  0.00  0.00    +0.041 A 
ATOM     29  C   UNL     1       1.899   7.350   2.558  0.00  0.00    +0.005 A 
ATOM     30  C   UNL     1       3.084   6.629   2.634  0.00  0.00    +0.018 A 
ATOM     31  C   UNL     1       3.220   5.473   1.892  0.00  0.00    +0.084 A 
ATOM     32  N   UNL     1       2.254   4.985   1.069  0.00  0.00    -0.350 N 
ATOM     33  H   UNL     1       2.384   4.122   0.528  0.00  0.00    +0.166 HD
ENDBRANCH  25  27
ENDBRANCH   1  25
TORSDOF 7
