REMARK  Name = ZINC25325963
REMARK  7 active torsions:
REMARK  status: ('A' for Active; 'I' for Inactive)
REMARK    1  A    between atoms: C_1  and  C_2
REMARK    2  A    between atoms: C_2  and  C_3
REMARK    3  A    between atoms: N_9  and  C_10
REMARK    4  A    between atoms: C_10  and  C_11
REMARK    5  A    between atoms: C_11  and  C_13
REMARK    6  A    between atoms: C_13  and  C_26
REMARK    7  A    between atoms: C_16  and  C_19
REMARK                            x       y       z     vdW  Elec       q    Type
REMARK                         _______ _______ _______ _____ _____    ______ ____
ROOT
ATOM      1  C   UNL     1      -2.235   3.017  -3.492  0.00  0.00    +0.123 C 
ATOM      2  C   UNL     1      -2.688   3.323  -4.792  0.00  0.00    +0.091 C 
ATOM      3  N   UNL     1      -3.238   2.485  -5.710  0.00  0.00    -0.307 N 
ATOM      4  C   UNL     1      -3.614   2.989  -6.922  0.00  0.00    +0.046 C 
ATOM      5  C   UNL     1      -3.408   4.310  -7.124  0.00  0.00    +0.070 C 
ATOM      6  S   UNL     1      -2.685   4.812  -5.573  0.00  0.00    -0.079 S 
ATOM      7  H   UNL     1      -3.362   1.544  -5.507  0.00  0.00    +0.153 HD
ENDROOT
BRANCH   4   8
ATOM      8  C   UNL     1      -4.218   2.130  -7.965  0.00  0.00    -0.003 A 
ATOM      9  C   UNL     1      -4.422   0.772  -7.722  0.00  0.00    +0.011 A 
ATOM     10  C   UNL     1      -4.986  -0.024  -8.698  0.00  0.00    +0.016 A 
ATOM     11  C   UNL     1      -5.349   0.524  -9.916  0.00  0.00    +0.018 A 
ATOM     12  C   UNL     1      -5.148   1.871 -10.163  0.00  0.00    +0.016 A 
ATOM     13  C   UNL     1      -4.591   2.678  -9.193  0.00  0.00    +0.011 A 
ATOM     14 BR   UNL     1      -6.121  -0.573 -11.249  0.00  0.00    -0.050 Br
ENDBRANCH   4   8
BRANCH   1  15
ATOM     15  C   UNL     1      -2.321   1.703  -3.010  0.00  0.00    +0.190 C 
ATOM     16  O   UNL     1      -2.787   0.827  -3.712  0.00  0.00    -0.290 OA
BRANCH  15  17
ATOM     17  C   UNL     1      -1.836   1.377  -1.621  0.00  0.00    +0.165 C 
BRANCH  17  23
ATOM     18  C   UNL     1      -1.242  -0.491  -0.199  0.00  0.00    +0.057 C 
ATOM     19  C   UNL     1      -1.359  -2.009  -0.043  0.00  0.00    +0.019 C 
ATOM     20  C   UNL     1      -2.830  -2.386   0.150  0.00  0.00    +0.003 C 
ATOM     21  C   UNL     1      -3.640  -1.878  -1.045  0.00  0.00    +0.015 C 
ATOM     22  C   UNL     1      -3.458  -0.363  -1.172  0.00  0.00    +0.085 C 
ATOM     23  N   UNL     1      -2.034  -0.055  -1.356  0.00  0.00    -0.292 NA
BRANCH  18  25
ATOM     24  C   UNL     1       0.724  -0.725  -1.722  0.00  0.00    +0.005 C 
ATOM     25  C   UNL     1       0.224  -0.112  -0.413  0.00  0.00    +0.015 C 
ENDBRANCH  18  25
ENDBRANCH  17  23
ENDBRANCH  15  17
ENDBRANCH   1  15
BRANCH   1  26
ATOM     26  C   UNL     1      -1.686   4.049  -2.664  0.00  0.00    +0.105 C 
ATOM     27  N   UNL     1      -1.250   4.867  -2.008  0.00  0.00    -0.191 NA
ENDBRANCH   1  26
TORSDOF 6
