REMARK  Name = ZINC14470499
REMARK  4 active torsions:
REMARK  status: ('A' for Active; 'I' for Inactive)
REMARK    1  A    between atoms: C_1  and  C_2
REMARK    2  A    between atoms: N_4  and  C_5
REMARK    3  A    between atoms: C_18  and  C_21
REMARK    4  A    between atoms: C_25  and  N_27
REMARK                            x       y       z     vdW  Elec       q    Type
REMARK                         _______ _______ _______ _____ _____    ______ ____
ROOT
ATOM      1  C   UNL     1      -1.226   1.749   0.023  0.00  0.00    +0.034 A 
ATOM      2  C   UNL     1      -1.249   3.124   0.212  0.00  0.00    +0.025 A 
ATOM      3  C   UNL     1      -0.065   3.834   0.209  0.00  0.00    +0.025 A 
ATOM      4  C   UNL     1       1.142   3.174   0.021  0.00  0.00    +0.031 A 
ATOM      5  C   UNL     1       1.174   1.800  -0.163  0.00  0.00    -0.018 A 
ATOM      6  C   UNL     1      -0.019   1.092  -0.158  0.00  0.00    +0.029 A 
ATOM      7  C   UNL     1       2.452   1.049  -0.364  0.00  0.00    +0.049 C 
ATOM      8  C   UNL     1       2.628   0.637  -1.807  0.00  0.00    -0.023 C 
ATOM      9  C   UNL     1       3.892   0.707  -2.147  0.00  0.00    -0.030 C 
ATOM     10  C   UNL     1       4.733   1.173  -0.974  0.00  0.00    +0.033 C 
ATOM     11  C   UNL     1       3.703   1.894  -0.056  0.00  0.00    +0.029 C 
ATOM     12  C   UNL     1       3.521   3.313  -0.602  0.00  0.00    +0.105 C 
ATOM     13  N   UNL     1       2.334   3.912   0.017  0.00  0.00    -0.336 N 
ATOM     14  H   UNL     1       2.372   4.796   0.414  0.00  0.00    +0.147 HD
ENDROOT
BRANCH  12  15
ATOM     15  C   UNL     1       4.736   4.141  -0.269  0.00  0.00    -0.025 A 
ATOM     16  C   UNL     1       4.874   4.689   0.994  0.00  0.00    +0.007 A 
ATOM     17  C   UNL     1       5.990   5.443   1.301  0.00  0.00    +0.022 A 
ATOM     18  C   UNL     1       6.964   5.661   0.343  0.00  0.00    +0.071 A 
ATOM     19  C   UNL     1       6.822   5.118  -0.922  0.00  0.00    +0.145 A 
ATOM     20  C   UNL     1       5.708   4.358  -1.227  0.00  0.00    +0.039 A 
ATOM     21 CL   UNL     1       8.362   6.615   0.726  0.00  0.00    -0.081 Cl
BRANCH  19  22
ATOM     22  N   UNL     1       7.863   5.350  -1.948  0.00  0.00    +0.058 N 
ATOM     23  O   UNL     1       7.738   4.871  -3.061  0.00  0.00    -0.126 OA
ATOM     24  O   UNL     1       8.845   6.019  -1.679  0.00  0.00    -0.126 OA
ENDBRANCH  19  22
ENDBRANCH  12  15
BRANCH   1  28
ATOM     25  C   UNL     1      -4.863   0.850  -0.362  0.00  0.00    +0.109 C 
ATOM     26  C   UNL     1      -3.550   1.583  -0.466  0.00  0.00    +0.214 C 
ATOM     27  O   UNL     1      -3.507   2.678  -0.986  0.00  0.00    -0.276 OA
ATOM     28  N   UNL     1      -2.425   1.023   0.019  0.00  0.00    -0.286 N 
ATOM     29  H   UNL     1      -2.444   0.117   0.365  0.00  0.00    +0.155 HD
ENDBRANCH   1  28
TORSDOF 3
