REMARK  Name = ZINC09490772
REMARK  10 active torsions:
REMARK  status: ('A' for Active; 'I' for Inactive)
REMARK    1  A    between atoms: C_1  and  C_2
REMARK    2  A    between atoms: C_2  and  C_3
REMARK    3  A    between atoms: C_3  and  C_4
REMARK    4  A    between atoms: C_4  and  O_5
REMARK    5  A    between atoms: O_5  and  C_6
REMARK    6  A    between atoms: C_9  and  C_12
REMARK    7  A    between atoms: C_13  and  N_26
REMARK    8  A    between atoms: N_26  and  C_27
REMARK    9  A    between atoms: C_32  and  C_37
REMARK   10  A    between atoms: C_34  and  C_36
REMARK                            x       y       z     vdW  Elec       q    Type
REMARK                         _______ _______ _______ _____ _____    ______ ____
ROOT
ATOM      1  C   UNL     1       1.313  -1.790  -0.023  0.00  0.00    +0.049 C 
ATOM      2  C   UNL     1       2.295  -2.685  -0.231  0.00  0.00    +0.070 C 
ATOM      3  N   UNL     1       1.761  -3.934  -0.529  0.00  0.00    -0.307 N 
ATOM      4  C   UNL     1       2.040  -5.165  -1.146  0.00  0.00    +0.044 A 
ATOM      5  C   UNL     1       3.246  -5.875  -1.119  0.00  0.00    +0.025 A 
ATOM      6  C   UNL     1       3.393  -7.048  -1.827  0.00  0.00    +0.022 A 
ATOM      7  C   UNL     1       2.355  -7.562  -2.585  0.00  0.00    +0.042 A 
ATOM      8  C   UNL     1       1.139  -6.895  -2.606  0.00  0.00    +0.036 A 
ATOM      9  C   UNL     1       0.986  -5.742  -1.880  0.00  0.00    +0.034 A 
ATOM     10  S   UNL     1      -0.411  -4.683  -1.538  0.00  0.00    -0.077 S 
ATOM     11  C   UNL     1       0.339  -3.867  -0.065  0.00  0.00    +0.255 C 
ATOM     12  N   UNL     1       0.049  -2.435  -0.050  0.00  0.00    -0.255 NA
ATOM     13 CL   UNL     1       2.573  -9.023  -3.497  0.00  0.00    -0.084 Cl
ENDROOT
BRANCH   1  17
ATOM     14  C   UNL     1       1.908   2.362   0.638  0.00  0.00    +0.121 A 
ATOM     15  C   UNL     1       0.620   1.855   0.537  0.00  0.00    +0.046 A 
ATOM     16  C   UNL     1       0.421   0.508   0.322  0.00  0.00    +0.013 A 
ATOM     17  C   UNL     1       1.520  -0.349   0.206  0.00  0.00    -0.004 A 
ATOM     18  C   UNL     1       2.815   0.167   0.309  0.00  0.00    +0.013 A 
ATOM     19  C   UNL     1       3.003   1.516   0.524  0.00  0.00    +0.046 A 
BRANCH  14  20
ATOM     20  O   UNL     1       2.099   3.692   0.850  0.00  0.00    -0.492 OA
BRANCH  20  21
ATOM     21  C   UNL     1       3.450   4.146   0.944  0.00  0.00    +0.229 C 
BRANCH  21  22
ATOM     22  C   UNL     1       3.464   5.658   1.181  0.00  0.00    +0.041 C 
BRANCH  22  24
ATOM     23  C   UNL     1       4.925   7.656   1.519  0.00  0.00    +0.004 C 
ATOM     24  C   UNL     1       4.911   6.144   1.282  0.00  0.00    -0.000 C 
ENDBRANCH  22  24
ENDBRANCH  21  22
ENDBRANCH  20  21
ENDBRANCH  14  20
ENDBRANCH   1  17
BRANCH   2  25
ATOM     25  N   UNL     1       3.656  -2.400  -0.157  0.00  0.00    +0.397 N 
ATOM     26  H   UNL     1       3.796  -1.331   0.062  0.00  0.00    -0.082 HD
ATOM     27  H   UNL     1       4.114  -3.001   0.642  0.00  0.00    -0.082 HD
BRANCH  25  28
ATOM     28  C   UNL     1       4.518  -2.639  -1.318  0.00  0.00    -0.066 C 
ATOM     29  C   UNL     1       4.338  -1.505  -2.329  0.00  0.00    -0.015 C 
ATOM     30  C   UNL     1       5.238  -1.754  -3.541  0.00  0.00    -0.001 C 
ATOM     31  C   UNL     1       6.699  -1.808  -3.089  0.00  0.00    +0.003 C 
ATOM     32  C   UNL     1       6.878  -2.942  -2.078  0.00  0.00    -0.013 C 
ATOM     33  C   UNL     1       5.978  -2.692  -0.866  0.00  0.00    -0.025 C 
ATOM     34  C   UNL     1       6.158  -3.827   0.145  0.00  0.00    +0.006 C 
ATOM     35  C   UNL     1       6.497  -4.272  -2.731  0.00  0.00    +0.008 C 
ENDBRANCH  25  28
ENDBRANCH   2  25
TORSDOF 7
