REMARK  Name = ZINC19866239
REMARK  4 active torsions:
REMARK  status: ('A' for Active; 'I' for Inactive)
REMARK    1  A    between atoms: C_3  and  O_10
REMARK    2  A    between atoms: C_6  and  C_7
REMARK    3  A    between atoms: O_10  and  C_11
REMARK    4  A    between atoms: C_11  and  C_12
REMARK                            x       y       z     vdW  Elec       q    Type
REMARK                         _______ _______ _______ _____ _____    ______ ____
ROOT
ATOM      1  C   UNL     1      -4.565   3.906   3.039  0.00  0.00    +0.015 A 
ATOM      2  C   UNL     1      -3.373   3.242   2.845  0.00  0.00    +0.046 A 
ATOM      3  C   UNL     1      -2.917   2.991   1.557  0.00  0.00    +0.121 A 
ATOM      4  C   UNL     1      -3.657   3.414   0.460  0.00  0.00    +0.046 A 
ATOM      5  C   UNL     1      -4.853   4.074   0.646  0.00  0.00    +0.015 A 
ATOM      6  C   UNL     1      -5.314   4.327   1.939  0.00  0.00    +0.012 A 
ENDROOT
BRANCH   6   7
ATOM      7  C   UNL     1      -6.595   5.039   2.143  0.00  0.00    +0.094 C 
ATOM      8  N   UNL     1      -7.024   5.275   3.350  0.00  0.00    -0.387 N 
ATOM      9  N   UNL     1      -7.333   5.454   1.055  0.00  0.00    -0.345 N 
ATOM     10  H   UNL     1      -7.976   5.804   3.502  0.00  0.00    +0.157 HD
ATOM     11  H   UNL     1      -8.285   5.984   1.207  0.00  0.00    +0.144 HD
ATOM     12  H   UNL     1      -6.970   5.256   0.036  0.00  0.00    +0.144 HD
ATOM     13  H   UNL     1      -6.435   4.944   4.218  0.00  0.00    +0.157 HD
ENDBRANCH   6   7
BRANCH   3  14
ATOM     14  O   UNL     1      -1.742   2.337   1.370  0.00  0.00    -0.487 OA
BRANCH  14  15
ATOM     15  C   UNL     1      -1.333   2.112   0.020  0.00  0.00    +0.264 C 
BRANCH  15  16
ATOM     16  C   UNL     1      -0.017   1.378   0.010  0.00  0.00    -0.007 A 
ATOM     17  C   UNL     1       1.169   2.089   0.002  0.00  0.00    +0.011 A 
ATOM     18  C   UNL     1       2.379   1.420  -0.012  0.00  0.00    +0.050 A 
ATOM     19  C   UNL     1       2.405   0.035  -0.021  0.00  0.00    +0.166 A 
ATOM     20  C   UNL     1       1.211  -0.681  -0.013  0.00  0.00    +0.167 A 
ATOM     21  C   UNL     1       0.002  -0.004   0.002  0.00  0.00    +0.056 A 
ATOM     22  O   UNL     1       1.501  -2.015  -0.024  0.00  0.00    -0.453 OA
ATOM     23  C   UNL     1       2.873  -2.106  -0.450  0.00  0.00    +0.466 C 
ATOM     24  O   UNL     1       3.444  -0.851  -0.036  0.00  0.00    -0.453 OA
ENDBRANCH  15  16
ENDBRANCH  14  15
ENDBRANCH   3  14
TORSDOF 4
