REMARK  Name = ZINC35991643
REMARK  10 active torsions:
REMARK  status: ('A' for Active; 'I' for Inactive)
REMARK    1  A    between atoms: C_1  and  C_2
REMARK    2  A    between atoms: C_2  and  N_3
REMARK    3  A    between atoms: C_4  and  C_23
REMARK    4  A    between atoms: C_5  and  C_18
REMARK    5  A    between atoms: C_6  and  C_11
REMARK    6  A    between atoms: C_18  and  O_20
REMARK    7  A    between atoms: O_20  and  C_21
REMARK    8  A    between atoms: C_21  and  C_22
REMARK    9  A    between atoms: C_23  and  N_24
REMARK   10  A    between atoms: C_27  and  C_30
REMARK                            x       y       z     vdW  Elec       q    Type
REMARK                         _______ _______ _______ _____ _____    ______ ____
ROOT
ATOM      1  N   UNL     1      -1.739  -0.271   0.123  0.00  0.00    -0.261 N 
ATOM      2  C   UNL     1      -2.034  -0.851   1.324  0.00  0.00    +0.010 C 
ATOM      3  C   UNL     1      -3.143  -1.604   1.480  0.00  0.00    +0.076 C 
ATOM      4  C   UNL     1      -4.049  -1.784   0.278  0.00  0.00    +0.144 C 
ATOM      5  N   UNL     1      -3.641  -1.118  -0.970  0.00  0.00    -0.288 N 
ATOM      6  C   UNL     1      -2.505  -0.393  -0.969  0.00  0.00    +0.307 C 
ATOM      7  O   UNL     1      -2.162   0.164  -1.993  0.00  0.00    -0.252 OA
ATOM      8  H   UNL     1      -4.180  -1.196  -1.773  0.00  0.00    +0.151 HD
ENDROOT
BRANCH   4   9
ATOM      9  C   UNL     1      -5.419  -1.278   0.649  0.00  0.00    -0.020 A 
ATOM     10  C   UNL     1      -5.685   0.079   0.620  0.00  0.00    +0.006 A 
ATOM     11  C   UNL     1      -6.941   0.545   0.960  0.00  0.00    +0.003 A 
ATOM     12  C   UNL     1      -7.933  -0.345   1.329  0.00  0.00    +0.038 A 
ATOM     13  C   UNL     1      -7.667  -1.703   1.358  0.00  0.00    +0.124 A 
ATOM     14  C   UNL     1      -6.410  -2.169   1.012  0.00  0.00    +0.044 A 
ATOM     15  F   UNL     1      -8.636  -2.574   1.719  0.00  0.00    -0.205 F 
ENDBRANCH   4   9
BRANCH   1  17
ATOM     16  C   UNL     1      -0.836   1.987   0.384  0.00  0.00    +0.025 C 
ATOM     17  C   UNL     1      -0.519   0.534   0.025  0.00  0.00    +0.111 C 
ENDBRANCH   1  17
BRANCH   3  18
ATOM     18  C   UNL     1      -3.450  -2.206   2.723  0.00  0.00    +0.339 C 
ATOM     19  O   UNL     1      -2.758  -1.976   3.697  0.00  0.00    -0.245 OA
BRANCH  18  20
ATOM     20  O   UNL     1      -4.510  -3.034   2.829  0.00  0.00    -0.462 OA
BRANCH  20  21
ATOM     21  C   UNL     1      -4.760  -3.607   4.114  0.00  0.00    +0.229 C 
ATOM     22  C   UNL     1      -5.992  -4.511   4.038  0.00  0.00    +0.048 C 
ENDBRANCH  20  21
ENDBRANCH  18  20
ENDBRANCH   3  18
BRANCH   2  23
ATOM     23  C   UNL     1      -1.106  -0.646   2.493  0.00  0.00    -0.026 C 
BRANCH  23  24
ATOM     24  N   UNL     1      -0.245  -1.826   2.648  0.00  0.00    +0.383 N 
ATOM     25  C   UNL     1       0.638  -1.942   1.481  0.00  0.00    -0.078 C 
ATOM     26  C   UNL     1       1.480  -3.214   1.598  0.00  0.00    -0.016 C 
ATOM     27  C   UNL     1       2.324  -3.145   2.874  0.00  0.00    -0.018 C 
ATOM     28  C   UNL     1       1.398  -2.949   4.077  0.00  0.00    -0.016 C 
ATOM     29  C   UNL     1       0.559  -1.687   3.868  0.00  0.00    -0.078 C 
ATOM     30  C   UNL     1       3.109  -4.447   3.039  0.00  0.00    +0.007 C 
ATOM     31  H   UNL     1      -0.819  -2.653   2.716  0.00  0.00    -0.081 HD
ENDBRANCH  23  24
ENDBRANCH   2  23
TORSDOF 7
