REMARK  Name = ZINC09698484
REMARK  4 active torsions:
REMARK  status: ('A' for Active; 'I' for Inactive)
REMARK    1  A    between atoms: N_10  and  C_26
REMARK    2  A    between atoms: N_13  and  C_14
REMARK    3  A    between atoms: C_14  and  C_15
REMARK    4  A    between atoms: C_20  and  C_23
REMARK                            x       y       z     vdW  Elec       q    Type
REMARK                         _______ _______ _______ _____ _____    ______ ____
ROOT
ATOM      1  C   UNL     1      -2.427   3.171  -5.736  0.00  0.00    +0.017 A 
ATOM      2  C   UNL     1      -2.850   3.463  -4.454  0.00  0.00    +0.028 A 
ATOM      3  C   UNL     1      -2.139   2.977  -3.367  0.00  0.00    +0.059 A 
ATOM      4  C   UNL     1      -0.993   2.190  -3.581  0.00  0.00    +0.064 A 
ATOM      5  C   UNL     1      -0.577   1.903  -4.878  0.00  0.00    +0.030 A 
ATOM      6  C   UNL     1      -1.298   2.394  -5.948  0.00  0.00    +0.019 A 
ATOM      7 BR   UNL     1      -0.741   2.009  -7.713  0.00  0.00    -0.050 Br
ATOM      8  C   UNL     1      -0.262   1.690  -2.403  0.00  0.00    +0.265 A 
ATOM      9  O   UNL     1       0.735   1.006  -2.533  0.00  0.00    -0.267 OA
ATOM     10  N   UNL     1      -0.727   2.011  -1.176  0.00  0.00    -0.257 N 
ATOM     11  C   UNL     1      -1.829   2.762  -1.024  0.00  0.00    +0.333 A 
ATOM     12  O   UNL     1      -2.208   3.017   0.103  0.00  0.00    -0.246 OA
ATOM     13  N   UNL     1      -2.530   3.247  -2.063  0.00  0.00    -0.284 N 
ENDROOT
BRANCH  10  14
ATOM     14  C   UNL     1      -0.019   1.526   0.010  0.00  0.00    +0.095 C 
ATOM     15  C   UNL     1       1.417   2.055  -0.000  0.00  0.00    +0.025 C 
ATOM     16  C   UNL     1       2.157   1.548   1.239  0.00  0.00    +0.002 C 
ATOM     17  C   UNL     1       2.178   0.019   1.231  0.00  0.00    +0.000 C 
ATOM     18  C   UNL     1       0.742  -0.511   1.242  0.00  0.00    +0.002 C 
ATOM     19  C   UNL     1       0.002  -0.004   0.002  0.00  0.00    +0.025 C 
ENDBRANCH  10  14
BRANCH  13  20
ATOM     20  C   UNL     1      -3.721   4.064  -1.817  0.00  0.00    +0.222 C 
BRANCH  20  21
ATOM     21  C   UNL     1      -4.933   3.173  -1.731  0.00  0.00    +0.236 C 
ATOM     22  O   UNL     1      -4.813   1.973  -1.862  0.00  0.00    -0.274 OA
ATOM     23  N   UNL     1      -6.149   3.709  -1.508  0.00  0.00    -0.300 N 
ATOM     24  C   UNL     1      -6.309   5.160  -1.341  0.00  0.00    +0.108 C 
ATOM     25  C   UNL     1      -7.047   5.432  -0.032  0.00  0.00    +0.032 C 
ATOM     26  C   UNL     1      -8.362   4.649  -0.019  0.00  0.00    +0.078 C 
ATOM     27  C   UNL     1      -8.066   3.150  -0.106  0.00  0.00    +0.032 C 
ATOM     28  C   UNL     1      -7.340   2.853  -1.422  0.00  0.00    +0.108 C 
BRANCH  26  29
ATOM     29  C   UNL     1      -9.107   4.940   1.258  0.00  0.00    +0.214 C 
ATOM     30  O   UNL     1      -9.375   4.038   2.023  0.00  0.00    -0.276 OA
ATOM     31  N   UNL     1      -9.476   6.203   1.550  0.00  0.00    -0.329 N 
ATOM     32  H   UNL     1      -9.261   6.925   0.939  0.00  0.00    +0.145 HD
ATOM     33  H   UNL     1      -9.955   6.390   2.373  0.00  0.00    +0.145 HD
ENDBRANCH  26  29
ENDBRANCH  20  21
ENDBRANCH  13  20
TORSDOF 4
