REMARK  Name = ZINC02254560
REMARK  9 active torsions:
REMARK  status: ('A' for Active; 'I' for Inactive)
REMARK    1  A    between atoms: C_1  and  O_2
REMARK    2  A    between atoms: O_2  and  C_3
REMARK    3  A    between atoms: C_6  and  C_11
REMARK    4  A    between atoms: C_8  and  O_9
REMARK    5  A    between atoms: O_9  and  C_10
REMARK    6  A    between atoms: C_11  and  C_12
REMARK    7  A    between atoms: N_14  and  N_15
REMARK    8  A    between atoms: N_23  and  C_26
REMARK    9  A    between atoms: C_26  and  N_60
REMARK                            x       y       z     vdW  Elec       q    Type
REMARK                         _______ _______ _______ _____ _____    ______ ____
ROOT
ATOM      1  N   UNL     1      -3.294  -1.929  -2.966  0.00  0.00    -0.175 NA
ATOM      2  C   UNL     1      -4.350  -2.669  -3.201  0.00  0.00    +0.153 C 
ATOM      3  C   UNL     1      -5.282  -3.253  -2.209  0.00  0.00    +0.029 A 
ATOM      4  C   UNL     1      -5.340  -3.214  -0.820  0.00  0.00    +0.027 A 
ATOM      5  C   UNL     1      -6.357  -3.874  -0.159  0.00  0.00    +0.019 A 
ATOM      6  C   UNL     1      -7.314  -4.572  -0.877  0.00  0.00    +0.017 A 
ATOM      7  C   UNL     1      -7.263  -4.617  -2.256  0.00  0.00    +0.025 A 
ATOM      8  C   UNL     1      -6.247  -3.958  -2.939  0.00  0.00    +0.044 A 
ATOM      9  N   UNL     1      -5.969  -3.845  -4.297  0.00  0.00    -0.282 N 
ATOM     10  C   UNL     1      -4.874  -3.097  -4.514  0.00  0.00    +0.270 C 
ATOM     11  O   UNL     1      -4.398  -2.822  -5.600  0.00  0.00    -0.268 OA
ATOM     12 BR   UNL     1      -6.444  -3.825   1.730  0.00  0.00    -0.050 Br
ENDROOT
BRANCH   1  15
ATOM     13  C   UNL     1      -1.867  -0.846  -1.398  0.00  0.00    +0.237 C 
ATOM     14  O   UNL     1      -1.075  -0.628  -2.290  0.00  0.00    -0.274 OA
ATOM     15  N   UNL     1      -3.015  -1.501  -1.662  0.00  0.00    -0.206 N 
ATOM     16  H   UNL     1      -3.648  -1.675  -0.948  0.00  0.00    +0.177 HD
BRANCH  13  17
ATOM     17  C   UNL     1      -1.567  -0.386   0.005  0.00  0.00    +0.132 C 
BRANCH  17  21
ATOM     18  C   UNL     1       2.223   1.594   0.075  0.00  0.00    +0.161 A 
ATOM     19  C   UNL     1       2.148   0.227   0.290  0.00  0.00    +0.049 A 
ATOM     20  C   UNL     1       0.922  -0.410   0.267  0.00  0.00    +0.008 A 
ATOM     21  C   UNL     1      -0.232   0.314   0.029  0.00  0.00    -0.035 A 
ATOM     22  C   UNL     1      -0.164   1.678  -0.186  0.00  0.00    +0.053 A 
ATOM     23  C   UNL     1       1.062   2.322  -0.164  0.00  0.00    +0.162 A 
BRANCH  18  25
ATOM     24  C   UNL     1       4.579   1.411   0.349  0.00  0.00    +0.277 C 
ATOM     25  O   UNL     1       3.429   2.222   0.098  0.00  0.00    -0.491 OA
ENDBRANCH  18  25
BRANCH  23  26
ATOM     26  O   UNL     1       1.131   3.664  -0.376  0.00  0.00    -0.491 OA
ATOM     27  C   UNL     1      -0.102   4.347  -0.614  0.00  0.00    +0.277 C 
ENDBRANCH  23  26
ENDBRANCH  17  21
ENDBRANCH  13  17
ENDBRANCH   1  15
BRANCH   9  28
ATOM     28  C   UNL     1      -6.773  -4.458  -5.358  0.00  0.00    +0.039 C 
BRANCH  28  34
ATOM     29  C   UNL     1      -8.963  -3.561  -4.849  0.00  0.00    -0.077 C 
ATOM     30  C   UNL     1      -9.972  -2.476  -5.233  0.00  0.00    -0.019 C 
ATOM     31  C   UNL     1     -10.451  -2.715  -6.667  0.00  0.00    -0.004 C 
ATOM     32  C   UNL     1      -9.242  -2.719  -7.607  0.00  0.00    -0.019 C 
ATOM     33  C   UNL     1      -8.254  -3.797  -7.155  0.00  0.00    -0.077 C 
ATOM     34  N   UNL     1      -7.813  -3.496  -5.776  0.00  0.00    +0.390 N 
ATOM     35  H   UNL     1      -7.419  -2.548  -5.752  0.00  0.00    -0.080 HD
ENDBRANCH  28  34
ENDBRANCH   9  28
TORSDOF 7
