REMARK  Name = ZINC10066280
REMARK  12 active torsions:
REMARK  status: ('A' for Active; 'I' for Inactive)
REMARK    1  A    between atoms: C_1  and  N_62
REMARK    2  A    between atoms: C_2  and  N_62
REMARK    3  A    between atoms: C_3  and  C_4
REMARK    4  A    between atoms: C_3  and  N_62
REMARK    5  A    between atoms: C_4  and  N_5
REMARK    6  A    between atoms: C_9  and  O_17
REMARK    7  A    between atoms: C_12  and  O_15
REMARK    8  A    between atoms: O_15  and  C_16
REMARK    9  A    between atoms: O_17  and  C_18
REMARK   10  A    between atoms: C_19  and  C_21
REMARK   11  A    between atoms: C_24  and  C_27
REMARK   12  A    between atoms: C_27  and  C_29
REMARK                            x       y       z     vdW  Elec       q    Type
REMARK                         _______ _______ _______ _____ _____    ______ ____
ROOT
ATOM      1  N   UNL     1      -0.066   0.829  -1.974  0.00  0.00    -0.248 N 
ATOM      2  C   UNL     1      -0.956  -0.233  -1.954  0.00  0.00    +0.169 A 
ATOM      3  N   UNL     1      -1.091  -1.210  -2.819  0.00  0.00    -0.221 NA
ATOM      4  C   UNL     1      -2.009  -2.190  -2.669  0.00  0.00    +0.125 A 
ATOM      5  C   UNL     1      -2.254  -3.297  -3.522  0.00  0.00    +0.147 A 
ATOM      6  C   UNL     1      -3.239  -4.208  -3.225  0.00  0.00    +0.051 A 
ATOM      7  C   UNL     1      -4.025  -4.081  -2.088  0.00  0.00    +0.050 A 
ATOM      8  C   UNL     1      -3.812  -3.011  -1.233  0.00  0.00    +0.136 A 
ATOM      9  C   UNL     1      -2.827  -2.093  -1.524  0.00  0.00    +0.086 A 
ATOM     10  S   UNL     1      -2.217  -0.616  -0.748  0.00  0.00    -0.048 S 
ATOM     11  C   UNL     1      -0.087   1.744  -0.985  0.00  0.00    +0.252 C 
ATOM     12  O   UNL     1      -0.924   1.672  -0.108  0.00  0.00    -0.270 OA
ENDROOT
BRANCH  11  13
ATOM     13  C   UNL     1       0.906   2.842  -0.972  0.00  0.00    +0.037 A 
ATOM     14  C   UNL     1       2.179   2.637  -1.507  0.00  0.00    +0.014 A 
ATOM     15  C   UNL     1       3.102   3.660  -1.500  0.00  0.00    +0.012 A 
ATOM     16  C   UNL     1       2.767   4.898  -0.946  0.00  0.00    +0.022 A 
ATOM     17  C   UNL     1       1.495   5.101  -0.406  0.00  0.00    +0.012 A 
ATOM     18  C   UNL     1       0.571   4.079  -0.419  0.00  0.00    +0.014 A 
BRANCH  16  19
ATOM     19  C   UNL     1       3.760   5.995  -0.932  0.00  0.00    +0.193 C 
ATOM     20  O   UNL     1       3.393   7.149  -1.039  0.00  0.00    -0.287 OA
BRANCH  19  21
ATOM     21  C   UNL     1       5.198   5.688  -0.789  0.00  0.00    +0.022 A 
ATOM     22  C   UNL     1       5.610   4.613   0.003  0.00  0.00    +0.012 A 
ATOM     23  C   UNL     1       6.954   4.329   0.127  0.00  0.00    +0.001 A 
ATOM     24  C   UNL     1       7.893   5.112  -0.521  0.00  0.00    +0.000 A 
ATOM     25  C   UNL     1       7.492   6.181  -1.302  0.00  0.00    +0.001 A 
ATOM     26  C   UNL     1       6.151   6.474  -1.440  0.00  0.00    +0.012 A 
ENDBRANCH  19  21
ENDBRANCH  16  19
ENDBRANCH  11  13
BRANCH   8  27
ATOM     27  O   UNL     1      -4.572  -2.868  -0.114  0.00  0.00    -0.494 OA
ATOM     28  C   UNL     1      -5.574  -3.859   0.121  0.00  0.00    +0.277 C 
ENDBRANCH   8  27
BRANCH   5  29
ATOM     29  O   UNL     1      -1.506  -3.459  -4.647  0.00  0.00    -0.493 OA
ATOM     30  C   UNL     1      -1.800  -4.593  -5.465  0.00  0.00    +0.277 C 
ENDBRANCH   5  29
BRANCH   1  31
ATOM     31  C   UNL     1       0.898   0.956  -3.070  0.00  0.00    +0.097 C 
BRANCH  31  32
ATOM     32  C   UNL     1       1.944  -0.155  -2.960  0.00  0.00    -0.060 C 
BRANCH  32  35
ATOM     33  C   UNL     1       4.059  -0.923  -3.857  0.00  0.00    -0.097 C 
ATOM     34  C   UNL     1       2.270  -0.279  -5.356  0.00  0.00    -0.097 C 
ATOM     35  N   UNL     1       2.921  -0.001  -4.059  0.00  0.00    +0.377 N 
ATOM     36  H   UNL     1       3.271   0.964  -4.061  0.00  0.00    -0.083 HD
ENDBRANCH  32  35
ENDBRANCH  31  32
ENDBRANCH   1  31
TORSDOF 8
