REMARK  Name = ZINC36160227
REMARK  12 active torsions:
REMARK  status: ('A' for Active; 'I' for Inactive)
REMARK    1  A    between atoms: C_1  and  C_2
REMARK    2  A    between atoms: C_2  and  O_3
REMARK    3  A    between atoms: O_3  and  C_4
REMARK    4  A    between atoms: C_4  and  C_5
REMARK    5  A    between atoms: C_5  and  C_7
REMARK    6  A    between atoms: C_5  and  O_30
REMARK    7  A    between atoms: C_7  and  N_8
REMARK    8  A    between atoms: N_8  and  C_9
REMARK    9  A    between atoms: C_9  and  C_11
REMARK   10  A    between atoms: C_9  and  C_18
REMARK   11  A    between atoms: C_11  and  C_12
REMARK   12  A    between atoms: C_20  and  C_23
REMARK                            x       y       z     vdW  Elec       q    Type
REMARK                         _______ _______ _______ _____ _____    ______ ____
ROOT
ATOM      1  C   UNL     1       1.972  -5.666   3.908  0.00  0.00    +0.023 C 
ENDROOT
BRANCH   1   2
ATOM      2  C   UNL     1       2.809  -5.977   5.123  0.00  0.00    +0.214 A 
ATOM      3  N   UNL     1       3.613  -6.994   5.253  0.00  0.00    -0.193 NA
ATOM      4  C   UNL     1       4.200  -6.964   6.463  0.00  0.00    +0.202 A 
ATOM      5  N   UNL     1       3.764  -5.914   7.114  0.00  0.00    -0.056 NA
ATOM      6  O   UNL     1       2.855  -5.252   6.248  0.00  0.00    -0.339 OA
BRANCH   4   7
ATOM      7  C   UNL     1       5.178  -7.956   6.975  0.00  0.00    +0.023 A 
ATOM      8  C   UNL     1       5.565  -9.032   6.178  0.00  0.00    +0.013 A 
ATOM      9  C   UNL     1       6.474  -9.951   6.659  0.00  0.00    +0.016 A 
ATOM     10  C   UNL     1       7.001  -9.808   7.930  0.00  0.00    +0.018 A 
ATOM     11  C   UNL     1       6.619  -8.741   8.726  0.00  0.00    +0.016 A 
ATOM     12  C   UNL     1       5.715  -7.813   8.252  0.00  0.00    +0.013 A 
ATOM     13 BR   UNL     1       8.247 -11.072   8.583  0.00  0.00    -0.050 Br
ENDBRANCH   4   7
ENDBRANCH   1   2
BRANCH   1  14
ATOM     14  N   UNL     1       2.086  -4.237   3.588  0.00  0.00    +0.389 N 
ATOM     15  H   UNL     1       3.060  -3.991   3.490  0.00  0.00    -0.085 HD
ATOM     16  H   UNL     1       1.675  -3.692   4.332  0.00  0.00    -0.085 HD
BRANCH  14  17
ATOM     17  C   UNL     1       1.381  -3.959   2.330  0.00  0.00    -0.048 C 
BRANCH  17  18
ATOM     18  C   UNL     1       1.609  -2.500   1.929  0.00  0.00    +0.123 C 
BRANCH  18  19
ATOM     19  O   UNL     1       2.994  -2.296   1.640  0.00  0.00    -0.391 OA
ATOM     20  H   UNL     1       3.330  -2.846   0.919  0.00  0.00    +0.210 HD
ENDBRANCH  18  19
BRANCH  18  21
ATOM     21  C   UNL     1       0.776  -2.176   0.688  0.00  0.00    +0.189 C 
BRANCH  21  22
ATOM     22  O   UNL     1       0.897  -0.786   0.382  0.00  0.00    -0.378 OA
BRANCH  22  24
ATOM     23  C   UNL     1       0.356   1.123  -0.999  0.00  0.00    +0.034 C 
ATOM     24  C   UNL     1       0.153  -0.376  -0.767  0.00  0.00    +0.156 C 
ENDBRANCH  22  24
ENDBRANCH  21  22
ENDBRANCH  18  21
ENDBRANCH  17  18
ENDBRANCH  14  17
ENDBRANCH   1  14
BRANCH   1  25
ATOM     25  C   UNL     1       0.509  -6.009   4.195  0.00  0.00    +0.029 C 
BRANCH  25  26
ATOM     26  C   UNL     1       0.375  -7.495   4.410  0.00  0.00    -0.048 A 
ATOM     27  C   UNL     1       0.239  -8.341   3.325  0.00  0.00    +0.003 A 
ATOM     28  C   UNL     1       0.116  -9.704   3.523  0.00  0.00    +0.000 A 
ATOM     29  C   UNL     1       0.128 -10.220   4.805  0.00  0.00    +0.000 A 
ATOM     30  C   UNL     1       0.265  -9.374   5.890  0.00  0.00    +0.000 A 
ATOM     31  C   UNL     1       0.392  -8.012   5.692  0.00  0.00    +0.003 A 
ENDBRANCH  25  26
ENDBRANCH   1  25
TORSDOF 11
