REMARK  Name = ZINC39232748
REMARK  8 active torsions:
REMARK  status: ('A' for Active; 'I' for Inactive)
REMARK    1  A    between atoms: C_1  and  C_2
REMARK    2  A    between atoms: C_2  and  C_3
REMARK    3  A    between atoms: C_3  and  C_4
REMARK    4  A    between atoms: C_4  and  C_5
REMARK    5  A    between atoms: C_8  and  C_11
REMARK    6  A    between atoms: N_13  and  C_14
REMARK    7  A    between atoms: C_14  and  C_16
REMARK    8  A    between atoms: C_14  and  C_17
REMARK                            x       y       z     vdW  Elec       q    Type
REMARK                         _______ _______ _______ _____ _____    ______ ____
ROOT
ATOM      1  C   UNL     1      -9.518  -4.419  -2.392  0.00  0.00    +0.236 C 
ATOM      2  O   UNL     1      -8.868  -4.209  -3.393  0.00  0.00    -0.274 OA
ATOM      3  N   UNL     1     -10.862  -4.324  -2.428  0.00  0.00    -0.300 N 
ATOM      4  C   UNL     1     -11.657  -4.469  -1.201  0.00  0.00    +0.106 C 
ATOM      5  C   UNL     1     -12.719  -5.549  -1.428  0.00  0.00    +0.009 C 
ATOM      6  C   UNL     1     -13.538  -5.202  -2.672  0.00  0.00    -0.037 C 
ATOM      7  C   UNL     1     -12.625  -5.155  -3.897  0.00  0.00    +0.009 C 
ATOM      8  C   UNL     1     -11.560  -4.066  -3.695  0.00  0.00    +0.106 C 
ATOM      9  C   UNL     1     -14.628  -6.254  -2.881  0.00  0.00    +0.140 C 
ATOM     10  C   UNL     1     -15.557  -6.130  -1.676  0.00  0.00    +0.042 C 
ATOM     11  N   UNL     1     -15.601  -7.288  -1.143  0.00  0.00    -0.243 NA
ATOM     12  C   UNL     1     -14.762  -8.156  -1.759  0.00  0.00    +0.216 C 
ATOM     13  N   UNL     1     -14.126  -7.626  -2.783  0.00  0.00    -0.264 NA
ATOM     14  C   UNL     1     -16.123  -4.798  -1.255  0.00  0.00    +0.034 C 
ATOM     15  C   UNL     1     -14.933  -3.820  -1.230  0.00  0.00    -0.076 C 
ATOM     16  N   UNL     1     -14.185  -3.894  -2.487  0.00  0.00    +0.385 N 
ATOM     17  H   UNL     1     -13.477  -3.176  -2.490  0.00  0.00    -0.085 HD
ATOM     18  H   UNL     1     -14.818  -3.731  -3.255  0.00  0.00    -0.085 HD
ENDROOT
BRANCH   1  19
ATOM     19  C   UNL     1      -8.824  -4.787  -1.106  0.00  0.00    +0.156 C 
ATOM     20  C   UNL     1      -8.800  -6.310  -0.957  0.00  0.00    +0.038 C 
BRANCH  19  23
ATOM     21  C   UNL     1      -6.806  -4.024   0.028  0.00  0.00    +0.245 C 
ATOM     22  O   UNL     1      -7.364  -4.220   1.090  0.00  0.00    -0.270 OA
ATOM     23  N   UNL     1      -7.451  -4.277  -1.129  0.00  0.00    -0.300 N 
ATOM     24  H   UNL     1      -7.006  -4.121  -1.976  0.00  0.00    +0.150 HD
BRANCH  21  28
ATOM     25  C   UNL     1      -2.825  -2.547  -0.039  0.00  0.00    -0.047 A 
ATOM     26  C   UNL     1      -3.457  -2.767   1.171  0.00  0.00    +0.004 A 
ATOM     27  C   UNL     1      -4.750  -3.247   1.200  0.00  0.00    +0.013 A 
ATOM     28  C   UNL     1      -5.421  -3.510   0.004  0.00  0.00    +0.037 A 
ATOM     29  C   UNL     1      -4.777  -3.285  -1.213  0.00  0.00    +0.013 A 
ATOM     30  C   UNL     1      -3.486  -2.800  -1.228  0.00  0.00    +0.004 A 
BRANCH  25  31
ATOM     31  C   UNL     1      -1.412  -2.022  -0.063  0.00  0.00    +0.035 C 
BRANCH  31  32
ATOM     32  C   UNL     1      -1.436  -0.493  -0.080  0.00  0.00    +0.004 C 
BRANCH  32  34
ATOM     33  C   UNL     1      -0.025   1.569  -0.121  0.00  0.00    +0.004 C 
ATOM     34  C   UNL     1      -0.002   0.040  -0.104  0.00  0.00    -0.003 C 
ENDBRANCH  32  34
ENDBRANCH  31  32
ENDBRANCH  25  31
ENDBRANCH  21  28
ENDBRANCH  19  23
ENDBRANCH   1  19
TORSDOF 6
