REMARK  Name = ZINC45555696
REMARK  9 active torsions:
REMARK  status: ('A' for Active; 'I' for Inactive)
REMARK    1  A    between atoms: C_1  and  C_2
REMARK    2  A    between atoms: C_2  and  C_4
REMARK    3  A    between atoms: C_2  and  O_16
REMARK    4  A    between atoms: C_4  and  C_6
REMARK    5  A    between atoms: C_9  and  C_11
REMARK    6  A    between atoms: C_11  and  N_12
REMARK    7  A    between atoms: C_13  and  C_15
REMARK    8  A    between atoms: O_16  and  C_17
REMARK    9  A    between atoms: C_17  and  C_19
REMARK                            x       y       z     vdW  Elec       q    Type
REMARK                         _______ _______ _______ _____ _____    ______ ____
ROOT
ATOM      1  C   UNL     1      -1.412  -0.526   0.013  0.00  0.00    +0.210 C 
ATOM      2  O   UNL     1      -1.908  -0.913   1.051  0.00  0.00    -0.288 OA
ENDROOT
BRANCH   1   3
ATOM      3  C   UNL     1      -2.159  -0.564  -1.185  0.00  0.00    +0.059 A 
ATOM      4  C   UNL     1      -3.466  -0.998  -1.390  0.00  0.00    +0.019 A 
ATOM      5  C   UNL     1      -3.924  -0.914  -2.680  0.00  0.00    +0.013 A 
ATOM      6  C   UNL     1      -3.100  -0.428  -3.644  0.00  0.00    +0.008 A 
ATOM      7  S   UNL     1      -1.678  -0.063  -2.827  0.00  0.00    -0.089 S 
BRANCH   6   8
ATOM      8  C   UNL     1      -3.395  -0.252  -5.111  0.00  0.00    +0.146 C 
BRANCH   8   9
ATOM      9  N   UNL     1      -3.954   1.083  -5.340  0.00  0.00    -0.311 N 
ATOM     10  C   UNL     1      -4.296   1.466  -6.586  0.00  0.00    +0.210 C 
ATOM     11  O   UNL     1      -4.141   0.706  -7.518  0.00  0.00    -0.276 OA
ATOM     12  C   UNL     1      -4.871   2.840  -6.820  0.00  0.00    +0.109 C 
ATOM     13  H   UNL     1      -4.078   1.691  -4.594  0.00  0.00    +0.149 HD
ENDBRANCH   8   9
ENDBRANCH   6   8
ENDBRANCH   1   3
BRANCH   1  15
ATOM     14  C   UNL     1      -0.019   1.526   0.010  0.00  0.00    +0.061 C 
ATOM     15  C   UNL     1       0.002  -0.004   0.002  0.00  0.00    +0.245 C 
BRANCH  15  16
ATOM     16  O   UNL     1       0.693  -0.477   1.160  0.00  0.00    -0.450 OA
BRANCH  16  17
ATOM     17  C   UNL     1       2.025  -0.663   1.045  0.00  0.00    +0.347 C 
ATOM     18  O   UNL     1       2.583  -0.429  -0.010  0.00  0.00    -0.244 OA
BRANCH  17  19
ATOM     19  C   UNL     1       2.797  -1.146   2.190  0.00  0.00    +0.098 A 
ATOM     20  C   UNL     1       4.160  -1.395   2.283  0.00  0.00    +0.039 A 
ATOM     21  C   UNL     1       4.601  -1.848   3.502  0.00  0.00    +0.040 A 
ATOM     22  C   UNL     1       3.703  -2.017   4.508  0.00  0.00    +0.070 A 
ATOM     23  S   UNL     1       2.235  -1.560   3.830  0.00  0.00    -0.074 S 
ATOM     24 BR   UNL     1       4.031  -2.621   6.269  0.00  0.00    -0.041 Br
ATOM     25 BR   UNL     1       6.432  -2.230   3.778  0.00  0.00    -0.049 Br
ENDBRANCH  17  19
ENDBRANCH  16  17
ENDBRANCH  15  16
ENDBRANCH   1  15
TORSDOF 7
