REMARK  Name = ZINC67379506
REMARK  7 active torsions:
REMARK  status: ('A' for Active; 'I' for Inactive)
REMARK    1  A    between atoms: C_3  and  N_10
REMARK    2  A    between atoms: C_5  and  N_7
REMARK    3  A    between atoms: C_13  and  N_17
REMARK    4  A    between atoms: C_21  and  C_24
REMARK    5  A    between atoms: C_24  and  N_25
REMARK    6  A    between atoms: N_25  and  S_26
REMARK    7  A    between atoms: S_26  and  N_29
REMARK                            x       y       z     vdW  Elec       q    Type
REMARK                         _______ _______ _______ _____ _____    ______ ____
ROOT
ATOM      1  N   UNL     1       6.495   2.703  -1.298  0.00  0.00    +0.388 N 
ATOM      2  C   UNL     1       7.101   1.408  -1.627  0.00  0.00    -0.078 C 
ATOM      3  C   UNL     1       7.681   1.456  -3.043  0.00  0.00    -0.018 C 
ATOM      4  C   UNL     1       8.747   2.553  -3.115  0.00  0.00    +0.001 C 
ATOM      5  C   UNL     1       8.122   3.887  -2.698  0.00  0.00    -0.012 C 
ATOM      6  C   UNL     1       7.526   3.749  -1.295  0.00  0.00    -0.073 C 
ATOM      7  H   UNL     1       5.792   2.928  -1.986  0.00  0.00    -0.081 HD
ENDROOT
BRANCH   1  11
ATOM      8  N   UNL     1       3.588   2.106  -0.020  0.00  0.00    -0.273 N 
ATOM      9  C   UNL     1       3.671   3.568  -0.119  0.00  0.00    +0.112 C 
ATOM     10  C   UNL     1       5.101   3.931   0.341  0.00  0.00    +0.013 C 
ATOM     11  C   UNL     1       5.872   2.628   0.030  0.00  0.00    +0.021 C 
ATOM     12  C   UNL     1       4.809   1.552   0.065  0.00  0.00    +0.206 C 
ATOM     13  O   UNL     1       5.028   0.362   0.153  0.00  0.00    -0.277 OA
BRANCH   8  16
ATOM     14  C   UNL     1       1.232  -0.717  -0.017  0.00  0.00    +0.004 A 
ATOM     15  C   UNL     1       2.416  -0.005  -0.027  0.00  0.00    +0.023 A 
ATOM     16  C   UNL     1       2.390   1.383  -0.010  0.00  0.00    +0.038 A 
ATOM     17  C   UNL     1       1.173   2.052   0.017  0.00  0.00    +0.056 A 
ATOM     18  C   UNL     1      -0.007   1.335   0.028  0.00  0.00    +0.128 A 
ATOM     19  C   UNL     1       0.022  -0.048   0.011  0.00  0.00    +0.033 A 
BRANCH  18  20
ATOM     20  N   UNL     1      -1.304   2.047   0.057  0.00  0.00    +0.056 N 
ATOM     21  O   UNL     1      -1.330   3.255   0.072  0.00  0.00    -0.126 OA
ATOM     22  O   UNL     1      -2.338   1.420   0.066  0.00  0.00    -0.126 OA
ENDBRANCH  18  20
ENDBRANCH   8  16
ENDBRANCH   1  11
BRANCH   5  23
ATOM     23  C   UNL     1       9.197   4.976  -2.692  0.00  0.00    +0.108 C 
BRANCH  23  24
ATOM     24  N   UNL     1       9.685   5.187  -4.057  0.00  0.00    -0.180 NA
ATOM     25  H   UNL     1       9.491   4.535  -4.748  0.00  0.00    +0.149 HD
BRANCH  24  26
ATOM     26  S   UNL     1      10.569   6.540  -4.420  0.00  0.00    +0.092 S 
ATOM     27  O   UNL     1      10.914   6.443  -5.795  0.00  0.00    -0.142 OA
ATOM     28  O   UNL     1       9.854   7.647  -3.890  0.00  0.00    -0.142 OA
BRANCH  26  29
ATOM     29  N   UNL     1      11.987   6.441  -3.569  0.00  0.00    -0.193 NA
ATOM     30  H   UNL     1      12.155   5.678  -2.993  0.00  0.00    +0.145 HD
ATOM     31  H   UNL     1      12.649   7.146  -3.646  0.00  0.00    +0.145 HD
ENDBRANCH  26  29
ENDBRANCH  24  26
ENDBRANCH  23  24
ENDBRANCH   5  23
TORSDOF 7
