REMARK  Name = ZINC04908604
REMARK  11 active torsions:
REMARK  status: ('A' for Active; 'I' for Inactive)
REMARK    1  A    between atoms: C_1  and  C_2
REMARK    2  A    between atoms: C_2  and  O_3
REMARK    3  A    between atoms: O_3  and  C_4
REMARK    4  A    between atoms: C_6  and  C_11
REMARK    5  A    between atoms: C_9  and  O_10
REMARK    6  A    between atoms: C_18  and  O_19
REMARK    7  A    between atoms: C_21  and  C_28
REMARK    8  A    between atoms: C_21  and  O_29
REMARK    9  A    between atoms: C_22  and  C_24
REMARK   10  A    between atoms: C_24  and  O_26
REMARK   11  A    between atoms: O_26  and  C_27
REMARK                            x       y       z     vdW  Elec       q    Type
REMARK                         _______ _______ _______ _____ _____    ______ ____
ROOT
ATOM      1  C   UNL     1       1.608   1.703   2.575  0.00  0.00    +0.073 C 
ATOM      2  C   UNL     1       1.978   1.876   1.123  0.00  0.00    +0.044 A 
ATOM      3  C   UNL     1       3.148   2.412   0.694  0.00  0.00    +0.046 A 
ATOM      4  N   UNL     1       3.132   2.420  -0.649  0.00  0.00    -0.278 N 
ATOM      5  H   UNL     1       3.858   2.762  -1.245  0.00  0.00    +0.189 HD
ATOM      6  N   UNL     1       1.915   1.863  -1.069  0.00  0.00    -0.136 NA
ATOM      7  C   UNL     1       1.224   1.533  -0.001  0.00  0.00    +0.235 A 
ATOM      8  C   UNL     1       4.241   2.902   1.612  0.00  0.00    +0.090 C 
ATOM      9  C   UNL     1       3.991   2.333   3.011  0.00  0.00    +0.082 C 
ATOM     10  C   UNL     1       2.537   2.584   3.419  0.00  0.00    +0.141 C 
ATOM     11  C   UNL     1       4.263   0.827   2.996  0.00  0.00    +0.042 C 
ENDROOT
BRANCH   1  14
ATOM     12  C   UNL     1      -2.061   1.598   3.468  0.00  0.00    +0.162 A 
ATOM     13  C   UNL     1      -0.745   1.213   3.272  0.00  0.00    +0.053 A 
ATOM     14  C   UNL     1       0.176   2.123   2.788  0.00  0.00    -0.035 A 
ATOM     15  C   UNL     1      -0.211   3.419   2.504  0.00  0.00    +0.008 A 
ATOM     16  C   UNL     1      -1.524   3.808   2.693  0.00  0.00    +0.049 A 
ATOM     17  C   UNL     1      -2.453   2.901   3.178  0.00  0.00    +0.158 A 
BRANCH  17  18
ATOM     18  O   UNL     1      -3.744   3.284   3.369  0.00  0.00    -0.503 OA
ATOM     19  H   UNL     1      -3.923   3.637   4.251  0.00  0.00    +0.292 HD
ENDBRANCH  17  18
BRANCH  12  20
ATOM     20  O   UNL     1      -2.969   0.704   3.945  0.00  0.00    -0.489 OA
BRANCH  20  22
ATOM     21  C   UNL     1      -3.650  -1.472   4.745  0.00  0.00    +0.048 C 
ATOM     22  C   UNL     1      -2.496  -0.616   4.222  0.00  0.00    +0.226 C 
ENDBRANCH  20  22
ENDBRANCH  12  20
ENDBRANCH   1  14
BRANCH   7  23
ATOM     23  O   UNL     1      -0.011   0.963   0.007  0.00  0.00    -0.491 OA
ATOM     24  H   UNL     1      -0.321   0.824  -0.933  0.00  0.00    +0.294 HD
ENDBRANCH   7  23
BRANCH  10  25
ATOM     25  C   UNL     1       2.359   2.248   4.878  0.00  0.00    +0.314 C 
ATOM     26  O   UNL     1       1.573   1.393   5.209  0.00  0.00    -0.250 OA
BRANCH  25  27
ATOM     27  O   UNL     1       3.075   2.899   5.808  0.00  0.00    -0.468 OA
ATOM     28  C   UNL     1       2.853   2.524   7.193  0.00  0.00    +0.280 C 
ENDBRANCH  25  27
ENDBRANCH  10  25
BRANCH   9  29
ATOM     29  O   UNL     1       4.865   2.965   3.948  0.00  0.00    -0.388 OA
ATOM     30  H   UNL     1       5.804   2.847   3.751  0.00  0.00    +0.210 HD
ENDBRANCH   9  29
TORSDOF 8
