REMARK  Name = ZINC62477179
REMARK  11 active torsions:
REMARK  status: ('A' for Active; 'I' for Inactive)
REMARK    1  A    between atoms: C_1  and  C_2
REMARK    2  A    between atoms: C_2  and  N_3
REMARK    3  A    between atoms: C_11  and  C_12
REMARK    4  A    between atoms: C_12  and  N_13
REMARK    5  A    between atoms: N_13  and  C_14
REMARK    6  A    between atoms: N_17  and  C_18
REMARK    7  A    between atoms: C_18  and  C_19
REMARK    8  A    between atoms: C_18  and  C_20
REMARK    9  A    between atoms: C_20  and  C_21
REMARK   10  A    between atoms: C_21  and  C_22
REMARK   11  A    between atoms: C_25  and  O_28
REMARK                            x       y       z     vdW  Elec       q    Type
REMARK                         _______ _______ _______ _____ _____    ______ ____
ROOT
ATOM      1  N   UNL     1      -1.986  -1.748   2.793  0.00  0.00    -0.281 N 
ATOM      2  C   UNL     1      -2.067  -2.635   3.956  0.00  0.00    +0.134 C 
ATOM      3  C   UNL     1      -2.527  -2.126   1.618  0.00  0.00    +0.303 C 
ATOM      4  O   UNL     1      -2.481  -1.380   0.659  0.00  0.00    -0.253 OA
ATOM      5  N   UNL     1      -3.119  -3.331   1.506  0.00  0.00    -0.297 N 
ATOM      6  H   UNL     1      -3.156  -3.927   2.271  0.00  0.00    +0.151 HD
ENDROOT
BRANCH   5   7
ATOM      7  C   UNL     1      -3.707  -3.743   0.229  0.00  0.00    +0.072 C 
ATOM      8  C   UNL     1      -5.132  -3.196   0.124  0.00  0.00    +0.028 C 
BRANCH   7   9
ATOM      9  C   UNL     1      -3.740  -5.270   0.150  0.00  0.00    +0.026 C 
BRANCH   9  10
ATOM     10  C   UNL     1      -2.309  -5.811   0.130  0.00  0.00    +0.037 C 
BRANCH  10  11
ATOM     11  C   UNL     1      -2.341  -7.315   0.053  0.00  0.00    -0.047 A 
ATOM     12  C   UNL     1      -2.367  -8.065   1.214  0.00  0.00    +0.007 A 
ATOM     13  C   UNL     1      -2.396  -9.445   1.147  0.00  0.00    +0.045 A 
ATOM     14  C   UNL     1      -2.399 -10.077  -0.088  0.00  0.00    +0.117 A 
ATOM     15  C   UNL     1      -2.373  -9.323  -1.252  0.00  0.00    +0.045 A 
ATOM     16  C   UNL     1      -2.350  -7.943  -1.179  0.00  0.00    +0.007 A 
BRANCH  14  17
ATOM     17  O   UNL     1      -2.427 -11.434  -0.157  0.00  0.00    -0.507 OA
ATOM     18  H   UNL     1      -3.319 -11.808  -0.185  0.00  0.00    +0.292 HD
ENDBRANCH  14  17
ENDBRANCH  10  11
ENDBRANCH   9  10
ENDBRANCH   7   9
ENDBRANCH   5   7
BRANCH   1  19
ATOM     19  C   UNL     1      -1.318  -0.449   2.908  0.00  0.00    +0.183 C 
BRANCH  19  28
ATOM     20  N   UNL     1       0.831  -0.498   1.548  0.00  0.00    -0.327 N 
ATOM     21  C   UNL     1       2.168  -0.735   1.800  0.00  0.00    +0.069 A 
ATOM     22  C   UNL     1       3.313  -0.741   1.016  0.00  0.00    +0.028 A 
ATOM     23  C   UNL     1       4.533  -1.026   1.591  0.00  0.00    +0.002 A 
ATOM     24  C   UNL     1       4.623  -1.307   2.947  0.00  0.00    +0.002 A 
ATOM     25  C   UNL     1       3.506  -1.305   3.734  0.00  0.00    +0.030 A 
ATOM     26  C   UNL     1       2.259  -1.019   3.173  0.00  0.00    +0.089 A 
ATOM     27  N   UNL     1       1.001  -0.941   3.677  0.00  0.00    -0.231 NA
ATOM     28  C   UNL     1       0.167  -0.631   2.728  0.00  0.00    +0.128 A 
BRANCH  20  30
ATOM     29  C   UNL     1       0.140   1.362   0.118  0.00  0.00    +0.027 C 
ATOM     30  C   UNL     1       0.239  -0.159   0.251  0.00  0.00    +0.120 C 
ENDBRANCH  20  30
ENDBRANCH  19  28
ENDBRANCH   1  19
TORSDOF 8
