REMARK  Name = ZINC36028183
REMARK  11 active torsions:
REMARK  status: ('A' for Active; 'I' for Inactive)
REMARK    1  A    between atoms: C_1  and  C_2
REMARK    2  A    between atoms: C_2  and  C_3
REMARK    3  A    between atoms: C_3  and  C_5
REMARK    4  A    between atoms: C_3  and  C_6
REMARK    5  A    between atoms: C_6  and  N_7
REMARK    6  A    between atoms: C_10  and  C_30
REMARK    7  A    between atoms: N_16  and  S_19
REMARK    8  A    between atoms: S_19  and  C_22
REMARK    9  A    between atoms: C_30  and  C_32
REMARK   10  A    between atoms: C_30  and  C_33
REMARK   11  A    between atoms: C_33  and  C_34
REMARK                            x       y       z     vdW  Elec       q    Type
REMARK                         _______ _______ _______ _____ _____    ______ ____
ROOT
ATOM      1  N   UNL     1       1.700  -2.693  -2.159  0.00  0.00    -0.313 N 
ATOM      2  C   UNL     1       1.296  -3.092  -3.383  0.00  0.00    +0.201 C 
ATOM      3  O   UNL     1       0.166  -3.017  -3.816  0.00  0.00    -0.277 OA
ATOM      4  C   UNL     1       2.492  -3.649  -4.125  0.00  0.00    +0.022 C 
ATOM      5  N   UNL     1       3.506  -3.904  -3.072  0.00  0.00    +0.401 N 
ATOM      6  C   UNL     1       3.138  -2.936  -2.014  0.00  0.00    +0.006 C 
ATOM      7  C   UNL     1       3.438  -3.536  -0.642  0.00  0.00    +0.023 C 
ATOM      8  C   UNL     1       3.016  -2.546   0.449  0.00  0.00    +0.109 C 
ATOM      9  N   UNL     1       3.664  -1.253   0.190  0.00  0.00    -0.177 NA
ATOM     10  C   UNL     1       3.497  -0.629  -1.130  0.00  0.00    +0.109 C 
ATOM     11  C   UNL     1       3.915  -1.635  -2.207  0.00  0.00    +0.023 C 
ATOM     12  H   UNL     1       3.436  -4.851  -2.733  0.00  0.00    -0.082 HD
ATOM     13  H   UNL     1       4.434  -3.714  -3.418  0.00  0.00    -0.082 HD
ENDROOT
BRANCH   9  14
ATOM     14  S   UNL     1       4.568  -0.513   1.364  0.00  0.00    +0.062 S 
ATOM     15  O   UNL     1       4.437   0.887   1.156  0.00  0.00    -0.153 OA
ATOM     16  O   UNL     1       4.225  -1.136   2.594  0.00  0.00    -0.153 OA
BRANCH  14  17
ATOM     17  C   UNL     1       6.256  -0.912   1.051  0.00  0.00    +0.125 A 
ATOM     18  C   UNL     1       7.138   0.077   0.654  0.00  0.00    +0.030 A 
ATOM     19  C   UNL     1       8.462  -0.235   0.408  0.00  0.00    +0.003 A 
ATOM     20  C   UNL     1       8.905  -1.536   0.558  0.00  0.00    +0.021 A 
ATOM     21  C   UNL     1       8.025  -2.526   0.955  0.00  0.00    +0.061 A 
ATOM     22  C   UNL     1       6.699  -2.212   1.207  0.00  0.00    +0.086 A 
ATOM     23 CL   UNL     1       5.594  -3.452   1.712  0.00  0.00    -0.080 Cl
ATOM     24 CL   UNL     1       8.581  -4.159   1.143  0.00  0.00    -0.082 Cl
ENDBRANCH  14  17
ENDBRANCH   9  14
BRANCH   4  25
ATOM     25  C   UNL     1       2.120  -4.951  -4.835  0.00  0.00    -0.020 C 
ATOM     26  C   UNL     1       1.501  -5.923  -3.828  0.00  0.00    +0.006 C 
BRANCH  25  27
ATOM     27  C   UNL     1       1.109  -4.656  -5.946  0.00  0.00    -0.001 C 
ATOM     28  C   UNL     1       0.831  -5.936  -6.736  0.00  0.00    +0.004 C 
ENDBRANCH  25  27
ENDBRANCH   4  25
BRANCH   1  29
ATOM     29  C   UNL     1       0.835  -2.103  -1.134  0.00  0.00    +0.109 C 
BRANCH  29  30
ATOM     30  C   UNL     1      -0.004  -3.203  -0.480  0.00  0.00    +0.003 C 
ATOM     31  C   UNL     1       0.906  -4.358  -0.060  0.00  0.00    +0.009 C 
BRANCH  30  33
ATOM     32  C   UNL     1      -1.649  -3.700   1.334  0.00  0.00    +0.004 C 
ATOM     33  C   UNL     1      -0.713  -2.638   0.753  0.00  0.00    +0.001 C 
ENDBRANCH  30  33
ENDBRANCH  29  30
ENDBRANCH   1  29
TORSDOF 7
