REMARK  Name = ZINC37701065
REMARK  6 active torsions:
REMARK  status: ('A' for Active; 'I' for Inactive)
REMARK    1  A    between atoms: C_3  and  C_11
REMARK    2  A    between atoms: C_6  and  N_7
REMARK    3  A    between atoms: C_11  and  O_12
REMARK    4  A    between atoms: O_12  and  C_13
REMARK    5  A    between atoms: C_18  and  C_19
REMARK    6  A    between atoms: C_19  and  N_20
REMARK                            x       y       z     vdW  Elec       q    Type
REMARK                         _______ _______ _______ _____ _____    ______ ____
ROOT
ATOM      1  O   UNL     1       3.391   3.585  -0.012  0.00  0.00    -0.487 OA
ENDROOT
BRANCH   1   2
ATOM      2  C   UNL     1       4.457   4.428  -0.018  0.00  0.00    +0.122 A 
ATOM      3  C   UNL     1       5.747   3.917  -0.039  0.00  0.00    +0.047 A 
ATOM      4  C   UNL     1       6.829   4.775  -0.045  0.00  0.00    +0.023 A 
ATOM      5  C   UNL     1       6.627   6.144  -0.030  0.00  0.00    +0.041 A 
ATOM      6  C   UNL     1       5.342   6.656  -0.009  0.00  0.00    +0.025 A 
ATOM      7  C   UNL     1       4.257   5.800  -0.009  0.00  0.00    -0.022 A 
ATOM      8 CL   UNL     1       7.989   7.221  -0.037  0.00  0.00    -0.084 Cl
BRANCH   7   9
ATOM      9  C   UNL     1       2.857   6.358   0.007  0.00  0.00    -0.047 C 
BRANCH   9  10
ATOM     10  N   UNL     1       2.326   6.309   1.375  0.00  0.00    +0.381 N 
ATOM     11  H   UNL     1       1.389   6.683   1.386  0.00  0.00    -0.090 HD
ATOM     12  H   UNL     1       2.311   5.353   1.696  0.00  0.00    -0.090 HD
ATOM     13  H   UNL     1       2.914   6.859   1.984  0.00  0.00    -0.090 HD
ENDBRANCH   9  10
ENDBRANCH   7   9
ENDBRANCH   1   2
BRANCH   1  14
ATOM     14  C   UNL     1       3.672   2.184  -0.022  0.00  0.00    +0.265 C 
BRANCH  14  17
ATOM     15  C   UNL     1      -0.017   1.378   0.010  0.00  0.00    +0.033 A 
ATOM     16  C   UNL     1       1.171   2.086   0.002  0.00  0.00    +0.010 A 
ATOM     17  C   UNL     1       2.377   1.412  -0.013  0.00  0.00    +0.004 A 
ATOM     18  C   UNL     1       2.397   0.029  -0.021  0.00  0.00    +0.026 A 
ATOM     19  C   UNL     1       1.208  -0.679  -0.013  0.00  0.00    +0.048 A 
ATOM     20  C   UNL     1       0.002  -0.004   0.002  0.00  0.00    +0.127 A 
ATOM     21 BR   UNL     1       4.047  -0.894  -0.042  0.00  0.00    -0.050 Br
BRANCH  20  22
ATOM     22  N   UNL     1      -1.270  -0.761   0.010  0.00  0.00    +0.056 N 
ATOM     23  O   UNL     1      -2.325  -0.171   0.023  0.00  0.00    -0.126 OA
ATOM     24  O   UNL     1      -1.253  -1.970   0.004  0.00  0.00    -0.126 OA
ENDBRANCH  20  22
ENDBRANCH  14  17
ENDBRANCH   1  14
TORSDOF 6
