REMARK  Name = ZINC50534284
REMARK  8 active torsions:
REMARK  status: ('A' for Active; 'I' for Inactive)
REMARK    1  A    between atoms: C_1  and  C_2
REMARK    2  A    between atoms: C_4  and  C_27
REMARK    3  A    between atoms: C_5  and  S_9
REMARK    4  A    between atoms: C_6  and  C_8
REMARK    5  A    between atoms: S_9  and  N_12
REMARK    6  A    between atoms: N_12  and  C_13
REMARK    7  A    between atoms: C_17  and  C_19
REMARK    8  A    between atoms: C_19  and  N_20
REMARK                            x       y       z     vdW  Elec       q    Type
REMARK                         _______ _______ _______ _____ _____    ______ ____
ROOT
ATOM      1  N   UNL     1       0.789  -6.051  -0.437  0.00  0.00    -0.216 N 
ATOM      2  H   UNL     1       0.800  -6.566  -1.260  0.00  0.00    +0.174 HD
ENDROOT
BRANCH   1   3
ATOM      3  C   UNL     1       1.918  -6.023   0.385  0.00  0.00    +0.048 A 
ATOM      4  C   UNL     1       2.384  -4.814   0.886  0.00  0.00    +0.024 A 
ATOM      5  C   UNL     1       3.500  -4.790   1.699  0.00  0.00    +0.002 A 
ATOM      6  C   UNL     1       4.154  -5.968   2.014  0.00  0.00    +0.005 A 
ATOM      7  C   UNL     1       3.692  -7.173   1.517  0.00  0.00    -0.028 A 
ATOM      8  C   UNL     1       2.573  -7.205   0.708  0.00  0.00    +0.029 A 
BRANCH   7   9
ATOM      9  C   UNL     1       4.408  -8.453   1.862  0.00  0.00    +0.143 C 
BRANCH   9  10
ATOM     10  N   UNL     1       3.834  -9.018   3.086  0.00  0.00    -0.297 N 
ATOM     11  C   UNL     1       4.412  -8.613   4.362  0.00  0.00    +0.108 C 
ATOM     12  C   UNL     1       3.437  -8.898   5.505  0.00  0.00    +0.019 C 
ATOM     13  C   UNL     1       2.962 -10.351   5.395  0.00  0.00    +0.011 C 
ATOM     14  C   UNL     1       2.104 -10.486   4.134  0.00  0.00    +0.096 C 
ATOM     15  C   UNL     1       2.813  -9.867   2.964  0.00  0.00    +0.216 C 
ATOM     16  O   UNL     1       2.440 -10.159   1.847  0.00  0.00    -0.276 OA
ENDBRANCH   9  10
ENDBRANCH   7   9
ENDBRANCH   1   3
BRANCH   1  17
ATOM     17  S   UNL     1      -0.569  -5.207  -0.008  0.00  0.00    +0.073 S 
ATOM     18  O   UNL     1      -0.794  -5.472   1.370  0.00  0.00    -0.150 OA
ATOM     19  O   UNL     1      -1.546  -5.475  -1.004  0.00  0.00    -0.150 OA
BRANCH  17  24
ATOM     20  C   UNL     1       0.772   0.660  -0.440  0.00  0.00    +0.044 C 
ATOM     21  C   UNL     1       0.437  -0.805  -0.332  0.00  0.00    -0.050 A 
ATOM     22  C   UNL     1       0.457  -1.430   0.901  0.00  0.00    +0.008 A 
ATOM     23  C   UNL     1       0.149  -2.774   1.000  0.00  0.00    -0.023 A 
ATOM     24  C   UNL     1      -0.179  -3.493  -0.134  0.00  0.00    +0.114 A 
ATOM     25  C   UNL     1      -0.199  -2.868  -1.367  0.00  0.00    -0.023 A 
ATOM     26  C   UNL     1       0.104  -1.523  -1.465  0.00  0.00    +0.008 A 
ATOM     27  C   UNL     1      -0.556  -3.653  -2.603  0.00  0.00    +0.046 C 
ATOM     28  C   UNL     1       0.172  -3.455   2.344  0.00  0.00    +0.046 C 
ENDBRANCH  17  24
ENDBRANCH   1  17
TORSDOF 5
