REMARK  Name = ZINC16024707
REMARK  3 active torsions:
REMARK  status: ('A' for Active; 'I' for Inactive)
REMARK    1  A    between atoms: C_4  and  C_7
REMARK    2  A    between atoms: C_7  and  C_8
REMARK    3  A    between atoms: C_8  and  N_9
REMARK                            x       y       z     vdW  Elec       q    Type
REMARK                         _______ _______ _______ _____ _____    ______ ____
ROOT
ATOM      1  N   UNL     1       5.450  -1.678   1.382  0.00  0.00    -0.241 N 
ATOM      2  C   UNL     1       5.554  -3.040   1.368  0.00  0.00    +0.224 C 
ATOM      3  O   UNL     1       4.683  -3.838   1.095  0.00  0.00    -0.275 OA
ATOM      4  C   UNL     1       6.974  -3.346   1.761  0.00  0.00    +0.073 C 
ATOM      5  C   UNL     1       7.744  -4.428   0.994  0.00  0.00    -0.054 C 
ATOM      6  C   UNL     1       7.771  -5.726   1.818  0.00  0.00    -0.016 C 
ATOM      7  C   UNL     1       9.238  -5.900   2.269  0.00  0.00    -0.020 C 
ATOM      8  C   UNL     1       9.796  -4.458   2.194  0.00  0.00    -0.076 C 
ATOM      9  N   UNL     1       9.148  -3.886   0.982  0.00  0.00    +0.395 N 
ATOM     10  C   UNL     1       9.056  -2.401   1.081  0.00  0.00    +0.053 C 
ATOM     11  C   UNL     1       7.615  -2.093   1.039  0.00  0.00    +0.088 C 
ATOM     12  C   UNL     1       6.671  -1.052   1.372  0.00  0.00    +0.225 C 
ATOM     13  O   UNL     1       6.906   0.116   1.596  0.00  0.00    -0.275 OA
ATOM     14  C   UNL     1       9.730  -1.888   2.325  0.00  0.00    -0.026 A 
ATOM     15  C   UNL     1       9.455  -1.998   3.671  0.00  0.00    +0.019 A 
ATOM     16  C   UNL     1      10.284  -1.402   4.604  0.00  0.00    +0.018 A 
ATOM     17  C   UNL     1      11.389  -0.681   4.184  0.00  0.00    +0.017 A 
ATOM     18  C   UNL     1      11.656  -0.547   2.838  0.00  0.00    +0.024 A 
ATOM     19  C   UNL     1      10.821  -1.140   1.893  0.00  0.00    +0.036 A 
ATOM     20  N   UNL     1      10.864  -1.109   0.498  0.00  0.00    -0.286 N 
ATOM     21  C   UNL     1       9.855  -1.801  -0.056  0.00  0.00    +0.212 C 
ATOM     22  O   UNL     1       9.628  -1.923  -1.242  0.00  0.00    -0.277 OA
ATOM     23 BR   UNL     1       9.910  -1.573   6.450  0.00  0.00    -0.050 Br
ATOM     24  H   UNL     1      11.544  -0.641  -0.012  0.00  0.00    +0.155 HD
ATOM     25  H   UNL     1       9.634  -4.168   0.143  0.00  0.00    -0.079 HD
ENDROOT
BRANCH   1  26
ATOM     26  C   UNL     1       4.171  -0.963   1.399  0.00  0.00    +0.121 C 
BRANCH  26  27
ATOM     27  C   UNL     1       3.711  -0.707  -0.038  0.00  0.00    +0.054 C 
BRANCH  27  31
ATOM     28  C   UNL     1      -0.017   1.378   0.010  0.00  0.00    +0.000 A 
ATOM     29  C   UNL     1       1.171   2.086   0.002  0.00  0.00    +0.000 A 
ATOM     30  C   UNL     1       2.377   1.411  -0.013  0.00  0.00    +0.004 A 
ATOM     31  C   UNL     1       2.396   0.029  -0.020  0.00  0.00    -0.046 A 
ATOM     32  C   UNL     1       1.208  -0.679  -0.012  0.00  0.00    +0.004 A 
ATOM     33  C   UNL     1       0.002  -0.004   0.002  0.00  0.00    +0.000 A 
ENDBRANCH  27  31
ENDBRANCH  26  27
ENDBRANCH   1  26
TORSDOF 3
