REMARK  Name = ZINC38615054
REMARK  14 active torsions:
REMARK  status: ('A' for Active; 'I' for Inactive)
REMARK    1  A    between atoms: C_1  and  C_2
REMARK    2  A    between atoms: C_5  and  C_32
REMARK    3  A    between atoms: C_6  and  O_8
REMARK    4  A    between atoms: O_8  and  C_9
REMARK    5  A    between atoms: C_9  and  C_11
REMARK    6  A    between atoms: C_9  and  C_12
REMARK    7  A    between atoms: N_14  and  C_15
REMARK    8  A    between atoms: C_15  and  C_16
REMARK    9  A    between atoms: C_16  and  C_18
REMARK   10  A    between atoms: C_16  and  N_26
REMARK   11  A    between atoms: C_21  and  O_24
REMARK   12  A    between atoms: O_24  and  C_25
REMARK   13  A    between atoms: C_32  and  C_33
REMARK   14  A    between atoms: C_32  and  C_34
REMARK                            x       y       z     vdW  Elec       q    Type
REMARK                         _______ _______ _______ _____ _____    ______ ____
ROOT
ATOM      1  C   UNL     1      -0.199  -2.849   4.782  0.00  0.00    +0.253 C 
ATOM      2  O   UNL     1      -0.602  -3.977   4.593  0.00  0.00    -0.272 OA
ATOM      3  N   UNL     1      -0.373  -2.264   5.984  0.00  0.00    -0.314 N 
ATOM      4  H   UNL     1      -0.050  -1.362   6.135  0.00  0.00    +0.149 HD
ENDROOT
BRANCH   1   5
ATOM      5  C   UNL     1       0.498  -2.102   3.674  0.00  0.00    +0.255 C 
ATOM      6  C   UNL     1       1.954  -1.848   4.067  0.00  0.00    +0.062 C 
BRANCH   5   7
ATOM      7  O   UNL     1       0.457  -2.880   2.476  0.00  0.00    -0.480 OA
BRANCH   7  13
ATOM      8  C   UNL     1       0.835   1.364   0.095  0.00  0.00    +0.044 C 
ATOM      9  C   UNL     1       0.739  -0.140   0.099  0.00  0.00    -0.047 A 
ATOM     10  C   UNL     1       0.747  -0.836  -1.095  0.00  0.00    +0.004 A 
ATOM     11  C   UNL     1       0.659  -2.216  -1.095  0.00  0.00    +0.008 A 
ATOM     12  C   UNL     1       0.562  -2.903   0.100  0.00  0.00    -0.003 A 
ATOM     13  C   UNL     1       0.553  -2.207   1.300  0.00  0.00    +0.125 A 
ATOM     14  C   UNL     1       0.647  -0.823   1.297  0.00  0.00    +0.049 A 
BRANCH  12  15
ATOM     15  C   UNL     1       0.465  -4.407   0.099  0.00  0.00    +0.016 C 
ATOM     16  C   UNL     1      -0.782  -4.837  -0.677  0.00  0.00    +0.012 C 
ATOM     17  C   UNL     1       1.709  -4.998  -0.566  0.00  0.00    +0.012 C 
ENDBRANCH  12  15
ENDBRANCH   7  13
ENDBRANCH   5   7
ENDBRANCH   1   5
BRANCH   3  18
ATOM     18  C   UNL     1      -1.050  -2.990   7.061  0.00  0.00    +0.093 C 
BRANCH  18  19
ATOM     19  C   UNL     1      -1.234  -2.063   8.264  0.00  0.00    -0.020 C 
BRANCH  19  20
ATOM     20  N   UNL     1      -1.814  -2.820   9.382  0.00  0.00    +0.385 N 
ATOM     21  C   UNL     1      -2.042  -1.917  10.516  0.00  0.00    -0.078 C 
ATOM     22  C   UNL     1      -2.720  -2.683  11.654  0.00  0.00    -0.019 C 
ATOM     23  C   UNL     1      -1.817  -3.838  12.094  0.00  0.00    -0.004 C 
ATOM     24  C   UNL     1      -1.525  -4.733  10.885  0.00  0.00    -0.019 C 
ATOM     25  C   UNL     1      -0.891  -3.891   9.776  0.00  0.00    -0.078 C 
ATOM     26  H   UNL     1      -2.692  -3.224   9.093  0.00  0.00    -0.081 HD
ENDBRANCH  19  20
BRANCH  19  27
ATOM     27  C   UNL     1      -2.158  -0.933   7.890  0.00  0.00    -0.059 A 
ATOM     28  C   UNL     1      -3.526  -1.133   7.885  0.00  0.00    +0.005 A 
ATOM     29  C   UNL     1      -4.375  -0.098   7.542  0.00  0.00    +0.046 A 
ATOM     30  C   UNL     1      -3.854   1.142   7.203  0.00  0.00    +0.120 A 
ATOM     31  C   UNL     1      -2.481   1.340   7.210  0.00  0.00    +0.046 A 
ATOM     32  C   UNL     1      -1.636   0.304   7.559  0.00  0.00    +0.005 A 
BRANCH  30  33
ATOM     33  O   UNL     1      -4.687   2.161   6.865  0.00  0.00    -0.495 OA
ATOM     34  C   UNL     1      -4.080   3.410   6.528  0.00  0.00    +0.277 C 
ENDBRANCH  30  33
ENDBRANCH  19  27
ENDBRANCH  18  19
ENDBRANCH   3  18
TORSDOF 9
