REMARK  Name = ZINC09370179
REMARK  8 active torsions:
REMARK  status: ('A' for Active; 'I' for Inactive)
REMARK    1  A    between atoms: C_1  and  C_2
REMARK    2  A    between atoms: C_2  and  C_4
REMARK    3  A    between atoms: C_7  and  N_10
REMARK    4  A    between atoms: C_11  and  C_13
REMARK    5  A    between atoms: C_13  and  S_14
REMARK    6  A    between atoms: S_14  and  C_15
REMARK    7  A    between atoms: C_16  and  C_37
REMARK    8  A    between atoms: C_17  and  C_28
REMARK                            x       y       z     vdW  Elec       q    Type
REMARK                         _______ _______ _______ _____ _____    ______ ____
ROOT
ATOM      1  C   UNL     1      -2.449   5.202   1.682  0.00  0.00    +0.093 C 
ATOM      2  C   UNL     1      -3.173   5.221   0.524  0.00  0.00    +0.158 C 
ATOM      3  C   UNL     1      -3.029   4.093  -0.462  0.00  0.00    +0.077 C 
ATOM      4  C   UNL     1      -2.752   2.792   0.295  0.00  0.00    +0.025 C 
ATOM      5  C   UNL     1      -1.687   3.044   1.343  0.00  0.00    +0.049 C 
ATOM      6  N   UNL     1      -1.598   4.175   1.946  0.00  0.00    -0.248 NA
ATOM      7  C   UNL     1      -0.733   1.919   1.653  0.00  0.00    +0.056 C 
ATOM      8  C   UNL     1      -1.542   0.730   2.272  0.00  0.00    +0.014 C 
ATOM      9  C   UNL     1      -2.026   0.380   0.871  0.00  0.00    +0.080 C 
ATOM     10  C   UNL     1      -3.118   1.323   0.426  0.00  0.00    +0.162 C 
ATOM     11  O   UNL     1      -4.233   0.927   0.185  0.00  0.00    -0.292 OA
ENDROOT
BRANCH   3  12
ATOM     12  C   UNL     1      -1.880   4.389  -1.391  0.00  0.00    -0.034 A 
ATOM     13  C   UNL     1      -0.721   4.955  -0.896  0.00  0.00    +0.008 A 
ATOM     14  C   UNL     1       0.338   5.224  -1.744  0.00  0.00    +0.050 A 
ATOM     15  C   UNL     1       0.234   4.936  -3.095  0.00  0.00    +0.166 A 
ATOM     16  C   UNL     1      -0.936   4.370  -3.595  0.00  0.00    +0.167 A 
ATOM     17  C   UNL     1      -1.991   4.099  -2.739  0.00  0.00    +0.053 A 
ATOM     18  O   UNL     1      -0.792   4.185  -4.940  0.00  0.00    -0.453 OA
ATOM     19  C   UNL     1       0.624   4.263  -5.188  0.00  0.00    +0.466 C 
ATOM     20  O   UNL     1       1.112   5.105  -4.127  0.00  0.00    -0.453 OA
ENDBRANCH   3  12
BRANCH   2  21
ATOM     21  C   UNL     1      -4.067   6.305   0.252  0.00  0.00    +0.074 C 
ATOM     22  N   UNL     1      -4.777   7.166   0.036  0.00  0.00    -0.196 NA
ENDBRANCH   2  21
BRANCH   1  23
ATOM     23  S   UNL     1      -2.619   6.517   2.842  0.00  0.00    -0.100 S 
BRANCH  23  24
ATOM     24  C   UNL     1      -1.462   5.962   4.119  0.00  0.00    +0.171 C 
BRANCH  24  26
ATOM     25  N   UNL     1      -0.645   6.756   6.314  0.00  0.00    -0.285 N 
ATOM     26  C   UNL     1      -1.440   6.963   5.246  0.00  0.00    +0.227 C 
ATOM     27  O   UNL     1      -2.138   7.953   5.191  0.00  0.00    -0.275 OA
ATOM     28  H   UNL     1      -0.143   5.930   6.393  0.00  0.00    +0.155 HD
BRANCH  25  32
ATOM     29  C   UNL     1      -0.342   9.665   9.273  0.00  0.00    +0.017 A 
ATOM     30  C   UNL     1      -0.529  10.040   7.936  0.00  0.00    +0.013 A 
ATOM     31  C   UNL     1      -0.628   9.078   6.965  0.00  0.00    +0.024 A 
ATOM     32  C   UNL     1      -0.543   7.730   7.305  0.00  0.00    +0.033 A 
ATOM     33  C   UNL     1      -0.363   7.353   8.633  0.00  0.00    +0.024 A 
ATOM     34  C   UNL     1      -0.257   8.309   9.611  0.00  0.00    +0.013 A 
BRANCH  29  36
ATOM     35  C   UNL     1      -0.034  10.287  11.755  0.00  0.00    +0.091 C 
ATOM     36  C   UNL     1      -0.235  10.692  10.317  0.00  0.00    +0.160 C 
ATOM     37  O   UNL     1      -0.308  11.866  10.023  0.00  0.00    -0.292 OA
ENDBRANCH  29  36
ENDBRANCH  25  32
ENDBRANCH  24  26
ENDBRANCH  23  24
ENDBRANCH   1  23
TORSDOF 7
