REMARK  Name = ZINC09296314
REMARK  7 active torsions:
REMARK  status: ('A' for Active; 'I' for Inactive)
REMARK    1  A    between atoms: C_1  and  C_2
REMARK    2  A    between atoms: C_9  and  N_31
REMARK    3  A    between atoms: C_10  and  C_29
REMARK    4  A    between atoms: C_11  and  C_13
REMARK    5  A    between atoms: C_16  and  O_20
REMARK    6  A    between atoms: O_20  and  C_21
REMARK    7  A    between atoms: C_21  and  C_22
REMARK                            x       y       z     vdW  Elec       q    Type
REMARK                         _______ _______ _______ _____ _____    ______ ____
ROOT
ATOM      1  C   UNL     1      -0.018   1.503   0.010  0.00  0.00    +0.068 C 
ATOM      2  C   UNL     1       0.002  -0.004   0.002  0.00  0.00    +0.068 A 
ATOM      3  C   UNL     1       0.008  -0.813  -1.126  0.00  0.00    +0.049 A 
ATOM      4  C   UNL     1       0.028  -2.116  -0.713  0.00  0.00    +0.222 A 
ATOM      5  N   UNL     1       0.033  -2.116   0.629  0.00  0.00    -0.246 N 
ATOM      6  H   UNL     1       0.046  -2.900   1.201  0.00  0.00    +0.192 HD
ATOM      7  N   UNL     1       0.023  -0.780   1.060  0.00  0.00    -0.176 NA
ATOM      8  O   UNL     1       0.042  -3.159  -1.580  0.00  0.00    -0.423 OA
ATOM      9  C   UNL     1       0.311  -2.892  -2.874  0.00  0.00    +0.200 C 
ATOM     10  C   UNL     1       0.309  -1.648  -3.402  0.00  0.00    +0.098 C 
ATOM     11  C   UNL     1      -0.005  -0.421  -2.581  0.00  0.00    +0.101 C 
ENDROOT
BRANCH  11  12
ATOM     12  C   UNL     1      -1.367   0.105  -2.954  0.00  0.00    -0.033 A 
ATOM     13  C   UNL     1      -2.481  -0.702  -2.814  0.00  0.00    +0.008 A 
ATOM     14  C   UNL     1      -3.731  -0.223  -3.155  0.00  0.00    +0.047 A 
ATOM     15  C   UNL     1      -3.868   1.070  -3.639  0.00  0.00    +0.139 A 
ATOM     16  C   UNL     1      -2.749   1.879  -3.779  0.00  0.00    +0.083 A 
ATOM     17  C   UNL     1      -1.501   1.396  -3.431  0.00  0.00    +0.028 A 
ATOM     18 CL   UNL     1      -2.916   3.498  -4.383  0.00  0.00    -0.080 Cl
BRANCH  15  19
ATOM     19  O   UNL     1      -5.097   1.544  -3.975  0.00  0.00    -0.486 OA
BRANCH  19  20
ATOM     20  C   UNL     1      -6.204   0.656  -3.806  0.00  0.00    +0.267 C 
BRANCH  20  21
ATOM     21  C   UNL     1      -7.473   1.349  -4.227  0.00  0.00    +0.025 A 
ATOM     22  C   UNL     1      -7.429   2.649  -4.695  0.00  0.00    +0.010 A 
ATOM     23  C   UNL     1      -8.593   3.286  -5.082  0.00  0.00    +0.001 A 
ATOM     24  C   UNL     1      -9.804   2.623  -5.001  0.00  0.00    +0.003 A 
ATOM     25  C   UNL     1      -9.851   1.323  -4.534  0.00  0.00    +0.039 A 
ATOM     26  C   UNL     1      -8.684   0.683  -4.152  0.00  0.00    +0.130 A 
ATOM     27  F   UNL     1      -8.729  -0.589  -3.699  0.00  0.00    -0.205 F 
ENDBRANCH  20  21
ENDBRANCH  19  20
ENDBRANCH  15  19
ENDBRANCH  11  12
BRANCH   9  28
ATOM     28  N   UNL     1       0.605  -3.945  -3.704  0.00  0.00    -0.328 N 
ATOM     29  H   UNL     1       0.615  -4.850  -3.354  0.00  0.00    +0.145 HD
ATOM     30  H   UNL     1       0.803  -3.785  -4.640  0.00  0.00    +0.145 HD
ENDBRANCH   9  28
BRANCH  10  31
ATOM     31  C   UNL     1       0.616  -1.487  -4.791  0.00  0.00    +0.101 C 
ATOM     32  N   UNL     1       0.860  -1.360  -5.894  0.00  0.00    -0.191 NA
ENDBRANCH  10  31
TORSDOF 6
