REMARK  Name = ZINC36024458
REMARK  9 active torsions:
REMARK  status: ('A' for Active; 'I' for Inactive)
REMARK    1  A    between atoms: C_1  and  C_2
REMARK    2  A    between atoms: C_2  and  C_3
REMARK    3  A    between atoms: C_3  and  C_5
REMARK    4  A    between atoms: C_3  and  C_6
REMARK    5  A    between atoms: N_10  and  C_28
REMARK    6  A    between atoms: N_15  and  S_18
REMARK    7  A    between atoms: S_18  and  C_21
REMARK    8  A    between atoms: C_24  and  C_27
REMARK    9  A    between atoms: C_28  and  C_29
REMARK                            x       y       z     vdW  Elec       q    Type
REMARK                         _______ _______ _______ _____ _____    ______ ____
ROOT
ATOM      1  C   UNL     1       1.293  -2.327  -2.038  0.00  0.00    +0.022 C 
ATOM      2  C   UNL     1       1.790  -2.633  -0.642  0.00  0.00    +0.201 C 
ATOM      3  O   UNL     1       1.341  -2.174   0.387  0.00  0.00    -0.277 OA
ATOM      4  N   UNL     1       2.817  -3.503  -0.735  0.00  0.00    -0.309 N 
ATOM      5  C   UNL     1       3.058  -3.828  -2.143  0.00  0.00    +0.006 C 
ATOM      6  N   UNL     1       2.382  -2.778  -2.938  0.00  0.00    +0.401 N 
ATOM      7  C   UNL     1       4.556  -3.816  -2.440  0.00  0.00    +0.023 C 
ATOM      8  C   UNL     1       5.252  -4.882  -1.586  0.00  0.00    +0.109 C 
ATOM      9  N   UNL     1       4.592  -6.175  -1.814  0.00  0.00    -0.177 NA
ATOM     10  C   UNL     1       3.137  -6.269  -1.627  0.00  0.00    +0.109 C 
ATOM     11  C   UNL     1       2.460  -5.192  -2.481  0.00  0.00    +0.023 C 
ATOM     12  H   UNL     1       2.004  -3.162  -3.791  0.00  0.00    -0.082 HD
ATOM     13  H   UNL     1       3.017  -2.019  -3.137  0.00  0.00    -0.082 HD
ENDROOT
BRANCH   9  14
ATOM     14  S   UNL     1       5.471  -7.501  -2.274  0.00  0.00    +0.061 S 
ATOM     15  O   UNL     1       4.568  -8.377  -2.936  0.00  0.00    -0.153 OA
ATOM     16  O   UNL     1       6.650  -7.010  -2.896  0.00  0.00    -0.153 OA
BRANCH  14  17
ATOM     17  C   UNL     1       5.982  -8.323  -0.802  0.00  0.00    +0.105 A 
ATOM     18  C   UNL     1       7.180  -7.985  -0.202  0.00  0.00    +0.029 A 
ATOM     19  C   UNL     1       7.581  -8.630   0.953  0.00  0.00    +0.005 A 
ATOM     20  C   UNL     1       6.783  -9.613   1.508  0.00  0.00    -0.050 A 
ATOM     21  C   UNL     1       5.584  -9.950   0.909  0.00  0.00    +0.005 A 
ATOM     22  C   UNL     1       5.181  -9.302  -0.244  0.00  0.00    +0.029 A 
ATOM     23  C   UNL     1       7.221 -10.317   2.767  0.00  0.00    +0.044 C 
ENDBRANCH  14  17
ENDBRANCH   9  14
BRANCH   1  24
ATOM     24  C   UNL     1       1.054  -0.825  -2.201  0.00  0.00    -0.020 C 
ATOM     25  C   UNL     1       0.623  -0.531  -3.640  0.00  0.00    +0.006 C 
BRANCH  24  27
ATOM     26  C   UNL     1      -0.199   1.145  -1.311  0.00  0.00    +0.004 C 
ATOM     27  C   UNL     1      -0.046  -0.376  -1.237  0.00  0.00    -0.001 C 
ENDBRANCH  24  27
ENDBRANCH   1  24
BRANCH   4  28
ATOM     28  C   UNL     1       3.575  -4.041   0.398  0.00  0.00    +0.141 C 
BRANCH  28  29
ATOM     29  C   UNL     1       4.593  -3.026   0.849  0.00  0.00    -0.030 A 
ATOM     30  C   UNL     1       5.665  -2.713   0.033  0.00  0.00    +0.008 A 
ATOM     31  C   UNL     1       6.599  -1.782   0.445  0.00  0.00    +0.038 A 
ATOM     32  C   UNL     1       6.461  -1.161   1.675  0.00  0.00    +0.123 A 
ATOM     33  C   UNL     1       5.387  -1.474   2.491  0.00  0.00    +0.038 A 
ATOM     34  C   UNL     1       4.452  -2.402   2.075  0.00  0.00    +0.008 A 
ATOM     35  F   UNL     1       7.374  -0.251   2.079  0.00  0.00    -0.205 F 
ENDBRANCH  28  29
ENDBRANCH   4  28
TORSDOF 6
