REMARK  Name = ZINC66934514
REMARK  6 active torsions:
REMARK  status: ('A' for Active; 'I' for Inactive)
REMARK    1  A    between atoms: C_1  and  C_2
REMARK    2  A    between atoms: C_4  and  N_26
REMARK    3  A    between atoms: C_7  and  S_8
REMARK    4  A    between atoms: S_8  and  N_11
REMARK    5  A    between atoms: C_13  and  C_20
REMARK    6  A    between atoms: C_17  and  C_19
REMARK                            x       y       z     vdW  Elec       q    Type
REMARK                         _______ _______ _______ _____ _____    ______ ____
ROOT
ATOM      1  S   UNL     1       0.088   0.439   3.107  0.00  0.00    +0.061 S 
ATOM      2  O   UNL     1       0.378  -0.944   3.256  0.00  0.00    -0.153 OA
ATOM      3  O   UNL     1      -0.586   0.958   1.970  0.00  0.00    -0.153 OA
ENDROOT
BRANCH   1  10
ATOM      4  C   UNL     1       0.757  -0.348   5.950  0.00  0.00    +0.046 C 
ATOM      5  C   UNL     1      -0.476   0.500   5.777  0.00  0.00    -0.022 A 
ATOM      6  C   UNL     1      -1.219   0.873   6.882  0.00  0.00    +0.038 A 
ATOM      7  C   UNL     1      -2.350   1.651   6.723  0.00  0.00    +0.127 A 
ATOM      8  C   UNL     1      -2.739   2.056   5.460  0.00  0.00    +0.034 A 
ATOM      9  C   UNL     1      -1.996   1.684   4.355  0.00  0.00    +0.031 A 
ATOM     10  C   UNL     1      -0.862   0.909   4.515  0.00  0.00    +0.109 A 
BRANCH   7  11
ATOM     11  N   UNL     1      -3.146   2.050   7.906  0.00  0.00    +0.056 N 
ATOM     12  O   UNL     1      -2.807   1.696   9.010  0.00  0.00    -0.126 OA
ATOM     13  O   UNL     1      -4.136   2.731   7.767  0.00  0.00    -0.126 OA
ENDBRANCH   7  11
ENDBRANCH   1  10
BRANCH   1  14
ATOM     14  N   UNL     1       1.536   1.238   3.205  0.00  0.00    -0.169 NA
ATOM     15  C   UNL     1       2.736   0.569   3.731  0.00  0.00    +0.146 C 
ATOM     16  C   UNL     1       3.360   1.468   4.804  0.00  0.00    +0.164 C 
ATOM     17  O   UNL     1       3.547   2.780   4.269  0.00  0.00    -0.369 OA
ATOM     18  C   UNL     1       2.335   3.436   3.889  0.00  0.00    +0.181 C 
ATOM     19  C   UNL     1       1.661   2.636   2.763  0.00  0.00    +0.102 C 
ATOM     20  C   UNL     1       0.272   3.213   2.480  0.00  0.00    +0.028 C 
BRANCH  16  21
ATOM     21  C   UNL     1       4.691   0.900   5.226  0.00  0.00    -0.018 A 
ATOM     22  C   UNL     1       5.831   1.205   4.506  0.00  0.00    +0.006 A 
ATOM     23  C   UNL     1       7.052   0.684   4.892  0.00  0.00    +0.000 A 
ATOM     24  C   UNL     1       7.133  -0.141   5.998  0.00  0.00    +0.000 A 
ATOM     25  C   UNL     1       5.992  -0.444   6.719  0.00  0.00    +0.000 A 
ATOM     26  C   UNL     1       4.772   0.080   6.335  0.00  0.00    +0.006 A 
ENDBRANCH  16  21
ENDBRANCH   1  14
TORSDOF 4
