REMARK  Name = ZINC39853086
REMARK  10 active torsions:
REMARK  status: ('A' for Active; 'I' for Inactive)
REMARK    1  A    between atoms: C_1  and  C_2
REMARK    2  A    between atoms: N_6  and  C_7
REMARK    3  A    between atoms: C_14  and  C_32
REMARK    4  A    between atoms: C_14  and  C_33
REMARK    5  A    between atoms: N_17  and  O_18
REMARK    6  A    between atoms: O_18  and  C_19
REMARK    7  A    between atoms: C_19  and  C_21
REMARK    8  A    between atoms: C_24  and  C_31
REMARK    9  A    between atoms: C_25  and  C_26
REMARK   10  A    between atoms: C_25  and  C_27
REMARK                            x       y       z     vdW  Elec       q    Type
REMARK                         _______ _______ _______ _____ _____    ______ ____
ROOT
ATOM      1  C   UNL     1      -0.018   1.503   0.010  0.00  0.00    +0.064 C 
ATOM      2  C   UNL     1       0.002  -0.004   0.002  0.00  0.00    +0.022 A 
ATOM      3  C   UNL     1       0.008  -0.783  -1.101  0.00  0.00    +0.033 A 
ATOM      4  C   UNL     1       0.029  -2.153  -0.628  0.00  0.00    +0.021 A 
ATOM      5  C   UNL     1       0.032  -2.106   0.745  0.00  0.00    +0.033 A 
ATOM      6  N   UNL     1       0.024  -0.806   1.113  0.00  0.00    -0.317 N 
ATOM      7  C   UNL     1       0.048  -3.341   1.608  0.00  0.00    +0.061 C 
ATOM      8  C   UNL     1      -0.451  -4.537   0.791  0.00  0.00    -0.024 C 
ATOM      9  C   UNL     1       0.334  -4.662  -0.519  0.00  0.00    +0.066 C 
ATOM     10  C   UNL     1       0.046  -3.431  -1.367  0.00  0.00    +0.090 C 
ATOM     11  N   UNL     1      -0.168  -3.500  -2.642  0.00  0.00    -0.079 NA
ATOM     12  C   UNL     1      -1.935  -4.347   0.473  0.00  0.00    +0.011 C 
ATOM     13  C   UNL     1      -0.271  -5.817   1.611  0.00  0.00    +0.011 C 
ENDROOT
BRANCH   6  14
ATOM     14  C   UNL     1       0.031  -0.345   2.436  0.00  0.00    +0.047 A 
ATOM     15  C   UNL     1       1.134  -0.576   3.247  0.00  0.00    +0.026 A 
ATOM     16  C   UNL     1       1.139  -0.120   4.551  0.00  0.00    +0.002 A 
ATOM     17  C   UNL     1       0.046   0.566   5.049  0.00  0.00    +0.000 A 
ATOM     18  C   UNL     1      -1.054   0.797   4.244  0.00  0.00    +0.002 A 
ATOM     19  C   UNL     1      -1.062   0.349   2.937  0.00  0.00    +0.026 A 
ENDBRANCH   6  14
BRANCH  11  20
ATOM     20  O   UNL     1      -0.139  -4.755  -3.298  0.00  0.00    -0.316 OA
BRANCH  20  21
ATOM     21  C   UNL     1      -0.376  -4.686  -4.617  0.00  0.00    +0.343 C 
ATOM     22  O   UNL     1      -0.590  -3.614  -5.140  0.00  0.00    -0.248 OA
BRANCH  21  23
ATOM     23  C   UNL     1      -0.377  -5.943  -5.448  0.00  0.00    +0.083 C 
ATOM     24  C   UNL     1      -1.452  -7.011  -5.077  0.00  0.00    +0.020 C 
ATOM     25  C   UNL     1      -1.557  -7.907  -6.332  0.00  0.00    +0.016 C 
ATOM     26  C   UNL     1      -0.542  -7.289  -7.342  0.00  0.00    +0.032 C 
ATOM     27  C   UNL     1      -0.664  -5.766  -6.982  0.00  0.00    -0.007 C 
ATOM     28  C   UNL     1      -2.078  -5.242  -7.246  0.00  0.00    +0.013 C 
ATOM     29  C   UNL     1       0.398  -4.907  -7.671  0.00  0.00    +0.013 C 
ATOM     30  C   UNL     1       0.837  -7.615  -6.752  0.00  0.00    +0.141 C 
ATOM     31  O   UNL     1       1.652  -8.395  -7.182  0.00  0.00    -0.297 OA
ATOM     32  C   UNL     1       0.970  -6.728  -5.508  0.00  0.00    +0.093 C 
ATOM     33  C   UNL     1      -0.758  -7.653  -8.812  0.00  0.00    +0.019 C 
ENDBRANCH  21  23
ENDBRANCH  20  21
ENDBRANCH  11  20
TORSDOF 4
