REMARK  Name = ZINC40008602
REMARK  11 active torsions:
REMARK  status: ('A' for Active; 'I' for Inactive)
REMARK    1  A    between atoms: C_1  and  C_2
REMARK    2  A    between atoms: C_2  and  C_3
REMARK    3  A    between atoms: C_6  and  C_9
REMARK    4  A    between atoms: N_24  and  C_25
REMARK    5  A    between atoms: C_25  and  C_26
REMARK    6  A    between atoms: C_26  and  C_27
REMARK    7  A    between atoms: C_27  and  N_28
REMARK    8  A    between atoms: N_28  and  C_29
REMARK    9  A    between atoms: N_28  and  C_31
REMARK   10  A    between atoms: C_29  and  C_30
REMARK   11  A    between atoms: C_31  and  C_32
REMARK                            x       y       z     vdW  Elec       q    Type
REMARK                         _______ _______ _______ _____ _____    ______ ____
ROOT
ATOM      1  C   UNL     1      -7.021  -1.900   0.194  0.00  0.00    +0.144 C 
ATOM      2  C   UNL     1      -8.199  -1.062  -0.179  0.00  0.00    +0.072 A 
ATOM      3  C   UNL     1      -8.855   0.049   0.518  0.00  0.00    +0.199 A 
ATOM      4  O   UNL     1      -8.386   0.586   1.506  0.00  0.00    -0.287 OA
ATOM      5  C   UNL     1     -10.144   0.457  -0.095  0.00  0.00    +0.065 A 
ATOM      6  C   UNL     1     -10.983   1.359   0.560  0.00  0.00    +0.030 A 
ATOM      7  C   UNL     1     -12.178   1.723  -0.021  0.00  0.00    +0.019 A 
ATOM      8  C   UNL     1     -12.543   1.192  -1.251  0.00  0.00    +0.019 A 
ATOM      9  C   UNL     1     -11.723   0.302  -1.907  0.00  0.00    +0.048 A 
ATOM     10  C   UNL     1     -10.507  -0.079  -1.341  0.00  0.00    +0.140 A 
ATOM     11  O   UNL     1      -9.715  -0.947  -2.012  0.00  0.00    -0.450 OA
ATOM     12  C   UNL     1      -8.657  -1.503  -1.389  0.00  0.00    +0.199 A 
ATOM     13  C   UNL     1      -7.807  -2.625  -1.824  0.00  0.00    +0.283 C 
ATOM     14  O   UNL     1      -7.949  -3.245  -2.859  0.00  0.00    -0.267 OA
ATOM     15  N   UNL     1      -6.848  -2.865  -0.904  0.00  0.00    -0.284 N 
ATOM     16 BR   UNL     1     -13.322   2.945   0.859  0.00  0.00    -0.050 Br
ENDROOT
BRANCH   1  20
ATOM     17  C   UNL     1      -3.535   0.540   0.574  0.00  0.00    -0.048 A 
ATOM     18  C   UNL     1      -4.201   0.104   1.705  0.00  0.00    +0.004 A 
ATOM     19  C   UNL     1      -5.329  -0.686   1.582  0.00  0.00    +0.006 A 
ATOM     20  C   UNL     1      -5.792  -1.039   0.328  0.00  0.00    -0.022 A 
ATOM     21  C   UNL     1      -5.127  -0.602  -0.802  0.00  0.00    +0.006 A 
ATOM     22  C   UNL     1      -4.002   0.191  -0.679  0.00  0.00    +0.004 A 
BRANCH  17  24
ATOM     23  C   UNL     1      -2.715   2.875   0.732  0.00  0.00    +0.009 C 
ATOM     24  C   UNL     1      -2.306   1.401   0.708  0.00  0.00    +0.032 C 
ENDBRANCH  17  24
ENDBRANCH   1  20
BRANCH  15  25
ATOM     25  C   UNL     1      -5.815  -3.901  -0.986  0.00  0.00    +0.107 C 
BRANCH  25  26
ATOM     26  C   UNL     1      -6.332  -5.188  -0.339  0.00  0.00    +0.000 C 
BRANCH  26  27
ATOM     27  C   UNL     1      -5.254  -6.270  -0.424  0.00  0.00    -0.077 C 
BRANCH  27  28
ATOM     28  N   UNL     1      -5.750  -7.505   0.197  0.00  0.00    +0.379 N 
ATOM     29  H   UNL     1      -6.051  -7.310   1.140  0.00  0.00    -0.082 HD
BRANCH  28  30
ATOM     30  C   UNL     1      -6.883  -8.024  -0.582  0.00  0.00    -0.082 C 
ATOM     31  C   UNL     1      -7.490  -9.228   0.141  0.00  0.00    -0.017 C 
ENDBRANCH  28  30
BRANCH  28  32
ATOM     32  C   UNL     1      -4.675  -8.506   0.223  0.00  0.00    -0.082 C 
ATOM     33  C   UNL     1      -3.555  -8.028   1.150  0.00  0.00    -0.017 C 
ENDBRANCH  28  32
ENDBRANCH  27  28
ENDBRANCH  26  27
ENDBRANCH  25  26
ENDBRANCH  15  25
TORSDOF 8
