REMARK  Name = ZINC21256249
REMARK  9 active torsions:
REMARK  status: ('A' for Active; 'I' for Inactive)
REMARK    1  A    between atoms: C_1  and  N_2
REMARK    2  A    between atoms: N_2  and  C_3
REMARK    3  A    between atoms: N_2  and  C_4
REMARK    4  A    between atoms: C_7  and  C_10
REMARK    5  A    between atoms: C_15  and  C_25
REMARK    6  A    between atoms: C_28  and  O_33
REMARK    7  A    between atoms: C_30  and  O_31
REMARK    8  A    between atoms: O_31  and  C_32
REMARK    9  A    between atoms: O_33  and  C_34
REMARK                            x       y       z     vdW  Elec       q    Type
REMARK                         _______ _______ _______ _____ _____    ______ ____
ROOT
ATOM      1  C   UNL     1       3.595   5.667  -3.766  0.00  0.00    +0.032 C 
ATOM      2  C   UNL     1       3.998   4.203  -3.601  0.00  0.00    +0.059 C 
ATOM      3  C   UNL     1       3.789   3.767  -2.160  0.00  0.00    +0.017 C 
ATOM      4  C   UNL     1       2.791   4.291  -1.429  0.00  0.00    +0.037 C 
ATOM      5  C   UNL     1       2.456   3.932  -0.000  0.00  0.00    +0.139 C 
ATOM      6  N   UNL     1       3.464   3.137   0.670  0.00  0.00    -0.331 N 
ATOM      7  C   UNL     1       3.768   1.846   0.240  0.00  0.00    +0.049 A 
ATOM      8  C   UNL     1       3.463   0.737   1.013  0.00  0.00    +0.025 A 
ATOM      9  C   UNL     1       3.684  -0.530   0.500  0.00  0.00    +0.002 A 
ATOM     10  C   UNL     1       4.205  -0.690  -0.771  0.00  0.00    +0.002 A 
ATOM     11  C   UNL     1       4.530   0.417  -1.537  0.00  0.00    +0.025 A 
ATOM     12  C   UNL     1       4.326   1.684  -1.019  0.00  0.00    +0.052 A 
ATOM     13  N   UNL     1       4.671   2.837  -1.716  0.00  0.00    -0.316 N 
ATOM     14  C   UNL     1       1.942   5.276  -1.984  0.00  0.00    +0.163 C 
ATOM     15  O   UNL     1       1.037   5.721  -1.305  0.00  0.00    -0.292 OA
ATOM     16  C   UNL     1       2.116   5.791  -3.382  0.00  0.00    +0.088 C 
ATOM     17  H   UNL     1       4.005   3.550   1.534  0.00  0.00    +0.147 HD
ATOM     18  H   UNL     1       5.748   2.967  -1.901  0.00  0.00    +0.152 HD
ENDROOT
BRANCH   1  22
ATOM     19  C   UNL     1       4.141   6.870  -7.831  0.00  0.00    +0.029 A 
ATOM     20  C   UNL     1       4.804   7.541  -6.811  0.00  0.00    +0.023 A 
ATOM     21  C   UNL     1       4.625   7.150  -5.499  0.00  0.00    +0.006 A 
ATOM     22  C   UNL     1       3.788   6.091  -5.199  0.00  0.00    -0.043 A 
ATOM     23  C   UNL     1       3.131   5.417  -6.212  0.00  0.00    +0.006 A 
ATOM     24  C   UNL     1       3.301   5.806  -7.527  0.00  0.00    +0.023 A 
BRANCH  19  26
ATOM     25  C   UNL     1       5.206   8.385  -9.479  0.00  0.00    +0.129 C 
ATOM     26  N   UNL     1       4.319   7.263  -9.159  0.00  0.00    -0.336 N 
ATOM     27  C   UNL     1       3.620   6.553 -10.233  0.00  0.00    +0.129 C 
ENDBRANCH  19  26
ENDBRANCH   1  22
BRANCH   5  28
ATOM     28  C   UNL     1       1.159   3.164   0.008  0.00  0.00    +0.019 A 
ATOM     29  C   UNL     1       0.682   2.602  -1.161  0.00  0.00    +0.013 A 
ATOM     30  C   UNL     1      -0.506   1.898  -1.157  0.00  0.00    +0.046 A 
ATOM     31  C   UNL     1      -1.227   1.758   0.021  0.00  0.00    +0.124 A 
ATOM     32  C   UNL     1      -0.748   2.317   1.196  0.00  0.00    +0.091 A 
ATOM     33  C   UNL     1       0.445   3.023   1.189  0.00  0.00    +0.129 A 
BRANCH  33  34
ATOM     34  O   UNL     1       0.914   3.576   2.338  0.00  0.00    -0.495 OA
ATOM     35  C   UNL     1       0.127   3.391   3.516  0.00  0.00    +0.277 C 
ENDBRANCH  33  34
BRANCH  31  36
ATOM     36  O   UNL     1      -2.400   1.071   0.024  0.00  0.00    -0.495 OA
ATOM     37  C   UNL     1      -2.830   0.518  -1.222  0.00  0.00    +0.277 C 
ENDBRANCH  31  36
ENDBRANCH   5  28
TORSDOF 5
