REMARK  Name = ZINC47931979
REMARK  9 active torsions:
REMARK  status: ('A' for Active; 'I' for Inactive)
REMARK    1  A    between atoms: C_1  and  N_2
REMARK    2  A    between atoms: N_2  and  C_3
REMARK    3  A    between atoms: N_2  and  C_4
REMARK    4  A    between atoms: C_4  and  C_6
REMARK    5  A    between atoms: C_4  and  C_19
REMARK    6  A    between atoms: C_6  and  N_7
REMARK    7  A    between atoms: C_8  and  C_10
REMARK    8  A    between atoms: C_13  and  S_15
REMARK    9  A    between atoms: S_15  and  N_18
REMARK                            x       y       z     vdW  Elec       q    Type
REMARK                         _______ _______ _______ _____ _____    ______ ____
ROOT
ATOM      1  N   UNL     1      -0.141  -2.600   0.942  0.00  0.00    -0.310 N 
ATOM      2  C   UNL     1      -0.139  -3.938   0.780  0.00  0.00    +0.279 C 
ATOM      3  O   UNL     1       0.914  -4.548   0.768  0.00  0.00    -0.267 OA
ATOM      4  H   UNL     1      -0.980  -2.114   0.950  0.00  0.00    +0.149 HD
ENDROOT
BRANCH   2   5
ATOM      5  C   UNL     1      -1.406  -4.659   0.617  0.00  0.00    +0.192 A 
ATOM      6  C   UNL     1      -1.546  -6.007   0.451  0.00  0.00    +0.057 A 
ATOM      7  C   UNL     1      -2.922  -6.259   0.338  0.00  0.00    +0.072 A 
ATOM      8  C   UNL     1      -3.554  -5.068   0.438  0.00  0.00    +0.258 A 
ATOM      9  O   UNL     1      -2.637  -4.107   0.611  0.00  0.00    -0.432 OA
BRANCH   8  10
ATOM     10  S   UNL     1      -5.297  -4.821   0.359  0.00  0.00    +0.089 S 
ATOM     11  O   UNL     1      -5.498  -3.476  -0.051  0.00  0.00    -0.150 OA
ATOM     12  O   UNL     1      -5.831  -5.925  -0.358  0.00  0.00    -0.150 OA
BRANCH  10  13
ATOM     13  N   UNL     1      -5.878  -4.936   1.906  0.00  0.00    -0.201 NA
ATOM     14  H   UNL     1      -5.269  -5.111   2.641  0.00  0.00    +0.144 HD
ATOM     15  H   UNL     1      -6.827  -4.828   2.076  0.00  0.00    +0.144 HD
ENDBRANCH  10  13
ENDBRANCH   8  10
ENDBRANCH   2   5
BRANCH   1  16
ATOM     16  C   UNL     1       1.124  -1.880   1.104  0.00  0.00    +0.094 C 
BRANCH  16  17
ATOM     17  C   UNL     1       0.854  -0.375   1.140  0.00  0.00    -0.020 C 
BRANCH  17  18
ATOM     18  C   UNL     1       0.058  -0.037   2.374  0.00  0.00    -0.041 A 
ATOM     19  C   UNL     1      -1.321   0.045   2.307  0.00  0.00    +0.003 A 
ATOM     20  C   UNL     1      -2.050   0.355   3.439  0.00  0.00    +0.000 A 
ATOM     21  C   UNL     1      -1.403   0.583   4.639  0.00  0.00    +0.001 A 
ATOM     22  C   UNL     1      -0.025   0.501   4.708  0.00  0.00    +0.020 A 
ATOM     23  C   UNL     1       0.706   0.185   3.576  0.00  0.00    +0.043 A 
ATOM     24 CL   UNL     1       2.437   0.076   3.662  0.00  0.00    -0.083 Cl
ENDBRANCH  17  18
BRANCH  17  26
ATOM     25  C   UNL     1      -0.130   1.467  -0.042  0.00  0.00    -0.096 C 
ATOM     26  N   UNL     1       0.092   0.015  -0.055  0.00  0.00    +0.382 N 
ATOM     27  C   UNL     1       0.849  -0.354  -1.259  0.00  0.00    -0.096 C 
ATOM     28  H   UNL     1      -0.797  -0.462  -0.057  0.00  0.00    -0.082 HD
ENDBRANCH  17  26
ENDBRANCH  16  17
ENDBRANCH   1  16
TORSDOF 7
