REMARK  Name = ZINC05609137
REMARK  7 active torsions:
REMARK  status: ('A' for Active; 'I' for Inactive)
REMARK    1  A    between atoms: C_1  and  C_2
REMARK    2  A    between atoms: N_6  and  C_11
REMARK    3  A    between atoms: C_7  and  S_9
REMARK    4  A    between atoms: S_9  and  C_10
REMARK    5  A    between atoms: C_11  and  C_12
REMARK    6  A    between atoms: N_14  and  C_15
REMARK    7  A    between atoms: C_16  and  C_24
REMARK                            x       y       z     vdW  Elec       q    Type
REMARK                         _______ _______ _______ _____ _____    ______ ____
ROOT
ATOM      1  C   UNL     1       1.732  -3.069   0.049  0.00  0.00    +0.238 C 
ATOM      2  O   UNL     1       2.777  -2.454   0.025  0.00  0.00    -0.273 OA
ATOM      3  N   UNL     1       1.522  -4.075  -0.822  0.00  0.00    -0.278 N 
ATOM      4  H   UNL     1       0.685  -4.567  -0.802  0.00  0.00    +0.155 HD
ENDROOT
BRANCH   3   5
ATOM      5  C   UNL     1       2.500  -4.409  -1.746  0.00  0.00    +0.084 A 
ATOM      6  C   UNL     1       2.472  -5.406  -2.710  0.00  0.00    +0.068 A 
ATOM      7  C   UNL     1       3.637  -5.547  -3.566  0.00  0.00    -0.023 A 
ATOM      8  C   UNL     1       4.643  -4.681  -3.315  0.00  0.00    -0.004 A 
ATOM      9  S   UNL     1       4.058  -3.685  -1.972  0.00  0.00    -0.077 S 
ATOM     10  C   UNL     1       5.958  -4.593  -4.025  0.00  0.00    +0.043 C 
ATOM     11  C   UNL     1       6.154  -5.880  -4.840  0.00  0.00    +0.005 C 
ATOM     12  C   UNL     1       4.872  -6.164  -5.629  0.00  0.00    +0.005 C 
ATOM     13  C   UNL     1       3.756  -6.588  -4.672  0.00  0.00    +0.037 C 
BRANCH   6  14
ATOM     14  C   UNL     1       1.306  -6.284  -2.862  0.00  0.00    +0.244 C 
ATOM     15  O   UNL     1       0.403  -5.970  -3.615  0.00  0.00    -0.270 OA
ATOM     16  N   UNL     1       1.236  -7.437  -2.169  0.00  0.00    -0.325 N 
ATOM     17  H   UNL     1       1.956  -7.687  -1.569  0.00  0.00    +0.145 HD
ATOM     18  H   UNL     1       0.465  -8.017  -2.269  0.00  0.00    +0.145 HD
ENDBRANCH   6  14
ENDBRANCH   3   5
BRANCH   1  19
ATOM     19  C   UNL     1       0.668  -2.706   1.053  0.00  0.00    +0.223 C 
BRANCH  19  25
ATOM     20  C   UNL     1       2.428   1.718   4.162  0.00  0.00    +0.066 C 
ATOM     21  C   UNL     1       1.972   0.530   3.356  0.00  0.00    +0.046 A 
ATOM     22  C   UNL     1       2.249  -0.735   3.790  0.00  0.00    +0.093 A 
ATOM     23  C   UNL     1       1.814  -1.828   3.021  0.00  0.00    +0.255 A 
ATOM     24  O   UNL     1       2.045  -2.971   3.380  0.00  0.00    -0.268 OA
ATOM     25  N   UNL     1       1.136  -1.589   1.878  0.00  0.00    -0.279 N 
ATOM     26  C   UNL     1       0.888  -0.306   1.495  0.00  0.00    +0.172 A 
ATOM     27  N   UNL     1       1.305   0.714   2.219  0.00  0.00    -0.228 NA
BRANCH  26  28
ATOM     28  S   UNL     1       0.002  -0.004   0.002  0.00  0.00    -0.091 S 
ATOM     29  C   UNL     1      -0.022   1.806   0.012  0.00  0.00    +0.093 C 
ENDBRANCH  26  28
ENDBRANCH  19  25
ENDBRANCH   1  19
TORSDOF 5
