REMARK  Name = ZINC58157999
REMARK  9 active torsions:
REMARK  status: ('A' for Active; 'I' for Inactive)
REMARK    1  A    between atoms: C_1  and  C_2
REMARK    2  A    between atoms: C_2  and  C_3
REMARK    3  A    between atoms: C_2  and  C_4
REMARK    4  A    between atoms: C_4  and  C_6
REMARK    5  A    between atoms: C_4  and  N_13
REMARK    6  A    between atoms: C_14  and  C_16
REMARK    7  A    between atoms: C_16  and  S_17
REMARK    8  A    between atoms: S_17  and  C_19
REMARK    9  A    between atoms: C_22  and  N_25
REMARK                            x       y       z     vdW  Elec       q    Type
REMARK                         _______ _______ _______ _____ _____    ______ ____
ROOT
ATOM      1  N   UNL     1       0.010  -0.012  -2.444  0.00  0.00    -0.307 N 
ATOM      2  C   UNL     1       0.274   1.216  -2.931  0.00  0.00    +0.226 C 
ATOM      3  O   UNL     1       1.099   1.920  -2.387  0.00  0.00    -0.275 OA
ATOM      4  H   UNL     1      -0.650  -0.575  -2.879  0.00  0.00    +0.149 HD
ENDROOT
BRANCH   1   5
ATOM      5  C   UNL     1       0.718  -0.497  -1.257  0.00  0.00    +0.106 C 
BRANCH   5   6
ATOM      6  C   UNL     1       0.739  -2.004  -1.265  0.00  0.00    -0.027 A 
ATOM      7  C   UNL     1      -0.379  -2.708  -1.673  0.00  0.00    +0.008 A 
ATOM      8  C   UNL     1      -0.361  -4.090  -1.682  0.00  0.00    +0.038 A 
ATOM      9  C   UNL     1       0.776  -4.769  -1.281  0.00  0.00    +0.123 A 
ATOM     10  C   UNL     1       1.895  -4.064  -0.873  0.00  0.00    +0.038 A 
ATOM     11  C   UNL     1       1.877  -2.682  -0.870  0.00  0.00    +0.008 A 
ATOM     12  F   UNL     1       0.795  -6.120  -1.289  0.00  0.00    -0.205 F 
ENDBRANCH   5   6
BRANCH   5  14
ATOM     13  C   UNL     1      -0.019   1.526   0.010  0.00  0.00    +0.009 C 
ATOM     14  C   UNL     1       0.002  -0.004   0.002  0.00  0.00    +0.008 C 
ATOM     15  C   UNL     1      -1.433  -0.534   0.013  0.00  0.00    +0.009 C 
ENDBRANCH   5  14
ENDBRANCH   1   5
BRANCH   2  16
ATOM     16  C   UNL     1      -0.455   1.715  -4.152  0.00  0.00    +0.204 C 
BRANCH  16  17
ATOM     17  S   UNL     1       0.118   3.389  -4.556  0.00  0.00    +0.063 S 
ATOM     18  O   UNL     1      -0.333   4.297  -3.561  0.00  0.00    -0.252 OA
BRANCH  17  19
ATOM     19  C   UNL     1      -0.815   3.825  -5.986  0.00  0.00    +0.039 A 
ATOM     20  C   UNL     1      -0.329   3.529  -7.245  0.00  0.00    +0.019 A 
ATOM     21  C   UNL     1      -1.061   3.872  -8.367  0.00  0.00    +0.034 A 
ATOM     22  C   UNL     1      -2.280   4.509  -8.228  0.00  0.00    +0.126 A 
ATOM     23  C   UNL     1      -2.767   4.804  -6.969  0.00  0.00    +0.034 A 
ATOM     24  C   UNL     1      -2.037   4.458  -5.847  0.00  0.00    +0.019 A 
BRANCH  22  25
ATOM     25  N   UNL     1      -3.063   4.877  -9.429  0.00  0.00    +0.056 N 
ATOM     26  O   UNL     1      -2.638   4.619 -10.531  0.00  0.00    -0.126 OA
ATOM     27  O   UNL     1      -4.129   5.434  -9.308  0.00  0.00    -0.126 OA
ENDBRANCH  22  25
ENDBRANCH  17  19
ENDBRANCH  16  17
ENDBRANCH   2  16
TORSDOF 7
