REMARK  Name = ZINC07674283
REMARK  3 active torsions:
REMARK  status: ('A' for Active; 'I' for Inactive)
REMARK    1  A    between atoms: N_10  and  C_11
REMARK    2  A    between atoms: C_11  and  C_12
REMARK    3  A    between atoms: C_18  and  C_23
REMARK                            x       y       z     vdW  Elec       q    Type
REMARK                         _______ _______ _______ _____ _____    ______ ____
ROOT
ATOM      1  C   UNL     1       1.155   3.296   0.294  0.00  0.00    +0.128 A 
ATOM      2  N   UNL     1       1.133   1.939   0.315  0.00  0.00    -0.309 N 
ATOM      3  H   UNL     1       1.976   1.432   0.135  0.00  0.00    +0.170 HD
ATOM      4  C   UNL     1      -0.001   1.262   0.573  0.00  0.00    +0.260 A 
ATOM      5  O   UNL     1      -0.005   0.043   0.588  0.00  0.00    -0.267 OA
ATOM      6  C   UNL     1      -1.205   1.995   0.822  0.00  0.00    +0.083 A 
ATOM      7  C   UNL     1      -2.545   1.497   1.116  0.00  0.00    +0.039 A 
ATOM      8  C   UNL     1      -3.543   2.394   1.319  0.00  0.00    +0.059 A 
ATOM      9  S   UNL     1      -2.726   3.968   1.137  0.00  0.00    -0.076 S 
ATOM     10  C   UNL     1      -1.085   3.393   0.784  0.00  0.00    +0.116 A 
ATOM     11  N   UNL     1       0.074   3.993   0.523  0.00  0.00    -0.225 NA
ENDROOT
BRANCH   7  12
ATOM     12  C   UNL     1      -2.809   0.046   1.191  0.00  0.00    +0.136 A 
ATOM     13  C   UNL     1      -3.451  -0.598   2.203  0.00  0.00    +0.050 A 
ATOM     14  C   UNL     1      -3.481  -1.965   1.861  0.00  0.00    +0.042 A 
ATOM     15  C   UNL     1      -2.857  -2.089   0.674  0.00  0.00    +0.196 A 
ATOM     16  O   UNL     1      -2.452  -0.872   0.272  0.00  0.00    -0.463 OA
ENDBRANCH   7  12
BRANCH   1  17
ATOM     17  C   UNL     1       2.449   4.012   0.001  0.00  0.00    +0.179 C 
BRANCH  17  27
ATOM     18  C   UNL     1       0.913   6.928   3.573  0.00  0.00    +0.000 A 
ATOM     19  C   UNL     1       1.831   5.896   3.505  0.00  0.00    +0.002 A 
ATOM     20  C   UNL     1       2.242   5.421   2.278  0.00  0.00    +0.023 A 
ATOM     21  C   UNL     1       1.737   5.975   1.100  0.00  0.00    +0.033 A 
ATOM     22  C   UNL     1       0.815   7.004   1.175  0.00  0.00    -0.026 A 
ATOM     23  C   UNL     1       0.408   7.478   2.412  0.00  0.00    +0.005 A 
ATOM     24  C   UNL     1       0.223   7.638  -0.059  0.00  0.00    +0.038 C 
ATOM     25  C   UNL     1       1.059   7.260  -1.284  0.00  0.00    +0.024 C 
ATOM     26  C   UNL     1       1.309   5.748  -1.236  0.00  0.00    +0.106 C 
ATOM     27  N   UNL     1       2.196   5.455  -0.109  0.00  0.00    -0.322 N 
ENDBRANCH  17  27
ENDBRANCH   1  17
TORSDOF 3
