REMARK  Name = ZINC41006808
REMARK  10 active torsions:
REMARK  status: ('A' for Active; 'I' for Inactive)
REMARK    1  A    between atoms: C_1  and  C_2
REMARK    2  A    between atoms: C_2  and  O_3
REMARK    3  A    between atoms: O_3  and  C_4
REMARK    4  A    between atoms: C_7  and  C_10
REMARK    5  A    between atoms: C_12  and  C_31
REMARK    6  A    between atoms: C_17  and  C_29
REMARK    7  A    between atoms: C_17  and  O_30
REMARK    8  A    between atoms: C_18  and  C_20
REMARK    9  A    between atoms: N_22  and  C_23
REMARK   10  A    between atoms: N_33  and  C_34
REMARK                            x       y       z     vdW  Elec       q    Type
REMARK                         _______ _______ _______ _____ _____    ______ ____
ROOT
ATOM      1  C   UNL     1       0.951  -5.540  -1.442  0.00  0.00    +0.053 C 
ATOM      2  C   UNL     1       2.482  -5.596  -1.428  0.00  0.00    +0.149 C 
ATOM      3  C   UNL     1       2.910  -7.046  -1.472  0.00  0.00    +0.148 C 
ATOM      4  O   UNL     1       3.698  -7.484  -0.669  0.00  0.00    -0.296 OA
ATOM      5  C   UNL     1       2.326  -7.933  -2.550  0.00  0.00    +0.110 C 
ATOM      6  C   UNL     1       0.801  -7.792  -2.523  0.00  0.00    +0.082 C 
ATOM      7  C   UNL     1       0.424  -6.315  -2.651  0.00  0.00    +0.115 C 
ATOM      8  C   UNL     1       0.195  -8.576  -3.689  0.00  0.00    +0.042 C 
ENDROOT
BRANCH   1  12
ATOM      9  C   UNL     1      -0.323  -1.468  -1.696  0.00  0.00    +0.121 A 
ATOM     10  C   UNL     1      -1.029  -2.370  -0.911  0.00  0.00    +0.046 A 
ATOM     11  C   UNL     1      -0.615  -3.685  -0.831  0.00  0.00    +0.007 A 
ATOM     12  C   UNL     1       0.501  -4.104  -1.531  0.00  0.00    -0.042 A 
ATOM     13  C   UNL     1       1.206  -3.208  -2.313  0.00  0.00    +0.007 A 
ATOM     14  C   UNL     1       0.793  -1.892  -2.401  0.00  0.00    +0.046 A 
BRANCH   9  15
ATOM     15  O   UNL     1      -0.729  -0.174  -1.776  0.00  0.00    -0.492 OA
BRANCH  15  17
ATOM     16  C   UNL     1      -2.187   1.677  -1.238  0.00  0.00    +0.048 C 
ATOM     17  C   UNL     1      -1.886   0.192  -1.022  0.00  0.00    +0.225 C 
ENDBRANCH  15  17
ENDBRANCH   9  15
ENDBRANCH   1  12
BRANCH   7  18
ATOM     18  C   UNL     1       1.030  -5.751  -3.910  0.00  0.00    +0.224 C 
ATOM     19  O   UNL     1       2.235  -5.726  -4.045  0.00  0.00    -0.275 OA
ATOM     20  N   UNL     1       0.233  -5.276  -4.887  0.00  0.00    -0.285 N 
ATOM     21  H   UNL     1      -0.729  -5.386  -4.825  0.00  0.00    +0.155 HD
BRANCH  20  22
ATOM     22  C   UNL     1       0.792  -4.622  -5.990  0.00  0.00    +0.033 A 
ATOM     23  C   UNL     1       2.084  -4.926  -6.398  0.00  0.00    +0.023 A 
ATOM     24  C   UNL     1       2.634  -4.279  -7.488  0.00  0.00    +0.002 A 
ATOM     25  C   UNL     1       1.899  -3.329  -8.172  0.00  0.00    +0.000 A 
ATOM     26  C   UNL     1       0.612  -3.022  -7.768  0.00  0.00    +0.002 A 
ATOM     27  C   UNL     1       0.055  -3.671  -6.683  0.00  0.00    +0.023 A 
ENDBRANCH  20  22
ENDBRANCH   7  18
BRANCH   2  28
ATOM     28  C   UNL     1       3.001  -4.949  -0.169  0.00  0.00    +0.228 C 
ATOM     29  O   UNL     1       2.224  -4.488   0.640  0.00  0.00    -0.275 OA
ATOM     30  N   UNL     1       4.328  -4.885   0.057  0.00  0.00    -0.285 N 
ATOM     31  H   UNL     1       4.952  -5.146  -0.638  0.00  0.00    +0.155 HD
BRANCH  30  32
ATOM     32  C   UNL     1       4.805  -4.440   1.295  0.00  0.00    +0.033 A 
ATOM     33  C   UNL     1       6.016  -3.764   1.372  0.00  0.00    +0.023 A 
ATOM     34  C   UNL     1       6.484  -3.326   2.595  0.00  0.00    +0.002 A 
ATOM     35  C   UNL     1       5.749  -3.560   3.743  0.00  0.00    +0.000 A 
ATOM     36  C   UNL     1       4.544  -4.233   3.670  0.00  0.00    +0.002 A 
ATOM     37  C   UNL     1       4.067  -4.668   2.449  0.00  0.00    +0.023 A 
ENDBRANCH  30  32
ENDBRANCH   2  28
BRANCH   6  38
ATOM     38  O   UNL     1       0.296  -8.308  -1.289  0.00  0.00    -0.388 OA
ATOM     39  H   UNL     1       0.499  -9.241  -1.141  0.00  0.00    +0.210 HD
ENDBRANCH   6  38
TORSDOF 8
