REMARK  Name = ZINC67406594
REMARK  5 active torsions:
REMARK  status: ('A' for Active; 'I' for Inactive)
REMARK    1  A    between atoms: C_1  and  C_2
REMARK    2  A    between atoms: C_2  and  C_3
REMARK    3  A    between atoms: C_3  and  C_5
REMARK    4  A    between atoms: C_3  and  N_10
REMARK    5  A    between atoms: C_17  and  C_20
REMARK                            x       y       z     vdW  Elec       q    Type
REMARK                         _______ _______ _______ _____ _____    ______ ____
ROOT
ATOM      1  N   UNL     1       1.027   1.952   2.445  0.00  0.00    -0.292 N 
ATOM      2  C   UNL     1       0.164   1.077   2.997  0.00  0.00    +0.303 C 
ATOM      3  O   UNL     1      -0.060   0.015   2.449  0.00  0.00    -0.253 OA
ATOM      4  N   UNL     1      -0.450   1.378   4.159  0.00  0.00    -0.281 N 
ATOM      5  C   UNL     1      -1.306   0.394   4.840  0.00  0.00    +0.137 C 
ATOM      6  C   UNL     1      -0.866   0.302   6.305  0.00  0.00    +0.179 C 
ATOM      7  O   UNL     1      -0.834   1.615   6.870  0.00  0.00    -0.369 OA
ATOM      8  C   UNL     1       0.106   2.497   6.251  0.00  0.00    +0.166 C 
ATOM      9  C   UNL     1      -0.280   2.698   4.785  0.00  0.00    +0.145 C 
ATOM     10  H   UNL     1       1.147   2.830   2.840  0.00  0.00    +0.151 HD
ENDROOT
BRANCH   8  11
ATOM     11  C   UNL     1       0.097   3.824   6.964  0.00  0.00    -0.015 A 
ATOM     12  C   UNL     1      -1.083   4.320   7.486  0.00  0.00    +0.006 A 
ATOM     13  C   UNL     1      -1.093   5.537   8.141  0.00  0.00    +0.003 A 
ATOM     14  C   UNL     1       0.078   6.261   8.273  0.00  0.00    +0.038 A 
ATOM     15  C   UNL     1       1.260   5.765   7.750  0.00  0.00    +0.124 A 
ATOM     16  C   UNL     1       1.270   4.543   7.100  0.00  0.00    +0.044 A 
ATOM     17  F   UNL     1       2.404   6.472   7.878  0.00  0.00    -0.205 F 
ENDBRANCH   8  11
BRANCH   1  18
ATOM     18  C   UNL     1       1.782   1.579   1.246  0.00  0.00    +0.111 C 
BRANCH  18  19
ATOM     19  C   UNL     1       2.169   2.823   0.488  0.00  0.00    +0.010 A 
ATOM     20  C   UNL     1       2.174   3.040  -0.850  0.00  0.00    +0.013 A 
ATOM     21  C   UNL     1       2.571   4.275  -1.327  0.00  0.00    +0.008 A 
ATOM     22  C   UNL     1       2.944   5.232  -0.443  0.00  0.00    +0.045 A 
ATOM     23  S   UNL     1       2.731   4.395   1.120  0.00  0.00    -0.100 S 
ENDBRANCH  18  19
BRANCH  18  25
ATOM     24  C   UNL     1       2.652  -0.505   2.316  0.00  0.00    +0.006 C 
ATOM     25  C   UNL     1       3.045   0.819   1.656  0.00  0.00    +0.024 C 
ENDBRANCH  18  25
ENDBRANCH   1  18
TORSDOF 4
