REMARK  Name = ZINC36626471
REMARK  8 active torsions:
REMARK  status: ('A' for Active; 'I' for Inactive)
REMARK    1  A    between atoms: C_1  and  C_2
REMARK    2  A    between atoms: C_4  and  C_31
REMARK    3  A    between atoms: C_7  and  C_12
REMARK    4  A    between atoms: C_12  and  O_14
REMARK    5  A    between atoms: O_14  and  C_15
REMARK    6  A    between atoms: C_15  and  C_16
REMARK    7  A    between atoms: C_28  and  C_29
REMARK    8  A    between atoms: C_28  and  C_30
REMARK                            x       y       z     vdW  Elec       q    Type
REMARK                         _______ _______ _______ _____ _____    ______ ____
ROOT
ATOM      1  C   UNL     1       0.378  -6.920   4.354  0.00  0.00    +0.328 C 
ENDROOT
BRANCH   1   2
ATOM      2  C   UNL     1       0.301  -6.690   5.841  0.00  0.00    +0.258 C 
ATOM      3  O   UNL     1       0.387  -5.564   6.286  0.00  0.00    -0.271 OA
ATOM      4  N   UNL     1       0.138  -7.734   6.677  0.00  0.00    -0.253 N 
ATOM      5  C   UNL     1       0.165  -9.054   6.201  0.00  0.00    +0.059 A 
ATOM      6  C   UNL     1      -0.234  -9.357   4.912  0.00  0.00    +0.025 A 
ATOM      7  C   UNL     1      -0.200 -10.669   4.473  0.00  0.00    +0.002 A 
ATOM      8  C   UNL     1       0.232 -11.674   5.319  0.00  0.00    +0.002 A 
ATOM      9  C   UNL     1       0.634 -11.377   6.609  0.00  0.00    +0.025 A 
ATOM     10  C   UNL     1       0.605 -10.066   7.056  0.00  0.00    +0.055 A 
ATOM     11  N   UNL     1       1.018  -9.743   8.353  0.00  0.00    -0.282 N 
ATOM     12  C   UNL     1       0.738  -8.538   8.884  0.00  0.00    +0.241 C 
ATOM     13  O   UNL     1       1.144  -8.263   9.994  0.00  0.00    -0.273 OA
ATOM     14  C   UNL     1      -0.069  -7.527   8.118  0.00  0.00    +0.113 C 
ATOM     15  C   UNL     1       0.381  -6.116   8.503  0.00  0.00    +0.042 C 
ATOM     16  C   UNL     1      -1.552  -7.702   8.453  0.00  0.00    +0.042 C 
ATOM     17  H   UNL     1       1.513 -10.394   8.875  0.00  0.00    +0.155 HD
ENDBRANCH   1   2
BRANCH   1  18
ATOM     18  O   UNL     1       0.801  -5.718   3.707  0.00  0.00    -0.451 OA
BRANCH  18  19
ATOM     19  C   UNL     1       0.922  -5.755   2.364  0.00  0.00    +0.356 C 
ATOM     20  O   UNL     1       0.674  -6.781   1.760  0.00  0.00    -0.243 OA
BRANCH  19  27
ATOM     21  C   UNL     1       3.149   0.945   0.028  0.00  0.00    +0.044 C 
ATOM     22  C   UNL     1       2.719  -0.499   0.021  0.00  0.00    -0.048 A 
ATOM     23  C   UNL     1       2.633  -1.186  -1.183  0.00  0.00    +0.007 A 
ATOM     24  C   UNL     1       2.246  -2.494  -1.212  0.00  0.00    -0.041 A 
ATOM     25  C   UNL     1       1.932  -3.154  -0.017  0.00  0.00    +0.003 A 
ATOM     26  C   UNL     1       1.510  -4.471   0.284  0.00  0.00    +0.043 A 
ATOM     27  C   UNL     1       1.352  -4.557   1.632  0.00  0.00    +0.125 A 
ATOM     28  N   UNL     1       1.660  -3.337   2.203  0.00  0.00    -0.349 N 
ATOM     29  H   UNL     1       1.628  -3.132   3.150  0.00  0.00    +0.166 HD
ATOM     30  C   UNL     1       2.019  -2.460   1.206  0.00  0.00    +0.048 A 
ATOM     31  C   UNL     1       2.421  -1.127   1.210  0.00  0.00    +0.029 A 
ATOM     32  C   UNL     1       2.156  -3.226  -2.526  0.00  0.00    +0.044 C 
ENDBRANCH  19  27
ENDBRANCH  18  19
ENDBRANCH   1  18
TORSDOF 4
