REMARK  Name = ZINC39431122
REMARK  5 active torsions:
REMARK  status: ('A' for Active; 'I' for Inactive)
REMARK    1  A    between atoms: C_1  and  C_2
REMARK    2  A    between atoms: C_2  and  C_4
REMARK    3  A    between atoms: C_2  and  S_16
REMARK    4  A    between atoms: S_16  and  C_17
REMARK    5  A    between atoms: N_28  and  C_29
REMARK                            x       y       z     vdW  Elec       q    Type
REMARK                         _______ _______ _______ _____ _____    ______ ____
ROOT
ATOM      1  C   UNL     1       3.398   0.423   1.329  0.00  0.00    +0.227 C 
ATOM      2  N   UNL     1       3.346   1.857   1.024  0.00  0.00    -0.316 N 
ATOM      3  C   UNL     1       2.404   2.314   0.110  0.00  0.00    +0.041 A 
ATOM      4  C   UNL     1       1.881   3.594   0.180  0.00  0.00    +0.024 A 
ATOM      5  C   UNL     1       0.954   4.007  -0.758  0.00  0.00    +0.002 A 
ATOM      6  C   UNL     1       0.543   3.150  -1.767  0.00  0.00    +0.001 A 
ATOM      7  C   UNL     1       1.051   1.870  -1.849  0.00  0.00    +0.015 A 
ATOM      8  C   UNL     1       1.983   1.440  -0.907  0.00  0.00    +0.058 A 
ATOM      9  C   UNL     1       2.537   0.074  -0.938  0.00  0.00    +0.255 C 
ATOM     10  O   UNL     1       2.326  -0.652  -1.890  0.00  0.00    -0.269 OA
ATOM     11  N   UNL     1       3.276  -0.359   0.098  0.00  0.00    -0.239 N 
ATOM     12  H   UNL     1       3.959   2.475   1.452  0.00  0.00    +0.149 HD
ENDROOT
BRANCH  11  13
ATOM     13  C   UNL     1       3.942  -1.585  -0.006  0.00  0.00    +0.041 A 
ATOM     14  C   UNL     1       3.301  -2.759   0.369  0.00  0.00    +0.024 A 
ATOM     15  C   UNL     1       3.960  -3.968   0.266  0.00  0.00    +0.003 A 
ATOM     16  C   UNL     1       5.258  -4.011  -0.210  0.00  0.00    +0.020 A 
ATOM     17  C   UNL     1       5.900  -2.844  -0.584  0.00  0.00    +0.043 A 
ATOM     18  C   UNL     1       5.243  -1.631  -0.489  0.00  0.00    +0.043 A 
ATOM     19 CL   UNL     1       7.530  -2.903  -1.180  0.00  0.00    -0.083 Cl
ENDBRANCH  11  13
BRANCH   1  20
ATOM     20  S   UNL     1       2.035  -0.003   2.447  0.00  0.00    -0.108 S 
BRANCH  20  22
ATOM     21  C   UNL     1       3.773  -0.082   4.558  0.00  0.00    +0.027 C 
ATOM     22  C   UNL     1       2.550   0.682   4.046  0.00  0.00    +0.112 C 
BRANCH  22  23
ATOM     23  C   UNL     1       1.422   0.547   5.037  0.00  0.00    +0.123 A 
ATOM     24  N   UNL     1       1.649   0.915   6.325  0.00  0.00    -0.309 N 
ATOM     25  H   UNL     1       2.520   1.254   6.582  0.00  0.00    +0.170 HD
ATOM     26  C   UNL     1       0.669   0.813   7.253  0.00  0.00    +0.259 A 
ATOM     27  O   UNL     1       0.857   1.141   8.410  0.00  0.00    -0.267 OA
ATOM     28  C   UNL     1      -0.633   0.293   6.809  0.00  0.00    +0.065 A 
ATOM     29  C   UNL     1      -1.707   0.149   7.685  0.00  0.00    +0.015 A 
ATOM     30  C   UNL     1      -2.904  -0.345   7.215  0.00  0.00    +0.001 A 
ATOM     31  C   UNL     1      -3.047  -0.698   5.879  0.00  0.00    +0.002 A 
ATOM     32  C   UNL     1      -1.999  -0.563   4.998  0.00  0.00    +0.028 A 
ATOM     33  C   UNL     1      -0.775  -0.065   5.450  0.00  0.00    +0.078 A 
ATOM     34  N   UNL     1       0.283   0.089   4.615  0.00  0.00    -0.233 NA
ENDBRANCH  22  23
ENDBRANCH  20  22
ENDBRANCH   1  20
TORSDOF 4
