REMARK  Name = ZINC12431476
REMARK  5 active torsions:
REMARK  status: ('A' for Active; 'I' for Inactive)
REMARK    1  A    between atoms: C_1  and  C_2
REMARK    2  A    between atoms: C_3  and  C_8
REMARK    3  A    between atoms: C_14  and  C_17
REMARK    4  A    between atoms: C_17  and  N_18
REMARK    5  A    between atoms: C_19  and  C_21
REMARK                            x       y       z     vdW  Elec       q    Type
REMARK                         _______ _______ _______ _____ _____    ______ ____
ROOT
ATOM      1  C   UNL     1      -2.215   4.510   2.622  0.00  0.00    +0.285 C 
ATOM      2  O   UNL     1      -2.645   4.983   1.586  0.00  0.00    -0.267 OA
ATOM      3  N   UNL     1      -1.161   3.671   2.592  0.00  0.00    -0.295 N 
ATOM      4  C   UNL     1      -0.561   3.177   3.839  0.00  0.00    +0.108 C 
ATOM      5  C   UNL     1      -0.513   1.647   3.791  0.00  0.00    +0.019 C 
ATOM      6  C   UNL     1       0.219   1.202   2.523  0.00  0.00    +0.008 C 
ATOM      7  C   UNL     1      -0.541   1.700   1.292  0.00  0.00    +0.024 C 
ATOM      8  C   UNL     1      -0.589   3.232   1.311  0.00  0.00    +0.113 C 
ENDROOT
BRANCH   1  11
ATOM      9  C   UNL     1      -1.223   6.694   4.044  0.00  0.00    +0.089 C 
ATOM     10  C   UNL     1      -2.375   5.896   4.598  0.00  0.00    +0.141 C 
ATOM     11  C   UNL     1      -2.842   4.852   3.899  0.00  0.00    +0.220 C 
ATOM     12  O   UNL     1      -3.882   4.099   4.353  0.00  0.00    -0.481 OA
ATOM     13  C   UNL     1      -4.211   4.231   5.741  0.00  0.00    +0.270 C 
ATOM     14  C   UNL     1      -4.211   5.727   6.089  0.00  0.00    +0.269 C 
ATOM     15  O   UNL     1      -2.915   6.254   5.782  0.00  0.00    -0.489 OA
ENDBRANCH   1  11
BRANCH   7  16
ATOM     16  C   UNL     1       0.174   1.228   0.025  0.00  0.00    +0.109 C 
BRANCH  16  17
ATOM     17  N   UNL     1      -0.616   1.602  -1.151  0.00  0.00    -0.310 N 
ATOM     18  C   UNL     1      -0.179   1.287  -2.386  0.00  0.00    +0.260 C 
ATOM     19  O   UNL     1       0.873   0.691  -2.525  0.00  0.00    -0.269 OA
ATOM     20  H   UNL     1      -1.455   2.077  -1.040  0.00  0.00    +0.149 HD
BRANCH  18  21
ATOM     21  C   UNL     1      -0.972   1.663  -3.565  0.00  0.00    +0.103 A 
ATOM     22  C   UNL     1      -0.634   1.406  -4.856  0.00  0.00    +0.040 A 
ATOM     23  C   UNL     1      -1.660   1.927  -5.682  0.00  0.00    +0.000 A 
ATOM     24  C   UNL     1      -1.856   1.958  -7.069  0.00  0.00    +0.010 A 
ATOM     25  C   UNL     1      -2.972   2.552  -7.583  0.00  0.00    +0.001 A 
ATOM     26  C   UNL     1      -3.918   3.128  -6.744  0.00  0.00    +0.002 A 
ATOM     27  C   UNL     1      -3.748   3.110  -5.378  0.00  0.00    +0.026 A 
ATOM     28  C   UNL     1      -2.618   2.510  -4.829  0.00  0.00    +0.047 A 
ATOM     29  N   UNL     1      -2.177   2.337  -3.538  0.00  0.00    -0.351 N 
ATOM     30  H   UNL     1      -2.637   2.640  -2.739  0.00  0.00    +0.166 HD
ENDBRANCH  18  21
ENDBRANCH  16  17
ENDBRANCH   7  16
TORSDOF 4
