REMARK  Name = ZINC14470786
REMARK  7 active torsions:
REMARK  status: ('A' for Active; 'I' for Inactive)
REMARK    1  A    between atoms: C_1  and  C_2
REMARK    2  A    between atoms: C_4  and  C_38
REMARK    3  A    between atoms: C_6  and  N_8
REMARK    4  A    between atoms: N_8  and  S_9
REMARK    5  A    between atoms: S_9  and  C_12
REMARK    6  A    between atoms: C_25  and  C_28
REMARK    7  A    between atoms: C_32  and  N_34
REMARK                            x       y       z     vdW  Elec       q    Type
REMARK                         _______ _______ _______ _____ _____    ______ ____
ROOT
ATOM      1  C   UNL     1      -1.282   2.538  -3.318  0.00  0.00    +0.109 A 
ATOM      2  C   UNL     1      -2.652   2.512  -3.129  0.00  0.00    +0.030 A 
ATOM      3  C   UNL     1      -3.172   1.895  -2.041  0.00  0.00    +0.025 A 
ATOM      4  C   UNL     1      -2.344   1.352  -1.065  0.00  0.00    +0.031 A 
ATOM      5  C   UNL     1      -0.965   1.398  -1.236  0.00  0.00    -0.018 A 
ATOM      6  C   UNL     1      -0.443   1.981  -2.370  0.00  0.00    +0.034 A 
ATOM      7  C   UNL     1      -0.114   0.772  -0.201  0.00  0.00    +0.049 C 
ATOM      8  C   UNL     1       1.285   1.209   0.036  0.00  0.00    -0.023 C 
ATOM      9  C   UNL     1       1.566   1.051   1.324  0.00  0.00    -0.030 C 
ATOM     10  C   UNL     1       0.338   0.517   2.065  0.00  0.00    +0.033 C 
ATOM     11  C   UNL     1      -0.804   1.022   1.174  0.00  0.00    +0.029 C 
ATOM     12  C   UNL     1      -2.076   0.192   1.144  0.00  0.00    +0.105 C 
ATOM     13  N   UNL     1      -2.916   0.790   0.083  0.00  0.00    -0.336 N 
ATOM     14  H   UNL     1      -3.881   0.793   0.185  0.00  0.00    +0.147 HD
ENDROOT
BRANCH  12  15
ATOM     15  C   UNL     1      -1.755  -1.241   0.807  0.00  0.00    -0.025 A 
ATOM     16  C   UNL     1      -1.446  -2.135   1.816  0.00  0.00    +0.007 A 
ATOM     17  C   UNL     1      -1.151  -3.450   1.508  0.00  0.00    +0.022 A 
ATOM     18  C   UNL     1      -1.165  -3.872   0.190  0.00  0.00    +0.071 A 
ATOM     19  C   UNL     1      -1.474  -2.977  -0.818  0.00  0.00    +0.145 A 
ATOM     20  C   UNL     1      -1.774  -1.663  -0.509  0.00  0.00    +0.039 A 
ATOM     21 CL   UNL     1      -0.796  -5.523  -0.197  0.00  0.00    -0.081 Cl
BRANCH  19  22
ATOM     22  N   UNL     1      -1.490  -3.427  -2.228  0.00  0.00    +0.058 N 
ATOM     23  O   UNL     1      -1.763  -2.639  -3.116  0.00  0.00    -0.126 OA
ATOM     24  O   UNL     1      -1.231  -4.586  -2.500  0.00  0.00    -0.126 OA
ENDBRANCH  19  22
ENDBRANCH  12  15
BRANCH   1  25
ATOM     25  S   UNL     1      -0.605   3.282  -4.765  0.00  0.00    +0.072 S 
ATOM     26  O   UNL     1      -1.524   4.286  -5.173  0.00  0.00    -0.150 OA
ATOM     27  O   UNL     1       0.756   3.567  -4.476  0.00  0.00    -0.150 OA
BRANCH  25  28
ATOM     28  N   UNL     1      -0.605   2.129  -5.954  0.00  0.00    -0.216 N 
ATOM     29  H   UNL     1       0.234   1.806  -6.317  0.00  0.00    +0.174 HD
BRANCH  28  35
ATOM     30  C   UNL     1      -4.651   2.705  -8.684  0.00  0.00    +0.044 C 
ATOM     31  C   UNL     1      -3.797   1.878  -7.758  0.00  0.00    -0.048 A 
ATOM     32  C   UNL     1      -4.211   0.613  -7.382  0.00  0.00    +0.006 A 
ATOM     33  C   UNL     1      -3.430  -0.150  -6.533  0.00  0.00    -0.048 A 
ATOM     34  C   UNL     1      -2.233   0.350  -6.057  0.00  0.00    +0.028 A 
ATOM     35  C   UNL     1      -1.815   1.620  -6.433  0.00  0.00    +0.049 A 
ATOM     36  C   UNL     1      -2.604   2.385  -7.282  0.00  0.00    +0.028 A 
ATOM     37  C   UNL     1      -3.885  -1.527  -6.125  0.00  0.00    +0.044 C 
ENDBRANCH  28  35
ENDBRANCH  25  28
ENDBRANCH   1  25
TORSDOF 5
