REMARK  Name = ZINC33808221
REMARK  9 active torsions:
REMARK  status: ('A' for Active; 'I' for Inactive)
REMARK    1  A    between atoms: C_1  and  C_2
REMARK    2  A    between atoms: C_2  and  C_3
REMARK    3  A    between atoms: C_2  and  C_4
REMARK    4  A    between atoms: C_2  and  C_5
REMARK    5  A    between atoms: N_8  and  C_10
REMARK    6  A    between atoms: C_14  and  N_19
REMARK    7  A    between atoms: N_19  and  C_20
REMARK    8  A    between atoms: C_20  and  N_22
REMARK    9  A    between atoms: N_22  and  C_23
REMARK                            x       y       z     vdW  Elec       q    Type
REMARK                         _______ _______ _______ _____ _____    ______ ____
ROOT
ATOM      1  C   UNL     1      -1.685  -0.691 -11.875  0.00  0.00    +0.080 A 
ATOM      2  C   UNL     1      -1.275  -0.496 -10.543  0.00  0.00    +0.071 A 
ATOM      3  C   UNL     1      -2.368   0.002  -9.843  0.00  0.00    +0.080 A 
ATOM      4  N   UNL     1      -3.389   0.101 -10.720  0.00  0.00    -0.266 N 
ATOM      5  N   UNL     1      -2.940  -0.335 -11.971  0.00  0.00    -0.175 NA
ATOM      6  C   UNL     1      -4.739   0.582 -10.413  0.00  0.00    +0.173 C 
ATOM      7  C   UNL     1      -1.976   0.222  -8.430  0.00  0.00    +0.012 A 
ATOM      8  C   UNL     1      -2.684   0.699  -7.334  0.00  0.00    +0.012 A 
ATOM      9  C   UNL     1      -2.064   0.807  -6.100  0.00  0.00    +0.024 A 
ATOM     10  C   UNL     1      -0.735   0.441  -5.949  0.00  0.00    +0.033 A 
ATOM     11  C   UNL     1      -0.011  -0.034  -7.043  0.00  0.00    +0.035 A 
ATOM     12  C   UNL     1      -0.627  -0.149  -8.278  0.00  0.00    +0.033 A 
ATOM     13  C   UNL     1      -0.141  -0.614  -9.603  0.00  0.00    +0.198 C 
ATOM     14  O   UNL     1       0.976  -1.013  -9.864  0.00  0.00    -0.286 OA
ENDROOT
BRANCH   1  16
ATOM     15  C   UNL     1      -0.333  -2.624 -12.641  0.00  0.00    +0.017 C 
ATOM     16  C   UNL     1      -0.828  -1.220 -12.996  0.00  0.00    +0.007 C 
ATOM     17  C   UNL     1      -1.652  -1.279 -14.284  0.00  0.00    +0.017 C 
ATOM     18  C   UNL     1       0.372  -0.293 -13.200  0.00  0.00    +0.017 C 
ENDBRANCH   1  16
BRANCH  10  19
ATOM     19  N   UNL     1      -0.118   0.554  -4.701  0.00  0.00    -0.297 N 
ATOM     20  H   UNL     1      -0.300   1.440  -4.075  0.00  0.00    +0.154 HD
BRANCH  19  21
ATOM     21  C   UNL     1       0.702  -0.423  -4.263  0.00  0.00    +0.135 C 
ATOM     22  S   UNL     1       0.876  -1.864  -5.171  0.00  0.00    -0.019 S 
BRANCH  21  23
ATOM     23  N   UNL     1       1.383  -0.265  -3.112  0.00  0.00    -0.323 N 
ATOM     24  H   UNL     1       1.271   0.661  -2.529  0.00  0.00    +0.148 HD
BRANCH  23  25
ATOM     25  C   UNL     1       2.274  -1.326  -2.636  0.00  0.00    +0.072 C 
ATOM     26  C   UNL     1       3.352  -0.722  -1.734  0.00  0.00    +0.022 C 
ATOM     27  C   UNL     1       4.282  -1.830  -1.237  0.00  0.00    +0.002 C 
ATOM     28  C   UNL     1       3.472  -2.859  -0.446  0.00  0.00    +0.000 C 
ATOM     29  C   UNL     1       2.394  -3.463  -1.348  0.00  0.00    +0.002 C 
ATOM     30  C   UNL     1       1.464  -2.355  -1.844  0.00  0.00    +0.022 C 
ENDBRANCH  23  25
ENDBRANCH  21  23
ENDBRANCH  19  21
ENDBRANCH  10  19
TORSDOF 5
