REMARK  Name = ZINC00345001
REMARK  4 active torsions:
REMARK  status: ('A' for Active; 'I' for Inactive)
REMARK    1  A    between atoms: C_1  and  S_2
REMARK    2  A    between atoms: S_2  and  C_3
REMARK    3  A    between atoms: C_16  and  C_19
REMARK    4  A    between atoms: C_20  and  C_21
REMARK                            x       y       z     vdW  Elec       q    Type
REMARK                         _______ _______ _______ _____ _____    ______ ____
ROOT
ATOM      1  C   UNL     1      -4.767   5.282   0.105  0.00  0.00    +0.212 A 
ATOM      2  N   UNL     1      -3.842   5.638  -0.781  0.00  0.00    -0.184 NA
ATOM      3  C   UNL     1      -2.704   4.966  -0.833  0.00  0.00    +0.248 A 
ATOM      4  C   UNL     1      -2.508   3.891   0.064  0.00  0.00    +0.156 A 
ATOM      5  N   UNL     1      -3.471   3.587   0.920  0.00  0.00    -0.141 NA
ATOM      6  N   UNL     1      -4.566   4.265   0.934  0.00  0.00    -0.122 NA
ATOM      7  C   UNL     1      -1.239   3.135   0.030  0.00  0.00    +0.028 A 
ATOM      8  C   UNL     1      -1.220   1.746   0.017  0.00  0.00    +0.012 A 
ATOM      9  C   UNL     1      -0.013   1.076   0.008  0.00  0.00    +0.001 A 
ATOM     10  C   UNL     1       1.179   1.780   0.000  0.00  0.00    +0.002 A 
ATOM     11  C   UNL     1       1.175   3.163   0.002  0.00  0.00    +0.024 A 
ATOM     12  C   UNL     1      -0.026   3.848   0.012  0.00  0.00    +0.039 A 
ATOM     13  N   UNL     1      -0.068   5.245  -0.018  0.00  0.00    -0.306 N 
ATOM     14  C   UNL     1      -0.561   5.908  -1.222  0.00  0.00    +0.287 C 
ATOM     15  O   UNL     1      -1.736   5.283  -1.726  0.00  0.00    -0.449 OA
ATOM     16  H   UNL     1       0.225   5.764   0.746  0.00  0.00    +0.150 HD
ENDROOT
BRANCH   1  18
ATOM     17  C   UNL     1      -7.113   5.275   1.515  0.00  0.00    +0.093 C 
ATOM     18  S   UNL     1      -6.285   6.174   0.179  0.00  0.00    -0.088 S 
ENDBRANCH   1  18
BRANCH  14  19
ATOM     19  C   UNL     1       0.511   5.862  -2.280  0.00  0.00    +0.038 C 
ATOM     20  C   UNL     1       1.031   6.988  -2.747  0.00  0.00    +0.009 C 
BRANCH  20  21
ATOM     21  C   UNL     1       2.082   6.943  -3.785  0.00  0.00    -0.025 A 
ATOM     22  C   UNL     1       2.534   5.716  -4.271  0.00  0.00    +0.008 A 
ATOM     23  C   UNL     1       3.512   5.681  -5.245  0.00  0.00    +0.001 A 
ATOM     24  C   UNL     1       4.052   6.858  -5.729  0.00  0.00    +0.000 A 
ATOM     25  C   UNL     1       3.613   8.078  -5.247  0.00  0.00    +0.001 A 
ATOM     26  C   UNL     1       2.631   8.127  -4.278  0.00  0.00    +0.008 A 
ENDBRANCH  20  21
ENDBRANCH  14  19
TORSDOF 3
