REMARK  Name = ZINC36027418
REMARK  9 active torsions:
REMARK  status: ('A' for Active; 'I' for Inactive)
REMARK    1  A    between atoms: C_1  and  C_2
REMARK    2  A    between atoms: C_2  and  C_3
REMARK    3  A    between atoms: C_3  and  C_5
REMARK    4  A    between atoms: C_3  and  C_6
REMARK    5  A    between atoms: N_10  and  C_31
REMARK    6  A    between atoms: N_15  and  S_18
REMARK    7  A    between atoms: S_18  and  C_21
REMARK    8  A    between atoms: C_25  and  C_27
REMARK    9  A    between atoms: C_31  and  C_32
REMARK                            x       y       z     vdW  Elec       q    Type
REMARK                         _______ _______ _______ _____ _____    ______ ____
ROOT
ATOM      1  C   UNL     1      -1.231  -3.486   0.777  0.00  0.00    +0.022 C 
ATOM      2  C   UNL     1      -2.101  -4.065  -0.317  0.00  0.00    +0.201 C 
ATOM      3  O   UNL     1      -3.110  -4.717  -0.150  0.00  0.00    -0.277 OA
ATOM      4  N   UNL     1      -1.566  -3.732  -1.510  0.00  0.00    -0.309 N 
ATOM      5  C   UNL     1      -0.347  -2.946  -1.298  0.00  0.00    +0.006 C 
ATOM      6  N   UNL     1      -0.397  -2.463   0.100  0.00  0.00    +0.401 N 
ATOM      7  C   UNL     1      -0.312  -1.756  -2.255  0.00  0.00    +0.023 C 
ATOM      8  C   UNL     1      -0.298  -2.267  -3.700  0.00  0.00    +0.109 C 
ATOM      9  N   UNL     1       0.817  -3.212  -3.856  0.00  0.00    -0.177 NA
ATOM     10  C   UNL     1       0.913  -4.351  -2.933  0.00  0.00    +0.109 C 
ATOM     11  C   UNL     1       0.888  -3.822  -1.495  0.00  0.00    +0.023 C 
ATOM     12  H   UNL     1      -0.837  -1.556   0.148  0.00  0.00    -0.082 HD
ATOM     13  H   UNL     1       0.528  -2.434   0.502  0.00  0.00    -0.082 HD
ENDROOT
BRANCH   9  14
ATOM     14  S   UNL     1       1.944  -2.997  -5.051  0.00  0.00    +0.061 S 
ATOM     15  O   UNL     1       2.510  -4.274  -5.309  0.00  0.00    -0.153 OA
ATOM     16  O   UNL     1       1.318  -2.222  -6.064  0.00  0.00    -0.153 OA
BRANCH  14  17
ATOM     17  C   UNL     1       3.232  -2.000  -4.378  0.00  0.00    +0.106 A 
ATOM     18  C   UNL     1       3.161  -0.623  -4.473  0.00  0.00    +0.028 A 
ATOM     19  C   UNL     1       4.172   0.159  -3.945  0.00  0.00    +0.002 A 
ATOM     20  C   UNL     1       5.253  -0.437  -3.323  0.00  0.00    +0.012 A 
ATOM     21  C   UNL     1       5.323  -1.814  -3.228  0.00  0.00    +0.057 A 
ATOM     22  C   UNL     1       4.310  -2.596  -3.751  0.00  0.00    +0.041 A 
BRANCH  21  23
ATOM     23  C   UNL     1       6.502  -2.463  -2.550  0.00  0.00    +0.417 C 
ATOM     24  F   UNL     1       7.385  -1.475  -2.102  0.00  0.00    -0.166 F 
ATOM     25  F   UNL     1       6.056  -3.218  -1.459  0.00  0.00    -0.166 F 
ATOM     26  F   UNL     1       7.160  -3.300  -3.458  0.00  0.00    -0.166 F 
ENDBRANCH  21  23
ENDBRANCH  14  17
ENDBRANCH   9  14
BRANCH   1  27
ATOM     27  C   UNL     1      -2.097  -2.836   1.859  0.00  0.00    -0.020 C 
ATOM     28  C   UNL     1      -1.196  -2.194   2.916  0.00  0.00    +0.006 C 
BRANCH  27  30
ATOM     29  C   UNL     1      -3.929  -3.235   3.510  0.00  0.00    +0.004 C 
ATOM     30  C   UNL     1      -2.975  -3.902   2.517  0.00  0.00    -0.001 C 
ENDBRANCH  27  30
ENDBRANCH   1  27
BRANCH   4  31
ATOM     31  C   UNL     1      -2.117  -4.101  -2.817  0.00  0.00    +0.141 C 
BRANCH  31  32
ATOM     32  C   UNL     1      -3.139  -3.076  -3.238  0.00  0.00    -0.030 A 
ATOM     33  C   UNL     1      -3.946  -2.475  -2.290  0.00  0.00    +0.005 A 
ATOM     34  C   UNL     1      -4.883  -1.535  -2.676  0.00  0.00    +0.000 A 
ATOM     35  C   UNL     1      -5.013  -1.196  -4.010  0.00  0.00    +0.000 A 
ATOM     36  C   UNL     1      -4.206  -1.797  -4.957  0.00  0.00    +0.000 A 
ATOM     37  C   UNL     1      -3.266  -2.734  -4.571  0.00  0.00    +0.005 A 
ENDBRANCH  31  32
ENDBRANCH   4  31
TORSDOF 7
