REMARK  Name = ZINC39682523
REMARK  8 active torsions:
REMARK  status: ('A' for Active; 'I' for Inactive)
REMARK    1  A    between atoms: C_1  and  O_2
REMARK    2  A    between atoms: O_2  and  C_3
REMARK    3  A    between atoms: C_4  and  C_9
REMARK    4  A    between atoms: C_13  and  C_22
REMARK    5  A    between atoms: N_24  and  C_25
REMARK    6  A    between atoms: C_25  and  C_27
REMARK    7  A    between atoms: C_25  and  C_31
REMARK    8  A    between atoms: C_27  and  C_28
REMARK                            x       y       z     vdW  Elec       q    Type
REMARK                         _______ _______ _______ _____ _____    ______ ____
ROOT
ATOM      1  C   UNL     1      -1.497  -1.074   2.089  0.00  0.00    +0.251 C 
ATOM      2  O   UNL     1      -1.804  -1.658   1.067  0.00  0.00    -0.270 OA
ATOM      3  N   UNL     1      -2.151  -1.337   3.238  0.00  0.00    -0.296 N 
ATOM      4  C   UNL     1      -3.191  -2.366   3.476  0.00  0.00    +0.121 C 
ATOM      5  C   UNL     1      -2.873  -2.924   4.881  0.00  0.00    +0.100 C 
ATOM      6  C   UNL     1      -2.088  -1.802   5.581  0.00  0.00    -0.004 C 
ATOM      7  C   UNL     1      -1.986  -0.668   4.550  0.00  0.00    +0.115 C 
ATOM      8  C   UNL     1      -0.692  -2.289   5.958  0.00  0.00    -0.010 C 
ATOM      9  C   UNL     1       0.049  -1.175   6.702  0.00  0.00    -0.082 C 
ATOM     10  N   UNL     1      -0.704  -0.804   7.907  0.00  0.00    +0.379 N 
ATOM     11  C   UNL     1      -2.010  -0.250   7.530  0.00  0.00    -0.082 C 
ATOM     12  C   UNL     1      -2.838  -1.325   6.821  0.00  0.00    -0.010 C 
ATOM     13  H   UNL     1      -0.841  -1.622   8.482  0.00  0.00    -0.086 HD
ATOM     14  H   UNL     1      -0.184  -0.114   8.428  0.00  0.00    -0.086 HD
ENDROOT
BRANCH   1  16
ATOM     15  C   UNL     1       0.770  -0.265   1.261  0.00  0.00    +0.158 A 
ATOM     16  C   UNL     1      -0.413  -0.080   2.070  0.00  0.00    +0.087 A 
ATOM     17  C   UNL     1      -0.477   1.071   2.824  0.00  0.00    +0.063 A 
ATOM     18  S   UNL     1       0.957   1.872   2.480  0.00  0.00    -0.081 S 
ATOM     19  C   UNL     1       1.692   0.721   1.339  0.00  0.00    +0.120 A 
ATOM     20 CL   UNL     1       3.220   0.836   0.524  0.00  0.00    -0.072 Cl
BRANCH  15  22
ATOM     21  C   UNL     1       1.594  -2.490   1.070  0.00  0.00    +0.277 C 
ATOM     22  O   UNL     1       0.946  -1.363   0.475  0.00  0.00    -0.492 OA
ENDBRANCH  15  22
ENDBRANCH   1  16
BRANCH   5  23
ATOM     23  C   UNL     1      -4.148  -3.220   5.629  0.00  0.00    +0.219 C 
ATOM     24  O   UNL     1      -5.125  -2.521   5.462  0.00  0.00    -0.275 OA
ATOM     25  N   UNL     1      -4.202  -4.261   6.483  0.00  0.00    -0.308 N 
ATOM     26  H   UNL     1      -3.446  -4.864   6.561  0.00  0.00    +0.149 HD
BRANCH  25  27
ATOM     27  C   UNL     1      -5.402  -4.481   7.294  0.00  0.00    +0.114 C 
BRANCH  27  28
ATOM     28  C   UNL     1      -6.467  -5.132   6.449  0.00  0.00    -0.027 A 
ATOM     29  C   UNL     1      -6.124  -6.122   5.547  0.00  0.00    +0.005 A 
ATOM     30  C   UNL     1      -7.100  -6.719   4.772  0.00  0.00    +0.000 A 
ATOM     31  C   UNL     1      -8.420  -6.327   4.899  0.00  0.00    +0.000 A 
ATOM     32  C   UNL     1      -8.762  -5.337   5.801  0.00  0.00    +0.000 A 
ATOM     33  C   UNL     1      -7.787  -4.743   6.579  0.00  0.00    +0.005 A 
ENDBRANCH  27  28
BRANCH  27  34
ATOM     34  C   UNL     1      -5.060  -5.393   8.474  0.00  0.00    +0.152 C 
BRANCH  34  35
ATOM     35  C   UNL     1      -4.093  -4.687   9.390  0.00  0.00    +0.358 C 
ATOM     36  O   UNL     1      -3.805  -3.519   9.189  0.00  0.00    -0.246 OA
ATOM     37  O   UNL     1      -3.599  -5.284  10.331  0.00  0.00    -0.246 OA
ENDBRANCH  34  35
ENDBRANCH  27  34
ENDBRANCH  25  27
ENDBRANCH   5  23
TORSDOF 7
