REMARK  Name = ZINC39237463
REMARK  9 active torsions:
REMARK  status: ('A' for Active; 'I' for Inactive)
REMARK    1  A    between atoms: C_1  and  C_2
REMARK    2  A    between atoms: C_7  and  O_8
REMARK    3  A    between atoms: O_8  and  C_9
REMARK    4  A    between atoms: C_9  and  C_10
REMARK    5  A    between atoms: C_12  and  C_16
REMARK    6  A    between atoms: C_14  and  C_15
REMARK    7  A    between atoms: C_24  and  C_25
REMARK    8  A    between atoms: C_27  and  N_31
REMARK    9  A    between atoms: C_28  and  C_29
REMARK                            x       y       z     vdW  Elec       q    Type
REMARK                         _______ _______ _______ _____ _____    ______ ____
ROOT
ATOM      1  C   UNL     1       0.047   0.092   4.775  0.00  0.00    -0.000 A 
ATOM      2  C   UNL     1       0.022   1.464   4.615  0.00  0.00    +0.019 A 
ATOM      3  C   UNL     1       0.022   2.255   5.716  0.00  0.00    -0.001 A 
ATOM      4  S   UNL     1       0.059   1.051   7.034  0.00  0.00    -0.097 S 
ATOM      5  C   UNL     1       0.066  -0.424   6.029  0.00  0.00    -0.007 A 
ATOM      6  C   UNL     1       0.089  -1.867   6.461  0.00  0.00    +0.052 C 
ENDROOT
BRANCH   3   7
ATOM      7  C   UNL     1      -0.002   3.759   5.805  0.00  0.00    +0.085 C 
ATOM      8  C   UNL     1      -1.215   4.216   6.596  0.00  0.00    +0.108 C 
ATOM      9  C   UNL     1      -1.018   5.755   6.803  0.00  0.00    +0.286 C 
ATOM     10  N   UNL     1      -2.404   6.091   7.133  0.00  0.00    -0.230 N 
ATOM     11  N   UNL     1      -3.164   5.289   6.243  0.00  0.00    -0.193 NA
ATOM     12  C   UNL     1      -2.541   4.197   5.896  0.00  0.00    +0.043 C 
ATOM     13  C   UNL     1      -3.045   3.126   4.963  0.00  0.00    +0.063 C 
ATOM     14  O   UNL     1      -0.022   5.876   7.799  0.00  0.00    -0.455 OA
ATOM     15  C   UNL     1       1.136   5.232   7.483  0.00  0.00    +0.194 C 
ATOM     16  C   UNL     1       1.214   4.256   6.565  0.00  0.00    +0.094 C 
ATOM     17  H   UNL     1      -2.727   6.714   7.803  0.00  0.00    +0.172 HD
BRANCH  15  18
ATOM     18  N   UNL     1       2.282   5.584   8.151  0.00  0.00    -0.329 N 
ATOM     19  H   UNL     1       2.255   6.277   8.829  0.00  0.00    +0.145 HD
ATOM     20  H   UNL     1       3.120   5.141   7.944  0.00  0.00    +0.145 HD
ENDBRANCH  15  18
BRANCH  16  21
ATOM     21  C   UNL     1       2.492   3.677   6.281  0.00  0.00    +0.100 C 
ATOM     22  N   UNL     1       3.506   3.217   6.055  0.00  0.00    -0.191 NA
ENDBRANCH  16  21
ENDBRANCH   3   7
BRANCH   1  23
ATOM     23  C   UNL     1       0.048  -0.819   3.574  0.00  0.00    +0.265 C 
BRANCH  23  24
ATOM     24  O   UNL     1       0.025  -0.033   2.381  0.00  0.00    -0.487 OA
BRANCH  24  31
ATOM     25  C   UNL     1      -0.018   1.503   0.010  0.00  0.00    +0.047 C 
ATOM     26  C   UNL     1       0.002  -0.004   0.002  0.00  0.00    -0.007 A 
ATOM     27  C   UNL     1       0.006  -0.689  -1.198  0.00  0.00    +0.027 A 
ATOM     28  C   UNL     1       0.024  -2.072  -1.206  0.00  0.00    +0.041 A 
ATOM     29  C   UNL     1       0.040  -2.773  -0.013  0.00  0.00    +0.023 A 
ATOM     30  C   UNL     1       0.036  -2.092   1.189  0.00  0.00    +0.047 A 
ATOM     31  C   UNL     1       0.023  -0.704   1.199  0.00  0.00    +0.124 A 
ATOM     32 CL   UNL     1       0.028  -2.930  -2.715  0.00  0.00    -0.084 Cl
ENDBRANCH  24  31
ENDBRANCH  23  24
ENDBRANCH   1  23
TORSDOF 6
