REMARK  Name = ZINC16695042
REMARK  10 active torsions:
REMARK  status: ('A' for Active; 'I' for Inactive)
REMARK    1  A    between atoms: C_1  and  C_2
REMARK    2  A    between atoms: C_2  and  C_4
REMARK    3  A    between atoms: C_2  and  N_48
REMARK    4  A    between atoms: C_6  and  O_12
REMARK    5  A    between atoms: C_9  and  O_10
REMARK    6  A    between atoms: O_10  and  C_11
REMARK    7  A    between atoms: O_12  and  C_13
REMARK    8  A    between atoms: C_14  and  C_16
REMARK    9  A    between atoms: C_14  and  C_17
REMARK   10  A    between atoms: C_14  and  N_48
REMARK                            x       y       z     vdW  Elec       q    Type
REMARK                         _______ _______ _______ _____ _____    ______ ____
ROOT
ATOM      1  N   UNL     1      -3.635   3.266  -0.414  0.00  0.00    +0.390 N 
ATOM      2  H   UNL     1      -4.491   3.734  -0.094  0.00  0.00    -0.084 HD
ATOM      3  H   UNL     1      -3.597   2.318  -0.023  0.00  0.00    -0.084 HD
ENDROOT
BRANCH   1   5
ATOM      4  C   UNL     1      -2.777   4.669   1.401  0.00  0.00    -0.009 C 
ATOM      5  C   UNL     1      -2.461   4.030   0.047  0.00  0.00    -0.039 C 
BRANCH   5   6
ATOM      6  C   UNL     1      -1.283   3.102   0.193  0.00  0.00    -0.016 A 
ATOM      7  C   UNL     1      -1.486   1.740   0.300  0.00  0.00    +0.051 A 
ATOM      8  C   UNL     1      -0.402   0.886   0.440  0.00  0.00    +0.121 A 
ATOM      9  C   UNL     1       0.887   1.399   0.461  0.00  0.00    +0.049 A 
ATOM     10  C   UNL     1       1.090   2.760   0.347  0.00  0.00    +0.049 A 
ATOM     11  C   UNL     1       0.005   3.615   0.213  0.00  0.00    +0.122 A 
BRANCH  11  12
ATOM     12  O   UNL     1       0.206   4.955   0.101  0.00  0.00    -0.495 OA
ATOM     13  C   UNL     1       1.559   5.414   0.130  0.00  0.00    +0.277 C 
ENDBRANCH  11  12
BRANCH   8  14
ATOM     14  O   UNL     1      -0.602  -0.454   0.550  0.00  0.00    -0.495 OA
ATOM     15  C   UNL     1       0.560  -1.275   0.686  0.00  0.00    +0.277 C 
ENDBRANCH   8  14
ENDBRANCH   5   6
ENDBRANCH   1   5
BRANCH   1  16
ATOM     16  C   UNL     1      -3.648   3.185  -1.887  0.00  0.00    -0.007 C 
ATOM     17  C   UNL     1      -4.341   4.422  -2.461  0.00  0.00    -0.006 C 
BRANCH  16  18
ATOM     18  C   UNL     1      -4.398   1.948  -2.308  0.00  0.00    +0.096 A 
ATOM     19  N   UNL     1      -4.615   1.746  -3.634  0.00  0.00    -0.312 N 
ATOM     20  H   UNL     1      -4.288   2.393  -4.279  0.00  0.00    +0.170 HD
ATOM     21  C   UNL     1      -5.283   0.650  -4.064  0.00  0.00    +0.259 A 
ATOM     22  O   UNL     1      -5.484   0.456  -5.249  0.00  0.00    -0.267 OA
ATOM     23  C   UNL     1      -5.756  -0.297  -3.044  0.00  0.00    +0.065 A 
ATOM     24  C   UNL     1      -6.453  -1.456  -3.381  0.00  0.00    +0.015 A 
ATOM     25  C   UNL     1      -6.873  -2.309  -2.384  0.00  0.00    +0.001 A 
ATOM     26  C   UNL     1      -6.608  -2.024  -1.051  0.00  0.00    +0.002 A 
ATOM     27  C   UNL     1      -5.921  -0.884  -0.697  0.00  0.00    +0.028 A 
ATOM     28  C   UNL     1      -5.485  -0.004  -1.689  0.00  0.00    +0.078 A 
ATOM     29  N   UNL     1      -4.800   1.127  -1.386  0.00  0.00    -0.235 NA
ENDBRANCH  16  18
ENDBRANCH   1  16
TORSDOF 6
