REMARK  Name = ZINC02989341
REMARK  8 active torsions:
REMARK  status: ('A' for Active; 'I' for Inactive)
REMARK    1  A    between atoms: C_1  and  O_2
REMARK    2  A    between atoms: O_2  and  C_3
REMARK    3  A    between atoms: C_5  and  C_13
REMARK    4  A    between atoms: C_7  and  C_10
REMARK    5  A    between atoms: C_8  and  O_9
REMARK    6  A    between atoms: C_10  and  C_11
REMARK    7  A    between atoms: N_17  and  C_21
REMARK    8  A    between atoms: C_25  and  C_27
REMARK                            x       y       z     vdW  Elec       q    Type
REMARK                         _______ _______ _______ _____ _____    ______ ____
ROOT
ATOM      1  C   UNL     1       6.163   1.429   0.109  0.00  0.00    +0.028 C 
ATOM      2  C   UNL     1       6.772   0.624  -0.798  0.00  0.00    +0.078 C 
ATOM      3  C   UNL     1       7.623   0.980  -1.951  0.00  0.00    +0.263 C 
ATOM      4  O   UNL     1       7.881   2.138  -2.222  0.00  0.00    -0.269 OA
ATOM      5  N   UNL     1       8.089  -0.024  -2.675  0.00  0.00    -0.224 N 
ATOM      6  C   UNL     1       7.796  -1.305  -2.375  0.00  0.00    +0.125 C 
ATOM      7  S   UNL     1       8.295  -2.728  -3.187  0.00  0.00    -0.027 S 
ATOM      8  S   UNL     1       6.766  -1.159  -0.925  0.00  0.00    -0.061 S 
ENDROOT
BRANCH   1  11
ATOM      9  C   UNL     1       5.703   5.144   0.350  0.00  0.00    +0.162 A 
ATOM     10  C   UNL     1       5.422   3.792   0.335  0.00  0.00    +0.057 A 
ATOM     11  C   UNL     1       6.454   2.869   0.125  0.00  0.00    -0.020 A 
ATOM     12  C   UNL     1       7.765   3.322  -0.063  0.00  0.00    +0.015 A 
ATOM     13  C   UNL     1       8.035   4.673  -0.052  0.00  0.00    +0.002 A 
ATOM     14  C   UNL     1       7.011   5.587   0.156  0.00  0.00    +0.162 A 
BRANCH   9  16
ATOM     15  C   UNL     1       3.388   5.519   0.744  0.00  0.00    +0.277 C 
ATOM     16  O   UNL     1       4.703   6.043   0.553  0.00  0.00    -0.491 OA
ENDBRANCH   9  16
BRANCH  14  17
ATOM     17  O   UNL     1       7.284   6.918   0.172  0.00  0.00    -0.503 OA
ATOM     18  H   UNL     1       7.505   7.264   1.047  0.00  0.00    +0.292 HD
ENDBRANCH  14  17
BRANCH  13  19
ATOM     19  C   UNL     1       9.446   5.160  -0.261  0.00  0.00    +0.065 C 
BRANCH  19  20
ATOM     20  C   UNL     1      10.105   5.376   1.076  0.00  0.00    -0.030 C 
ATOM     21  C   UNL     1      11.240   4.781   1.351  0.00  0.00    +0.004 C 
ENDBRANCH  19  20
ENDBRANCH  13  19
ENDBRANCH   1  11
BRANCH   5  22
ATOM     22  C   UNL     1       8.902   0.252  -3.783  0.00  0.00    +0.043 A 
ATOM     23  C   UNL     1       8.379   0.923  -4.880  0.00  0.00    +0.024 A 
ATOM     24  C   UNL     1       9.183   1.193  -5.970  0.00  0.00    +0.002 A 
ATOM     25  C   UNL     1      10.507   0.796  -5.970  0.00  0.00    +0.012 A 
ATOM     26  C   UNL     1      11.032   0.131  -4.877  0.00  0.00    +0.057 A 
ATOM     27  C   UNL     1      10.232  -0.146  -3.786  0.00  0.00    +0.036 A 
BRANCH  26  28
ATOM     28  C   UNL     1      12.478  -0.295  -4.879  0.00  0.00    +0.417 C 
ATOM     29  F   UNL     1      12.585  -1.580  -5.422  0.00  0.00    -0.166 F 
ATOM     30  F   UNL     1      13.227   0.601  -5.649  0.00  0.00    -0.166 F 
ATOM     31  F   UNL     1      12.963  -0.302  -3.567  0.00  0.00    -0.166 F 
ENDBRANCH  26  28
ENDBRANCH   5  22
TORSDOF 7
