REMARK  Name = ZINC40343029
REMARK  6 active torsions:
REMARK  status: ('A' for Active; 'I' for Inactive)
REMARK    1  A    between atoms: C_3  and  C_8
REMARK    2  A    between atoms: C_11  and  C_27
REMARK    3  A    between atoms: N_18  and  C_19
REMARK    4  A    between atoms: C_19  and  C_20
REMARK    5  A    between atoms: C_20  and  C_21
REMARK    6  A    between atoms: C_21  and  N_22
REMARK                            x       y       z     vdW  Elec       q    Type
REMARK                         _______ _______ _______ _____ _____    ______ ____
ROOT
ATOM      1  C   UNL     1       3.672   2.183  -0.022  0.00  0.00    +0.141 C 
ATOM      2  C   UNL     1       4.255   2.199  -1.409  0.00  0.00    +0.035 A 
ATOM      3  C   UNL     1       4.107   2.551  -2.712  0.00  0.00    +0.072 A 
ATOM      4  N   UNL     1       5.237   2.141  -3.360  0.00  0.00    -0.276 N 
ATOM      5  N   UNL     1       6.037   1.574  -2.528  0.00  0.00    -0.168 NA
ATOM      6  H   UNL     1       5.411   2.261  -4.306  0.00  0.00    +0.189 HD
ATOM      7  C   UNL     1       5.516   1.567  -1.318  0.00  0.00    +0.153 A 
ATOM      8  C   UNL     1       5.720   1.165   0.086  0.00  0.00    +0.268 C 
ATOM      9  O   UNL     1       6.707   0.595   0.507  0.00  0.00    -0.268 OA
ATOM     10  N   UNL     1       4.660   1.519   0.835  0.00  0.00    -0.285 N 
ENDROOT
BRANCH   1  13
ATOM     11  C   UNL     1      -0.017   1.378   0.010  0.00  0.00    +0.001 A 
ATOM     12  C   UNL     1       1.171   2.086   0.002  0.00  0.00    +0.006 A 
ATOM     13  C   UNL     1       2.378   1.411  -0.013  0.00  0.00    -0.021 A 
ATOM     14  C   UNL     1       2.397   0.029  -0.022  0.00  0.00    +0.021 A 
ATOM     15  C   UNL     1       1.210  -0.679  -0.014  0.00  0.00    +0.018 A 
ATOM     16  C   UNL     1       0.002  -0.004   0.002  0.00  0.00    +0.015 A 
ATOM     17 BR   UNL     1       1.236  -2.570  -0.025  0.00  0.00    -0.050 Br
ENDBRANCH   1  13
BRANCH   3  18
ATOM     18  C   UNL     1       2.946   3.244  -3.314  0.00  0.00    +0.000 A 
ATOM     19  C   UNL     1       1.648   2.844  -2.994  0.00  0.00    +0.011 A 
ATOM     20  C   UNL     1       0.570   3.493  -3.558  0.00  0.00    +0.020 A 
ATOM     21  C   UNL     1       0.773   4.541  -4.440  0.00  0.00    +0.041 A 
ATOM     22  C   UNL     1       2.059   4.942  -4.761  0.00  0.00    +0.020 A 
ATOM     23  C   UNL     1       3.144   4.304  -4.198  0.00  0.00    +0.011 A 
ATOM     24 CL   UNL     1      -0.589   5.353  -5.147  0.00  0.00    -0.084 Cl
ENDBRANCH   3  18
BRANCH  10  25
ATOM     25  C   UNL     1       4.516   1.282   2.274  0.00  0.00    +0.111 C 
BRANCH  25  26
ATOM     26  C   UNL     1       3.847  -0.075   2.502  0.00  0.00    +0.040 C 
BRANCH  26  27
ATOM     27  C   UNL     1       3.696  -0.323   4.004  0.00  0.00    +0.124 C 
BRANCH  27  28
ATOM     28  N   UNL     1       3.055  -1.622   4.223  0.00  0.00    -0.338 N 
ATOM     29  C   UNL     1       1.710  -1.858   4.319  0.00  0.00    +0.104 A 
ATOM     30  C   UNL     1       1.560  -3.182   4.517  0.00  0.00    +0.101 A 
ATOM     31  N   UNL     1       2.780  -3.739   4.542  0.00  0.00    -0.352 N 
ATOM     32  C   UNL     1       3.680  -2.811   4.361  0.00  0.00    +0.173 A 
ATOM     33  H   UNL     1       2.964  -4.682   4.670  0.00  0.00    +0.166 HD
ENDBRANCH  27  28
ENDBRANCH  26  27
ENDBRANCH  25  26
ENDBRANCH  10  25
TORSDOF 6
