REMARK  Name = ZINC03840951
REMARK  14 active torsions:
REMARK  status: ('A' for Active; 'I' for Inactive)
REMARK    1  A    between atoms: C_1  and  C_2
REMARK    2  A    between atoms: C_2  and  N_3
REMARK    3  A    between atoms: N_3  and  C_4
REMARK    4  A    between atoms: C_4  and  C_5
REMARK    5  A    between atoms: C_6  and  C_8
REMARK    6  A    between atoms: C_8  and  C_10
REMARK    7  A    between atoms: C_8  and  C_11
REMARK    8  A    between atoms: C_15  and  C_36
REMARK    9  A    between atoms: C_23  and  C_25
REMARK   10  A    between atoms: C_25  and  N_72
REMARK   11  A    between atoms: C_26  and  N_72
REMARK   12  A    between atoms: C_27  and  N_72
REMARK   13  A    between atoms: C_28  and  C_35
REMARK   14  A    between atoms: C_32  and  O_34
REMARK                            x       y       z     vdW  Elec       q    Type
REMARK                         _______ _______ _______ _____ _____    ______ ____
ROOT
ATOM      1  C   UNL     1       2.426   1.726  -1.466  0.00  0.00    +0.029 C 
ATOM      2  C   UNL     1       3.772   2.448  -1.388  0.00  0.00    +0.007 C 
ATOM      3  C   UNL     1       3.563   3.957  -1.539  0.00  0.00    +0.008 C 
ATOM      4  C   UNL     1       2.659   4.448  -0.398  0.00  0.00    -0.022 C 
ATOM      5  C   UNL     1       3.304   4.020   0.932  0.00  0.00    +0.051 C 
ATOM      6  C   UNL     1       2.282   4.101   2.013  0.00  0.00    +0.015 A 
ATOM      7  C   UNL     1       0.935   4.216   1.880  0.00  0.00    +0.057 A 
ATOM      8  N   UNL     1       0.238   4.266   3.012  0.00  0.00    -0.229 NA
ATOM      9  C   UNL     1       0.816   4.210   4.194  0.00  0.00    +0.165 A 
ATOM     10  S   UNL     1       2.496   4.071   3.773  0.00  0.00    -0.057 S 
ATOM     11  N   UNL     1       0.232   4.250   5.455  0.00  0.00    -0.266 N 
ATOM     12  C   UNL     1       1.003   4.178   6.558  0.00  0.00    +0.202 C 
ATOM     13  O   UNL     1       2.207   4.078   6.450  0.00  0.00    -0.277 OA
ATOM     14  C   UNL     1       0.307   4.279   0.494  0.00  0.00    +0.042 C 
ATOM     15  C   UNL     1       1.302   3.746  -0.531  0.00  0.00    +0.033 C 
ATOM     16  C   UNL     1       1.498   2.240  -0.361  0.00  0.00    +0.123 C 
ATOM     17  C   UNL     1      -0.047   5.729   0.157  0.00  0.00    +0.014 C 
ATOM     18  C   UNL     1       2.499   5.968  -0.455  0.00  0.00    +0.012 C 
ATOM     19  H   UNL     1      -0.731   4.330   5.541  0.00  0.00    +0.157 HD
ENDROOT
BRANCH   1  20
ATOM     20  C   UNL     1       2.644   0.223  -1.289  0.00  0.00    +0.078 C 
ATOM     21  C   UNL     1       3.412  -0.032   0.010  0.00  0.00    +0.017 C 
BRANCH  20  23
ATOM     22  N   UNL     1       2.835  -1.081  -3.382  0.00  0.00    -0.302 N 
ATOM     23  C   UNL     1       3.437  -0.311  -2.454  0.00  0.00    +0.219 C 
ATOM     24  O   UNL     1       4.616  -0.047  -2.557  0.00  0.00    -0.275 OA
BRANCH  22  26
ATOM     25  C   UNL     1       4.122  -3.065  -4.005  0.00  0.00    +0.024 C 
ATOM     26  C   UNL     1       3.627  -1.689  -4.454  0.00  0.00    +0.104 C 
ENDBRANCH  22  26
BRANCH  22  27
ATOM     27  C   UNL     1       1.389  -1.310  -3.319  0.00  0.00    +0.104 C 
ATOM     28  C   UNL     1       0.659  -0.153  -4.005  0.00  0.00    +0.024 C 
ENDBRANCH  22  27
ENDBRANCH  20  23
ENDBRANCH   1  20
BRANCH  16  29
ATOM     29  O   UNL     1       0.234   1.580  -0.454  0.00  0.00    -0.391 OA
ATOM     30  H   UNL     1       0.289   0.616  -0.406  0.00  0.00    +0.210 HD
ENDBRANCH  16  29
BRANCH  12  31
ATOM     31  C   UNL     1       0.370   4.222   7.925  0.00  0.00    +0.018 C 
BRANCH  31  34
ATOM     32  C   UNL     1       2.283   5.313   8.931  0.00  0.00    -0.096 C 
ATOM     33  C   UNL     1       0.829   3.929  10.284  0.00  0.00    -0.096 C 
ATOM     34  N   UNL     1       1.432   4.105   8.946  0.00  0.00    +0.382 N 
ATOM     35  H   UNL     1       2.012   3.285   8.731  0.00  0.00    -0.082 HD
ENDBRANCH  31  34
ENDBRANCH  12  31
TORSDOF 7
