REMARK  Name = ZINC03523013
REMARK  7 active torsions:
REMARK  status: ('A' for Active; 'I' for Inactive)
REMARK    1  A    between atoms: C_1  and  C_2
REMARK    2  A    between atoms: C_5  and  C_7
REMARK    3  A    between atoms: C_9  and  C_17
REMARK    4  A    between atoms: C_17  and  O_19
REMARK    5  A    between atoms: O_19  and  C_20
REMARK    6  A    between atoms: C_20  and  C_22
REMARK    7  A    between atoms: C_20  and  C_23
REMARK                            x       y       z     vdW  Elec       q    Type
REMARK                         _______ _______ _______ _____ _____    ______ ____
ROOT
ATOM      1  C   UNL     1       0.068   4.144   0.013  0.00  0.00    +0.107 A 
ATOM      2  C   UNL     1      -1.196   3.526   0.021  0.00  0.00    +0.047 A 
ATOM      3  C   UNL     1      -1.276   2.142   0.032  0.00  0.00    +0.070 A 
ATOM      4  C   UNL     1      -0.017   1.394   0.024  0.00  0.00    +0.014 A 
ATOM      5  C   UNL     1       0.002  -0.004   0.030  0.00  0.00    +0.011 A 
ATOM      6  C   UNL     1       1.197  -0.662   0.028  0.00  0.00    +0.001 A 
ATOM      7  C   UNL     1       2.399   0.042   0.019  0.00  0.00    +0.002 A 
ATOM      8  C   UNL     1       2.416   1.403   0.013  0.00  0.00    +0.028 A 
ATOM      9  C   UNL     1       1.203   2.116   0.015  0.00  0.00    +0.073 A 
ATOM     10  N   UNL     1       1.190   3.450   0.010  0.00  0.00    -0.244 NA
ENDROOT
BRANCH   1  15
ATOM     11  C   UNL     1      -1.329   8.962   0.001  0.00  0.00    +0.086 C 
ATOM     12  C   UNL     1      -0.465   7.727   0.001  0.00  0.00    +0.103 A 
ATOM     13  C   UNL     1       0.884   7.711  -0.006  0.00  0.00    +0.045 A 
ATOM     14  C   UNL     1       1.281   6.361   0.003  0.00  0.00    +0.052 A 
ATOM     15  C   UNL     1       0.141   5.617   0.006  0.00  0.00    +0.153 A 
ATOM     16  O   UNL     1      -0.910   6.461   0.008  0.00  0.00    -0.458 OA
ENDBRANCH   1  15
BRANCH   3  17
ATOM     17  C   UNL     1      -2.581   1.448   0.046  0.00  0.00    +0.341 C 
ATOM     18  O   UNL     1      -2.626   0.238  -0.048  0.00  0.00    -0.245 OA
BRANCH  17  19
ATOM     19  O   UNL     1      -3.720   2.158   0.164  0.00  0.00    -0.449 OA
BRANCH  19  20
ATOM     20  C   UNL     1      -4.965   1.411   0.170  0.00  0.00    +0.259 C 
ATOM     21  C   UNL     1      -5.478   1.263  -1.263  0.00  0.00    +0.062 C 
BRANCH  20  22
ATOM     22  C   UNL     1      -5.987   2.146   0.997  0.00  0.00    +0.261 C 
ATOM     23  O   UNL     1      -5.727   3.238   1.453  0.00  0.00    -0.271 OA
ATOM     24  N   UNL     1      -7.192   1.589   1.230  0.00  0.00    -0.237 N 
ATOM     25  C   UNL     1      -8.107   2.246   1.970  0.00  0.00    +0.303 C 
ATOM     26  O   UNL     1      -7.846   3.342   2.427  0.00  0.00    -0.253 OA
ATOM     27  N   UNL     1      -9.312   1.689   2.202  0.00  0.00    -0.313 N 
ATOM     28  H   UNL     1      -7.401   0.715   0.865  0.00  0.00    +0.159 HD
ATOM     29  H   UNL     1      -9.521   0.815   1.837  0.00  0.00    +0.146 HD
ATOM     30  H   UNL     1      -9.971   2.163   2.735  0.00  0.00    +0.146 HD
ENDBRANCH  20  22
ENDBRANCH  19  20
ENDBRANCH  17  19
ENDBRANCH   3  17
TORSDOF 5
