REMARK  Name = ZINC39700691
REMARK  5 active torsions:
REMARK  status: ('A' for Active; 'I' for Inactive)
REMARK    1  A    between atoms: C_1  and  C_2
REMARK    2  A    between atoms: C_2  and  C_3
REMARK    3  A    between atoms: C_2  and  C_4
REMARK    4  A    between atoms: C_7  and  C_10
REMARK    5  A    between atoms: N_11  and  N_12
REMARK                            x       y       z     vdW  Elec       q    Type
REMARK                         _______ _______ _______ _____ _____    ______ ____
ROOT
ATOM      1  N   UNL     1      -7.129  -3.233  -0.917  0.00  0.00    -0.206 N 
ATOM      2  C   UNL     1      -7.578  -4.032  -1.950  0.00  0.00    +0.227 C 
ATOM      3  N   UNL     1      -6.742  -4.317  -2.919  0.00  0.00    -0.220 NA
ATOM      4  C   UNL     1      -7.248  -5.096  -4.046  0.00  0.00    +0.253 C 
ATOM      5  C   UNL     1      -8.378  -5.957  -3.499  0.00  0.00    +0.115 C 
ATOM      6  C   UNL     1      -8.125  -7.219  -3.944  0.00  0.00    +0.025 A 
ATOM      7  C   UNL     1      -8.865  -8.424  -3.857  0.00  0.00    +0.012 A 
ATOM      8  C   UNL     1      -8.311  -9.539  -4.405  0.00  0.00    +0.001 A 
ATOM      9  C   UNL     1      -7.066  -9.566  -5.042  0.00  0.00    +0.002 A 
ATOM     10  C   UNL     1      -6.275  -8.471  -5.188  0.00  0.00    +0.026 A 
ATOM     11  C   UNL     1      -6.797  -7.212  -4.631  0.00  0.00    +0.046 A 
ATOM     12  N   UNL     1      -6.287  -6.019  -4.635  0.00  0.00    -0.358 N 
ATOM     13  N   UNL     1      -9.275  -5.458  -2.643  0.00  0.00    -0.171 NA
ATOM     14  N   UNL     1      -8.856  -4.480  -1.901  0.00  0.00    -0.247 N 
ATOM     15  H   UNL     1      -7.724  -3.008  -0.184  0.00  0.00    +0.177 HD
ATOM     16  H   UNL     1      -9.480  -4.053  -1.294  0.00  0.00    +0.192 HD
ATOM     17  H   UNL     1      -5.410  -5.780  -4.973  0.00  0.00    +0.162 HD
ENDROOT
BRANCH   1  19
ATOM     18  C   UNL     1      -5.393  -1.996   0.044  0.00  0.00    +0.138 C 
ATOM     19  N   UNL     1      -5.815  -2.747  -0.927  0.00  0.00    -0.188 NA
BRANCH  18  23
ATOM     20  C   UNL     1      -1.412  -0.526   0.013  0.00  0.00    -0.045 A 
ATOM     21  C   UNL     1      -2.257  -0.202   1.059  0.00  0.00    +0.004 A 
ATOM     22  C   UNL     1      -3.552  -0.676   1.076  0.00  0.00    +0.010 A 
ATOM     23  C   UNL     1      -4.010  -1.485   0.033  0.00  0.00    -0.005 A 
ATOM     24  C   UNL     1      -3.151  -1.807  -1.021  0.00  0.00    +0.010 A 
ATOM     25  C   UNL     1      -1.860  -1.321  -1.027  0.00  0.00    +0.004 A 
BRANCH  20  27
ATOM     26  C   UNL     1      -0.019   1.526   0.010  0.00  0.00    +0.012 C 
ATOM     27  C   UNL     1       0.002  -0.004   0.002  0.00  0.00    +0.013 C 
ATOM     28  C   UNL     1       0.742  -0.511   1.242  0.00  0.00    +0.012 C 
ENDBRANCH  20  27
ENDBRANCH  18  23
ENDBRANCH   1  19
TORSDOF 3
