REMARK  Name = ZINC22582742
REMARK  11 active torsions:
REMARK  status: ('A' for Active; 'I' for Inactive)
REMARK    1  A    between atoms: C_1  and  C_2
REMARK    2  A    between atoms: C_3  and  C_17
REMARK    3  A    between atoms: N_5  and  C_7
REMARK    4  A    between atoms: C_7  and  C_8
REMARK    5  A    between atoms: C_18  and  C_19
REMARK    6  A    between atoms: C_19  and  O_21
REMARK    7  A    between atoms: O_21  and  C_22
REMARK    8  A    between atoms: C_22  and  C_24
REMARK    9  A    between atoms: C_22  and  C_27
REMARK   10  A    between atoms: C_24  and  C_25
REMARK   11  A    between atoms: C_24  and  C_26
REMARK                            x       y       z     vdW  Elec       q    Type
REMARK                         _______ _______ _______ _____ _____    ______ ____
ROOT
ATOM      1  C   UNL     1       2.805   1.753   0.872  0.00  0.00    +0.020 C 
ATOM      2  C   UNL     1       2.386   3.021   0.658  0.00  0.00    +0.092 C 
ENDROOT
BRANCH   1   5
ATOM      3  C   UNL     1       2.369  -1.123  -0.395  0.00  0.00    +0.068 C 
ATOM      4  C   UNL     1       1.652  -0.547   0.799  0.00  0.00    +0.069 A 
ATOM      5  C   UNL     1       1.859   0.739   1.352  0.00  0.00    +0.034 A 
ATOM      6  C   UNL     1       0.999   0.860   2.433  0.00  0.00    +0.135 A 
ATOM      7  N   UNL     1       0.310  -0.291   2.526  0.00  0.00    -0.248 N 
ATOM      8  N   UNL     1       0.732  -1.147   1.503  0.00  0.00    -0.174 NA
ATOM      9 CL   UNL     1       0.836   2.243   3.468  0.00  0.00    -0.062 Cl
BRANCH   7  10
ATOM     10  C   UNL     1      -0.711  -0.598   3.531  0.00  0.00    +0.183 C 
BRANCH  10  11
ATOM     11  C   UNL     1      -2.076  -0.301   2.966  0.00  0.00    +0.011 A 
ATOM     12  C   UNL     1      -2.685   0.913   3.227  0.00  0.00    +0.047 A 
ATOM     13  C   UNL     1      -3.936   1.187   2.703  0.00  0.00    +0.020 A 
ATOM     14  C   UNL     1      -4.582   0.242   1.928  0.00  0.00    +0.003 A 
ATOM     15  C   UNL     1      -3.977  -0.974   1.671  0.00  0.00    +0.020 A 
ATOM     16  C   UNL     1      -2.724  -1.246   2.190  0.00  0.00    +0.047 A 
ATOM     17 CL   UNL     1      -1.964  -2.773   1.867  0.00  0.00    -0.083 Cl
ATOM     18 CL   UNL     1      -1.876   2.096   4.206  0.00  0.00    -0.083 Cl
ENDBRANCH  10  11
ENDBRANCH   7  10
ENDBRANCH   1   5
BRANCH   2  19
ATOM     19  C   UNL     1       3.298   3.999   0.196  0.00  0.00    +0.333 C 
ATOM     20  O   UNL     1       4.459   3.699  -0.010  0.00  0.00    -0.246 OA
BRANCH  19  21
ATOM     21  O   UNL     1       2.880   5.264  -0.018  0.00  0.00    -0.449 OA
BRANCH  21  22
ATOM     22  C   UNL     1       3.854   6.199  -0.485  0.00  0.00    +0.265 C 
BRANCH  22  23
ATOM     23  C   UNL     1       3.503   7.579   0.009  0.00  0.00    +0.261 C 
ATOM     24  O   UNL     1       4.293   8.489  -0.122  0.00  0.00    -0.271 OA
ATOM     25  N   UNL     1       2.311   7.802   0.597  0.00  0.00    -0.237 N 
ATOM     26  C   UNL     1       1.954   9.054   0.944  0.00  0.00    +0.303 C 
ATOM     27  O   UNL     1       2.707   9.983   0.727  0.00  0.00    -0.253 OA
ATOM     28  N   UNL     1       0.761   9.277   1.531  0.00  0.00    -0.313 N 
ATOM     29  H   UNL     1       1.629   6.961   0.792  0.00  0.00    +0.159 HD
ATOM     30  H   UNL     1       0.470  10.299   1.815  0.00  0.00    +0.146 HD
ATOM     31  H   UNL     1       0.080   8.436   1.727  0.00  0.00    +0.146 HD
ENDBRANCH  22  23
BRANCH  22  32
ATOM     32  C   UNL     1       3.873   6.195  -2.014  0.00  0.00    +0.033 C 
ATOM     33  C   UNL     1       4.945   7.165  -2.514  0.00  0.00    +0.011 C 
ATOM     34  C   UNL     1       4.189   4.784  -2.516  0.00  0.00    +0.011 C 
ENDBRANCH  22  32
ENDBRANCH  21  22
ENDBRANCH  19  21
ENDBRANCH   2  19
TORSDOF 8
