REMARK  Name = ZINC27903978
REMARK  7 active torsions:
REMARK  status: ('A' for Active; 'I' for Inactive)
REMARK    1  A    between atoms: C_1  and  C_2
REMARK    2  A    between atoms: C_2  and  O_3
REMARK    3  A    between atoms: O_3  and  C_4
REMARK    4  A    between atoms: C_6  and  C_23
REMARK    5  A    between atoms: C_9  and  O_10
REMARK    6  A    between atoms: O_10  and  C_11
REMARK    7  A    between atoms: C_11  and  C_13
REMARK                            x       y       z     vdW  Elec       q    Type
REMARK                         _______ _______ _______ _____ _____    ______ ____
ROOT
ATOM      1  C   UNL     1       0.758  -1.817  -1.359  0.00  0.00    +0.163 A 
ATOM      2  C   UNL     1       0.222  -2.673  -0.409  0.00  0.00    +0.056 A 
ATOM      3  C   UNL     1       0.351  -4.041  -0.561  0.00  0.00    -0.006 A 
ATOM      4  C   UNL     1       1.014  -4.559  -1.658  0.00  0.00    +0.011 A 
ATOM      5  C   UNL     1       1.550  -3.711  -2.609  0.00  0.00    +0.050 A 
ATOM      6  C   UNL     1       1.421  -2.339  -2.466  0.00  0.00    +0.173 A 
ENDROOT
BRANCH   3   7
ATOM      7  C   UNL     1      -0.232  -4.970   0.473  0.00  0.00    +0.190 C 
ATOM      8  N   UNL     1       0.567  -6.208   0.513  0.00  0.00    -0.316 N 
ATOM      9  C   UNL     1       1.721  -6.173   1.256  0.00  0.00    +0.080 A 
ATOM     10  C   UNL     1       1.905  -5.274   2.317  0.00  0.00    +0.068 A 
ATOM     11  C   UNL     1       3.189  -5.355   2.994  0.00  0.00    -0.023 A 
ATOM     12  C   UNL     1       4.023  -6.299   2.504  0.00  0.00    -0.005 A 
ATOM     13  S   UNL     1       3.123  -7.056   1.179  0.00  0.00    -0.078 S 
ATOM     14  C   UNL     1       5.403  -6.620   2.988  0.00  0.00    +0.043 C 
ATOM     15  C   UNL     1       5.881  -5.468   3.884  0.00  0.00    +0.005 C 
ATOM     16  C   UNL     1       4.776  -5.129   4.887  0.00  0.00    +0.005 C 
ATOM     17  C   UNL     1       3.599  -4.471   4.164  0.00  0.00    +0.037 C 
ATOM     18  C   UNL     1       0.792  -4.352   2.640  0.00  0.00    +0.248 C 
ATOM     19  O   UNL     1       0.804  -3.671   3.649  0.00  0.00    -0.270 OA
ATOM     20  N   UNL     1      -0.237  -4.300   1.769  0.00  0.00    -0.289 N 
ATOM     21  H   UNL     1       0.290  -7.008   0.040  0.00  0.00    +0.149 HD
ATOM     22  H   UNL     1      -1.022  -3.788   2.018  0.00  0.00    +0.151 HD
ENDBRANCH   3   7
BRANCH   1  23
ATOM     23  O   UNL     1       0.632  -0.472  -1.211  0.00  0.00    -0.489 OA
BRANCH  23  25
ATOM     24  C   UNL     1      -0.101   1.521  -0.057  0.00  0.00    +0.048 C 
ATOM     25  C   UNL     1      -0.060  -0.008  -0.050  0.00  0.00    +0.226 C 
ENDBRANCH  23  25
ENDBRANCH   1  23
BRANCH   6  26
ATOM     26  O   UNL     1       1.944  -1.504  -3.403  0.00  0.00    -0.419 OA
BRANCH  26  27
ATOM     27  C   UNL     1       3.132  -0.925  -3.142  0.00  0.00    +0.345 C 
ATOM     28  O   UNL     1       3.748  -1.227  -2.138  0.00  0.00    -0.245 OA
BRANCH  27  29
ATOM     29  C   UNL     1       3.686   0.073  -4.073  0.00  0.00    +0.067 A 
ATOM     30  C   UNL     1       2.943   0.518  -5.160  0.00  0.00    +0.015 A 
ATOM     31  C   UNL     1       3.467   1.459  -6.036  0.00  0.00    +0.001 A 
ATOM     32  C   UNL     1       4.714   1.979  -5.869  0.00  0.00    +0.008 A 
ATOM     33  C   UNL     1       5.521   1.576  -4.791  0.00  0.00    -0.017 A 
ATOM     34  C   UNL     1       5.025   0.622  -3.869  0.00  0.00    -0.004 A 
ATOM     35  C   UNL     1       5.824   0.221  -2.792  0.00  0.00    +0.009 A 
ATOM     36  C   UNL     1       7.067   0.758  -2.639  0.00  0.00    +0.001 A 
ATOM     37  C   UNL     1       7.556   1.700  -3.541  0.00  0.00    +0.001 A 
ATOM     38  C   UNL     1       6.810   2.104  -4.606  0.00  0.00    +0.008 A 
ENDBRANCH  27  29
ENDBRANCH  26  27
ENDBRANCH   6  26
TORSDOF 6
