REMARK  Name = ZINC02948282
REMARK  8 active torsions:
REMARK  status: ('A' for Active; 'I' for Inactive)
REMARK    1  A    between atoms: C_4  and  N_7
REMARK    2  A    between atoms: C_8  and  N_28
REMARK    3  A    between atoms: C_9  and  C_12
REMARK    4  A    between atoms: C_12  and  S_13
REMARK    5  A    between atoms: S_13  and  C_14
REMARK    6  A    between atoms: C_14  and  C_15
REMARK    7  A    between atoms: N_17  and  C_18
REMARK    8  A    between atoms: C_18  and  C_19
REMARK                            x       y       z     vdW  Elec       q    Type
REMARK                         _______ _______ _______ _____ _____    ______ ____
ROOT
ATOM      1  C   UNL     1       5.918  -3.376   0.800  0.00  0.00    +0.110 C 
ENDROOT
BRANCH   1   4
ATOM      2  N   UNL     1       3.623  -0.652  -0.036  0.00  0.00    -0.216 N 
ATOM      3  C   UNL     1       3.890  -1.835   0.581  0.00  0.00    +0.145 A 
ATOM      4  C   UNL     1       5.187  -2.150   0.318  0.00  0.00    +0.025 A 
ATOM      5  C   UNL     1       5.722  -1.133  -0.478  0.00  0.00    +0.141 A 
ATOM      6  N   UNL     1       4.789  -0.241  -0.695  0.00  0.00    -0.173 NA
BRANCH   2  10
ATOM      7  C   UNL     1      -0.017   1.379   0.010  0.00  0.00    +0.000 A 
ATOM      8  C   UNL     1       1.170   2.089   0.002  0.00  0.00    +0.002 A 
ATOM      9  C   UNL     1       2.377   1.419  -0.013  0.00  0.00    +0.028 A 
ATOM     10  C   UNL     1       2.400   0.031  -0.021  0.00  0.00    +0.068 A 
ATOM     11  C   UNL     1       1.207  -0.680  -0.013  0.00  0.00    +0.028 A 
ATOM     12  C   UNL     1       0.002  -0.004   0.002  0.00  0.00    +0.002 A 
ENDBRANCH   2  10
BRANCH   3  13
ATOM     13  N   UNL     1       2.995  -2.589   1.345  0.00  0.00    -0.308 N 
ATOM     14  C   UNL     1       2.824  -3.942   1.267  0.00  0.00    +0.092 A 
ATOM     15  C   UNL     1       1.877  -4.299   2.159  0.00  0.00    +0.019 A 
ATOM     16  C   UNL     1       1.447  -3.126   2.812  0.00  0.00    +0.019 A 
ATOM     17  C   UNL     1       2.150  -2.096   2.299  0.00  0.00    +0.092 A 
ENDBRANCH   3  13
ENDBRANCH   1   4
BRANCH   1  18
ATOM     18  S   UNL     1       5.722  -4.712  -0.411  0.00  0.00    -0.147 S 
BRANCH  18  19
ATOM     19  C   UNL     1       6.647  -6.096   0.308  0.00  0.00    +0.165 C 
BRANCH  19  20
ATOM     20  C   UNL     1       6.564  -7.288  -0.611  0.00  0.00    +0.223 C 
ATOM     21  O   UNL     1       5.942  -7.210  -1.649  0.00  0.00    -0.275 OA
ATOM     22  N   UNL     1       7.181  -8.439  -0.279  0.00  0.00    -0.311 N 
ATOM     23  H   UNL     1       7.678  -8.501   0.552  0.00  0.00    +0.149 HD
BRANCH  22  24
ATOM     24  C   UNL     1       7.101  -9.597  -1.172  0.00  0.00    +0.139 C 
BRANCH  24  25
ATOM     25  C   UNL     1       7.869 -10.748  -0.574  0.00  0.00    -0.027 A 
ATOM     26  C   UNL     1       9.212 -10.903  -0.861  0.00  0.00    +0.009 A 
ATOM     27  C   UNL     1       9.922 -11.956  -0.315  0.00  0.00    +0.050 A 
ATOM     28  C   UNL     1       9.287 -12.859   0.522  0.00  0.00    +0.166 A 
ATOM     29  C   UNL     1       7.934 -12.703   0.812  0.00  0.00    +0.167 A 
ATOM     30  C   UNL     1       7.231 -11.642   0.265  0.00  0.00    +0.054 A 
ATOM     31  O   UNL     1       7.547 -13.709   1.649  0.00  0.00    -0.453 OA
ATOM     32  C   UNL     1       8.574 -14.713   1.543  0.00  0.00    +0.466 C 
ATOM     33  O   UNL     1       9.748 -13.964   1.179  0.00  0.00    -0.453 OA
ENDBRANCH  24  25
ENDBRANCH  22  24
ENDBRANCH  19  20
ENDBRANCH  18  19
ENDBRANCH   1  18
TORSDOF 8
