REMARK  Name = ZINC09424412
REMARK  7 active torsions:
REMARK  status: ('A' for Active; 'I' for Inactive)
REMARK    1  A    between atoms: C_1  and  C_2
REMARK    2  A    between atoms: C_2  and  C_3
REMARK    3  A    between atoms: C_2  and  C_4
REMARK    4  A    between atoms: C_2  and  C_5
REMARK    5  A    between atoms: C_5  and  C_7
REMARK    6  A    between atoms: C_9  and  C_31
REMARK    7  A    between atoms: C_31  and  C_33
REMARK                            x       y       z     vdW  Elec       q    Type
REMARK                         _______ _______ _______ _____ _____    ______ ____
ROOT
ATOM      1  C   UNL     1       2.994   5.141   2.370  0.00  0.00    +0.136 C 
ATOM      2  C   UNL     1       4.336   4.448   2.014  0.00  0.00    +0.108 C 
ATOM      3  C   UNL     1       3.870   3.337   1.051  0.00  0.00    +0.107 C 
ATOM      4  C   UNL     1       4.971   2.853   0.175  0.00  0.00    -0.008 A 
ATOM      5  C   UNL     1       5.779   3.497  -0.738  0.00  0.00    +0.006 A 
ATOM      6  C   UNL     1       6.727   2.726  -1.400  0.00  0.00    +0.000 A 
ATOM      7  C   UNL     1       6.854   1.374  -1.153  0.00  0.00    +0.002 A 
ATOM      8  C   UNL     1       6.047   0.717  -0.237  0.00  0.00    +0.023 A 
ATOM      9  C   UNL     1       5.092   1.480   0.436  0.00  0.00    +0.038 A 
ATOM     10  N   UNL     1       4.168   1.088   1.390  0.00  0.00    -0.284 N 
ATOM     11  C   UNL     1       3.406   2.122   1.811  0.00  0.00    +0.231 C 
ATOM     12  O   UNL     1       2.521   2.080   2.640  0.00  0.00    -0.274 OA
ATOM     13  C   UNL     1       2.731   3.993   0.275  0.00  0.00    +0.107 C 
ATOM     14  C   UNL     1       0.936   5.628   0.917  0.00  0.00    +0.054 C 
ATOM     15  C   UNL     1       0.001   4.873   0.305  0.00  0.00    +0.022 C 
ATOM     16  C   UNL     1       0.306   3.463  -0.014  0.00  0.00    -0.019 A 
ATOM     17  C   UNL     1       1.632   3.014  -0.045  0.00  0.00    -0.020 A 
ATOM     18  C   UNL     1       1.913   1.705  -0.357  0.00  0.00    +0.006 A 
ATOM     19  C   UNL     1       0.882   0.823  -0.636  0.00  0.00    +0.000 A 
ATOM     20  C   UNL     1      -0.432   1.256  -0.609  0.00  0.00    +0.001 A 
ATOM     21  C   UNL     1      -0.727   2.567  -0.294  0.00  0.00    +0.008 A 
ATOM     22  H   UNL     1       4.078   0.179   1.717  0.00  0.00    +0.155 HD
ATOM     23  N   UNL     1       2.390   5.191   1.005  0.00  0.00    -0.384 NA
ATOM     24  H   UNL     1       2.900   5.940   0.522  0.00  0.00    +0.127 HD
ENDROOT
BRANCH   1  25
ATOM     25  C   UNL     1       3.228   6.598   2.676  0.00  0.00    +0.158 C 
ATOM     26  O   UNL     1       3.861   7.283   1.909  0.00  0.00    -0.295 OA
BRANCH  25  28
ATOM     27  C   UNL     1       3.150   8.647   4.070  0.00  0.00    +0.018 C 
ATOM     28  C   UNL     1       2.670   7.201   3.940  0.00  0.00    +0.022 C 
ATOM     29  C   UNL     1       1.141   7.174   3.886  0.00  0.00    +0.018 C 
ATOM     30  C   UNL     1       3.152   6.392   5.146  0.00  0.00    +0.018 C 
ENDBRANCH  25  28
ENDBRANCH   1  25
BRANCH   2  31
ATOM     31  C   UNL     1       4.983   3.862   3.242  0.00  0.00    +0.171 C 
ATOM     32  O   UNL     1       4.641   2.771   3.645  0.00  0.00    -0.292 OA
BRANCH  31  33
ATOM     33  C   UNL     1       6.030   4.613   3.951  0.00  0.00    +0.036 A 
ATOM     34  C   UNL     1       6.510   5.817   3.426  0.00  0.00    +0.013 A 
ATOM     35  C   UNL     1       7.487   6.518   4.099  0.00  0.00    +0.001 A 
ATOM     36  C   UNL     1       8.002   6.029   5.288  0.00  0.00    +0.001 A 
ATOM     37  C   UNL     1       7.537   4.836   5.813  0.00  0.00    +0.021 A 
ATOM     38  C   UNL     1       6.555   4.124   5.153  0.00  0.00    +0.051 A 
ATOM     39 CL   UNL     1       5.973   2.627   5.813  0.00  0.00    -0.083 Cl
ENDBRANCH  31  33
ENDBRANCH   2  31
TORSDOF 4
