REMARK  Name = ZINC11459178
REMARK  6 active torsions:
REMARK  status: ('A' for Active; 'I' for Inactive)
REMARK    1  A    between atoms: C_1  and  C_2
REMARK    2  A    between atoms: C_3  and  C_9
REMARK    3  A    between atoms: N_5  and  C_7
REMARK    4  A    between atoms: C_10  and  C_11
REMARK    5  A    between atoms: N_13  and  C_14
REMARK    6  A    between atoms: C_19  and  C_20
REMARK                            x       y       z     vdW  Elec       q    Type
REMARK                         _______ _______ _______ _____ _____    ______ ____
ROOT
ATOM      1  C   UNL     1       0.881  -0.441  -4.772  0.00  0.00    +0.241 C 
ATOM      2  O   UNL     1       0.065   0.385  -5.138  0.00  0.00    -0.270 OA
ATOM      3  N   UNL     1       1.779  -0.934  -5.648  0.00  0.00    -0.281 N 
ATOM      4  H   UNL     1       2.479  -1.530  -5.340  0.00  0.00    +0.155 HD
ENDROOT
BRANCH   3   5
ATOM      5  C   UNL     1       1.702  -0.585  -6.998  0.00  0.00    +0.041 A 
ATOM      6  C   UNL     1       0.490  -0.192  -7.547  0.00  0.00    +0.024 A 
ATOM      7  C   UNL     1       0.416   0.152  -8.883  0.00  0.00    +0.002 A 
ATOM      8  C   UNL     1       1.547   0.108  -9.680  0.00  0.00    +0.001 A 
ATOM      9  C   UNL     1       2.759  -0.282  -9.147  0.00  0.00    +0.010 A 
ATOM     10  C   UNL     1       2.848  -0.626  -7.801  0.00  0.00    +0.003 A 
BRANCH  10  11
ATOM     11  C   UNL     1       4.149  -1.040  -7.222  0.00  0.00    -0.016 A 
ATOM     12  C   UNL     1       4.604  -0.460  -6.039  0.00  0.00    +0.008 A 
ATOM     13  C   UNL     1       5.816  -0.849  -5.505  0.00  0.00    +0.001 A 
ATOM     14  C   UNL     1       6.578  -1.812  -6.141  0.00  0.00    +0.000 A 
ATOM     15  C   UNL     1       6.131  -2.391  -7.315  0.00  0.00    +0.001 A 
ATOM     16  C   UNL     1       4.918  -2.014  -7.855  0.00  0.00    +0.008 A 
ENDBRANCH  10  11
ENDBRANCH   3   5
BRANCH   1  18
ATOM     17  C   UNL     1      -0.014  -0.390  -2.548  0.00  0.00    +0.018 C 
ATOM     18  C   UNL     1       0.887  -0.884  -3.426  0.00  0.00    +0.068 C 
BRANCH  17  21
ATOM     19  C   UNL     1      -0.030   1.475   0.018  0.00  0.00    +0.068 C 
ATOM     20  C   UNL     1      -0.016  -0.031   0.001  0.00  0.00    +0.069 A 
ATOM     21  C   UNL     1      -0.009  -0.849  -1.154  0.00  0.00    +0.034 A 
ATOM     22  C   UNL     1       0.005  -2.165  -0.720  0.00  0.00    +0.134 A 
ATOM     23  N   UNL     1       0.006  -2.143   0.624  0.00  0.00    -0.255 N 
ATOM     24  N   UNL     1      -0.002  -0.809   1.047  0.00  0.00    -0.175 NA
ATOM     25  C   UNL     1       0.018  -3.318   1.499  0.00  0.00    +0.174 C 
ATOM     26 CL   UNL     1       0.018  -3.579  -1.726  0.00  0.00    -0.062 Cl
ENDBRANCH  17  21
ENDBRANCH   1  18
TORSDOF 4
