REMARK  Name = ZINC11662641
REMARK  8 active torsions:
REMARK  status: ('A' for Active; 'I' for Inactive)
REMARK    1  A    between atoms: C_1  and  O_2
REMARK    2  A    between atoms: O_2  and  C_3
REMARK    3  A    between atoms: C_8  and  C_9
REMARK    4  A    between atoms: C_10  and  C_11
REMARK    5  A    between atoms: C_11  and  N_67
REMARK    6  A    between atoms: C_17  and  C_19
REMARK    7  A    between atoms: C_19  and  C_20
REMARK    8  A    between atoms: N_22  and  C_23
REMARK                            x       y       z     vdW  Elec       q    Type
REMARK                         _______ _______ _______ _____ _____    ______ ____
ROOT
ATOM      1  C   UNL     1       6.447   1.987   1.718  0.00  0.00    -0.058 C 
ATOM      2  C   UNL     1       7.463   1.821   2.850  0.00  0.00    +0.085 C 
ATOM      3  N   UNL     1       8.610   2.696   2.625  0.00  0.00    -0.318 N 
ATOM      4  C   UNL     1       8.574   3.743   1.793  0.00  0.00    +0.200 C 
ATOM      5  O   UNL     1       9.564   4.436   1.689  0.00  0.00    -0.278 OA
ATOM      6  C   UNL     1       7.359   4.095   0.982  0.00  0.00    +0.028 C 
ATOM      7  H   UNL     1       9.435   2.510   3.100  0.00  0.00    +0.149 HD
ATOM      8  N   UNL     1       6.175   3.430   1.556  0.00  0.00    +0.391 N 
ATOM      9  H   UNL     1       5.972   3.839   2.475  0.00  0.00    -0.080 HD
ENDROOT
BRANCH   8  10
ATOM     10  C   UNL     1       5.004   3.629   0.671  0.00  0.00    -0.050 C 
BRANCH  10  12
ATOM     11  C   UNL     1       2.692   3.469   1.484  0.00  0.00    +0.005 C 
ATOM     12  C   UNL     1       3.835   2.850   1.217  0.00  0.00    -0.045 C 
BRANCH  11  18
ATOM     13  C   UNL     1       0.339   3.354   2.302  0.00  0.00    +0.127 A 
ATOM     14  C   UNL     1      -0.730   2.629   2.804  0.00  0.00    +0.046 A 
ATOM     15  C   UNL     1      -0.605   1.270   3.018  0.00  0.00    +0.004 A 
ATOM     16  C   UNL     1       0.589   0.625   2.745  0.00  0.00    +0.001 A 
ATOM     17  C   UNL     1       1.663   1.333   2.245  0.00  0.00    +0.011 A 
ATOM     18  C   UNL     1       1.547   2.705   2.018  0.00  0.00    +0.016 A 
BRANCH  13  20
ATOM     19  C   UNL     1      -1.046   5.283   2.397  0.00  0.00    +0.277 C 
ATOM     20  O   UNL     1       0.216   4.689   2.085  0.00  0.00    -0.495 OA
ENDBRANCH  13  20
ENDBRANCH  11  18
ENDBRANCH  10  12
ENDBRANCH   8  10
BRANCH   6  21
ATOM     21  C   UNL     1       7.146   5.610   1.019  0.00  0.00    +0.089 C 
BRANCH  21  22
ATOM     22  C   UNL     1       6.867   6.043   2.435  0.00  0.00    +0.212 C 
ATOM     23  O   UNL     1       6.742   5.213   3.310  0.00  0.00    -0.276 OA
ATOM     24  N   UNL     1       6.756   7.354   2.729  0.00  0.00    -0.312 N 
ATOM     25  H   UNL     1       6.856   8.018   2.029  0.00  0.00    +0.149 HD
BRANCH  24  26
ATOM     26  C   UNL     1       6.484   7.775   4.105  0.00  0.00    +0.079 C 
ATOM     27  C   UNL     1       4.976   7.740   4.361  0.00  0.00    +0.010 C 
ATOM     28  C   UNL     1       4.693   8.181   5.799  0.00  0.00    +0.009 C 
ATOM     29  C   UNL     1       5.213   9.604   6.008  0.00  0.00    -0.010 C 
ATOM     30  C   UNL     1       4.508  10.553   5.036  0.00  0.00    +0.007 C 
ATOM     31  C   UNL     1       4.792  10.113   3.599  0.00  0.00    -0.010 C 
ATOM     32  C   UNL     1       4.272   8.689   3.389  0.00  0.00    +0.009 C 
ATOM     33  C   UNL     1       6.300  10.147   3.343  0.00  0.00    +0.009 C 
ATOM     34  C   UNL     1       7.004   9.199   4.315  0.00  0.00    +0.010 C 
ATOM     35  C   UNL     1       6.721   9.639   5.752  0.00  0.00    +0.009 C 
ENDBRANCH  24  26
ENDBRANCH  21  22
ENDBRANCH   6  21
TORSDOF 7
