REMARK  Name = ZINC46756945
REMARK  15 active torsions:
REMARK  status: ('A' for Active; 'I' for Inactive)
REMARK    1  A    between atoms: C_1  and  C_2
REMARK    2  A    between atoms: C_2  and  C_3
REMARK    3  A    between atoms: C_2  and  N_4
REMARK    4  A    between atoms: N_4  and  C_5
REMARK    5  A    between atoms: N_4  and  C_6
REMARK    6  A    between atoms: C_6  and  C_7
REMARK    7  A    between atoms: C_12  and  C_13
REMARK    8  A    between atoms: C_13  and  N_14
REMARK    9  A    between atoms: C_15  and  C_17
REMARK   10  A    between atoms: C_17  and  C_19
REMARK   11  A    between atoms: C_17  and  N_26
REMARK   12  A    between atoms: C_19  and  C_20
REMARK   13  A    between atoms: C_27  and  O_29
REMARK   14  A    between atoms: O_29  and  C_30
REMARK   15  A    between atoms: C_30  and  C_31
REMARK                            x       y       z     vdW  Elec       q    Type
REMARK                         _______ _______ _______ _____ _____    ______ ____
ROOT
ATOM      1  C   UNL     1      -3.409  -4.377   2.703  0.00  0.00    +0.166 C 
ENDROOT
BRANCH   1   3
ATOM      2  N   UNL     1      -1.187  -3.431   3.239  0.00  0.00    -0.310 N 
ATOM      3  C   UNL     1      -2.528  -3.308   3.296  0.00  0.00    +0.234 C 
ATOM      4  O   UNL     1      -3.026  -2.337   3.826  0.00  0.00    -0.274 OA
ATOM      5  H   UNL     1      -0.789  -4.208   2.815  0.00  0.00    +0.149 HD
BRANCH   2   6
ATOM      6  C   UNL     1      -0.331  -2.392   3.815  0.00  0.00    +0.139 C 
BRANCH   6  12
ATOM      7  C   UNL     1       1.647  -2.368   2.282  0.00  0.00    -0.059 A 
ATOM      8  C   UNL     1       2.973  -2.650   2.006  0.00  0.00    +0.002 A 
ATOM      9  C   UNL     1       3.760  -3.272   2.956  0.00  0.00    +0.000 A 
ATOM     10  C   UNL     1       3.223  -3.612   4.184  0.00  0.00    +0.000 A 
ATOM     11  C   UNL     1       1.898  -3.330   4.461  0.00  0.00    +0.005 A 
ATOM     12  C   UNL     1       1.112  -2.704   3.511  0.00  0.00    -0.029 A 
BRANCH   7  13
ATOM     13  C   UNL     1       0.789  -1.690   1.246  0.00  0.00    -0.043 C 
BRANCH  13  14
ATOM     14  N   UNL     1      -0.017  -2.697   0.543  0.00  0.00    +0.382 N 
ATOM     15  C   UNL     1       0.868  -3.594  -0.211  0.00  0.00    -0.095 C 
ATOM     16  H   UNL     1      -0.546  -3.233   1.214  0.00  0.00    -0.081 HD
BRANCH  14  18
ATOM     17  C   UNL     1      -1.779  -3.075  -1.116  0.00  0.00    -0.014 C 
ATOM     18  C   UNL     1      -0.939  -2.027  -0.384  0.00  0.00    -0.075 C 
ATOM     19  C   UNL     1      -1.862  -1.092   0.402  0.00  0.00    -0.014 C 
ENDBRANCH  14  18
ENDBRANCH  13  14
ENDBRANCH   7  13
ENDBRANCH   6  12
ENDBRANCH   2   6
ENDBRANCH   1   3
BRANCH   1  20
ATOM     20  N   UNL     1      -4.815  -4.012   2.893  0.00  0.00    -0.269 N 
ATOM     21  C   UNL     1      -5.756  -4.496   2.058  0.00  0.00    +0.401 C 
ATOM     22  O   UNL     1      -5.438  -5.236   1.148  0.00  0.00    -0.226 OA
ATOM     23  H   UNL     1      -5.069  -3.422   3.620  0.00  0.00    +0.153 HD
BRANCH  21  24
ATOM     24  O   UNL     1      -7.048  -4.161   2.233  0.00  0.00    -0.446 OA
BRANCH  24  25
ATOM     25  C   UNL     1      -7.991  -4.711   1.311  0.00  0.00    +0.269 C 
BRANCH  25  26
ATOM     26  C   UNL     1      -9.376  -4.228   1.661  0.00  0.00    -0.010 A 
ATOM     27  C   UNL     1     -10.157  -4.951   2.542  0.00  0.00    +0.007 A 
ATOM     28  C   UNL     1     -11.427  -4.509   2.863  0.00  0.00    +0.000 A 
ATOM     29  C   UNL     1     -11.915  -3.343   2.303  0.00  0.00    +0.000 A 
ATOM     30  C   UNL     1     -11.133  -2.620   1.422  0.00  0.00    +0.000 A 
ATOM     31  C   UNL     1      -9.861  -3.060   1.104  0.00  0.00    +0.007 A 
ENDBRANCH  25  26
ENDBRANCH  24  25
ENDBRANCH  21  24
ENDBRANCH   1  20
BRANCH   1  32
ATOM     32  C   UNL     1      -3.130  -5.712   3.398  0.00  0.00    +0.067 C 
BRANCH  32  33
ATOM     33  C   UNL     1      -3.920  -6.804   2.724  0.00  0.00    -0.045 A 
ATOM     34  C   UNL     1      -5.198  -7.102   3.160  0.00  0.00    +0.004 A 
ATOM     35  C   UNL     1      -5.922  -8.104   2.542  0.00  0.00    +0.000 A 
ATOM     36  C   UNL     1      -5.370  -8.807   1.488  0.00  0.00    +0.000 A 
ATOM     37  C   UNL     1      -4.092  -8.508   1.052  0.00  0.00    +0.000 A 
ATOM     38  C   UNL     1      -3.369  -7.503   1.667  0.00  0.00    +0.004 A 
ENDBRANCH  32  33
ENDBRANCH   1  32
TORSDOF 12
