REMARK  Name = ZINC04252102
REMARK  7 active torsions:
REMARK  status: ('A' for Active; 'I' for Inactive)
REMARK    1  A    between atoms: C_1  and  N_2
REMARK    2  A    between atoms: C_6  and  C_8
REMARK    3  A    between atoms: C_8  and  C_10
REMARK    4  A    between atoms: C_8  and  S_16
REMARK    5  A    between atoms: S_16  and  C_17
REMARK    6  A    between atoms: C_19  and  C_23
REMARK    7  A    between atoms: N_21  and  N_22
REMARK                            x       y       z     vdW  Elec       q    Type
REMARK                         _______ _______ _______ _____ _____    ______ ____
ROOT
ATOM      1  C   UNL     1       3.672   2.182  -0.024  0.00  0.00    +0.170 C 
ENDROOT
BRANCH   1   7
ATOM      2  C   UNL     1       4.835   3.617   5.820  0.00  0.00    +0.129 C 
ATOM      3  N   UNL     1       4.756   2.780   4.621  0.00  0.00    -0.302 N 
ATOM      4  C   UNL     1       4.290   3.297   3.467  0.00  0.00    +0.306 C 
ATOM      5  O   UNL     1       3.935   4.458   3.421  0.00  0.00    -0.252 OA
ATOM      6  N   UNL     1       4.218   2.526   2.364  0.00  0.00    -0.239 N 
ATOM      7  C   UNL     1       3.752   3.043   1.210  0.00  0.00    +0.238 C 
ATOM      8  O   UNL     1       3.398   4.202   1.164  0.00  0.00    -0.274 OA
ATOM      9  H   UNL     1       5.040   1.853   4.657  0.00  0.00    +0.150 HD
ATOM     10  H   UNL     1       4.502   1.599   2.400  0.00  0.00    +0.159 HD
ENDBRANCH   1   7
BRANCH   1  11
ATOM     11  C   UNL     1       2.377   1.411  -0.015  0.00  0.00    -0.025 A 
ATOM     12  C   UNL     1       1.171   2.086   0.002  0.00  0.00    +0.005 A 
ATOM     13  C   UNL     1      -0.017   1.378   0.010  0.00  0.00    +0.000 A 
ATOM     14  C   UNL     1       0.002  -0.004   0.002  0.00  0.00    +0.000 A 
ATOM     15  C   UNL     1       1.208  -0.679  -0.013  0.00  0.00    +0.000 A 
ATOM     16  C   UNL     1       2.396   0.029  -0.022  0.00  0.00    +0.005 A 
ENDBRANCH   1  11
BRANCH   1  17
ATOM     17  S   UNL     1       3.739   3.231  -1.498  0.00  0.00    -0.069 S 
BRANCH  17  18
ATOM     18  C   UNL     1       3.781   1.994  -2.752  0.00  0.00    +0.187 A 
ATOM     19  N   UNL     1       3.769   0.698  -2.548  0.00  0.00    -0.221 NA
ATOM     20  C   UNL     1       3.808   0.060  -3.745  0.00  0.00    +0.092 A 
ATOM     21  C   UNL     1       3.854   1.002  -4.719  0.00  0.00    +0.138 A 
ATOM     22  N   UNL     1       3.837   2.225  -4.093  0.00  0.00    -0.251 N 
BRANCH  20  23
ATOM     23  C   UNL     1       3.808  -1.409  -3.950  0.00  0.00    +0.002 A 
ATOM     24  C   UNL     1       3.852  -1.935  -5.241  0.00  0.00    +0.010 A 
ATOM     25  C   UNL     1       3.856  -3.302  -5.426  0.00  0.00    +0.001 A 
ATOM     26  C   UNL     1       3.806  -4.151  -4.335  0.00  0.00    +0.000 A 
ATOM     27  C   UNL     1       3.757  -3.635  -3.052  0.00  0.00    +0.001 A 
ATOM     28  C   UNL     1       3.758  -2.269  -2.855  0.00  0.00    +0.010 A 
ENDBRANCH  20  23
BRANCH  22  29
ATOM     29  N   UNL     1       3.869   3.447  -4.703  0.00  0.00    -0.296 N 
ATOM     30  H   UNL     1       4.819   3.764  -4.826  0.00  0.00    +0.163 HD
ATOM     31  H   UNL     1       3.378   3.424  -5.584  0.00  0.00    +0.163 HD
ENDBRANCH  22  29
ENDBRANCH  17  18
ENDBRANCH   1  17
TORSDOF 6
