REMARK  Name = ZINC13685106
REMARK  4 active torsions:
REMARK  status: ('A' for Active; 'I' for Inactive)
REMARK    1  A    between atoms: C_1  and  C_2
REMARK    2  A    between atoms: C_2  and  C_3
REMARK    3  A    between atoms: C_2  and  C_4
REMARK    4  A    between atoms: N_12  and  C_15
REMARK                            x       y       z     vdW  Elec       q    Type
REMARK                         _______ _______ _______ _____ _____    ______ ____
ROOT
ATOM      1  C   UNL     1       0.713  -0.511  -1.227  0.00  0.00    +0.070 C 
ATOM      2  C   UNL     1       0.712  -2.053  -1.302  0.00  0.00    +0.107 C 
ATOM      3  C   UNL     1       0.534  -2.378  -2.812  0.00  0.00    +0.121 C 
ATOM      4  C   UNL     1       1.847  -3.026  -3.186  0.00  0.00    +0.233 C 
ATOM      5  O   UNL     1       2.138  -3.432  -4.291  0.00  0.00    -0.274 OA
ATOM      6  N   UNL     1       2.639  -3.082  -2.109  0.00  0.00    -0.210 N 
ATOM      7  C   UNL     1       2.097  -2.567  -0.980  0.00  0.00    +0.232 C 
ATOM      8  O   UNL     1       2.627  -2.518   0.109  0.00  0.00    -0.274 OA
ATOM      9  C   UNL     1       0.402  -1.009  -3.490  0.00  0.00    +0.118 C 
ATOM     10  N   UNL     1      -0.021  -0.068  -2.442  0.00  0.00    -0.296 NA
ATOM     11  C   UNL     1      -0.565  -1.053  -4.637  0.00  0.00    +0.005 A 
ATOM     12  C   UNL     1      -1.901  -1.376  -4.736  0.00  0.00    +0.008 A 
ATOM     13  C   UNL     1      -2.537  -1.321  -5.963  0.00  0.00    +0.000 A 
ATOM     14  C   UNL     1      -1.830  -0.941  -7.089  0.00  0.00    +0.002 A 
ATOM     15  C   UNL     1      -0.492  -0.617  -6.994  0.00  0.00    +0.026 A 
ATOM     16  C   UNL     1       0.154  -0.670  -5.762  0.00  0.00    +0.057 A 
ATOM     17  N   UNL     1       1.488  -0.390  -5.423  0.00  0.00    -0.262 N 
ATOM     18  C   UNL     1       1.712  -0.567  -4.090  0.00  0.00    +0.143 A 
ATOM     19  N   UNL     1       2.872  -0.366  -3.533  0.00  0.00    -0.231 NA
ATOM     20  C   UNL     1       3.954   0.035  -4.242  0.00  0.00    +0.078 A 
ATOM     21  C   UNL     1       5.194   0.248  -3.637  0.00  0.00    +0.028 A 
ATOM     22  C   UNL     1       6.265   0.654  -4.400  0.00  0.00    +0.002 A 
ATOM     23  C   UNL     1       6.129   0.854  -5.768  0.00  0.00    +0.001 A 
ATOM     24  C   UNL     1       4.916   0.651  -6.388  0.00  0.00    +0.015 A 
ATOM     25  C   UNL     1       3.819   0.241  -5.633  0.00  0.00    +0.065 A 
ATOM     26  C   UNL     1       2.501   0.010  -6.237  0.00  0.00    +0.266 A 
ATOM     27  O   UNL     1       2.321   0.171  -7.430  0.00  0.00    -0.267 OA
ATOM     28  H   UNL     1      -1.018  -0.123  -2.302  0.00  0.00    +0.123 HD
ENDROOT
BRANCH   6  29
ATOM     29  C   UNL     1       3.926  -3.636  -2.142  0.00  0.00    +0.044 A 
ATOM     30  C   UNL     1       5.036  -2.829  -1.934  0.00  0.00    +0.025 A 
ATOM     31  C   UNL     1       6.303  -3.377  -1.967  0.00  0.00    +0.022 A 
ATOM     32  C   UNL     1       6.467  -4.731  -2.207  0.00  0.00    +0.041 A 
ATOM     33  C   UNL     1       5.362  -5.537  -2.415  0.00  0.00    +0.022 A 
ATOM     34  C   UNL     1       4.093  -4.995  -2.377  0.00  0.00    +0.025 A 
ATOM     35 CL   UNL     1       8.061  -5.417  -2.248  0.00  0.00    -0.084 Cl
ENDBRANCH   6  29
BRANCH   1  37
ATOM     36  C   UNL     1      -0.032   1.490   0.069  0.00  0.00    +0.009 C 
ATOM     37  C   UNL     1      -0.012  -0.039   0.035  0.00  0.00    +0.001 C 
ATOM     38  C   UNL     1      -1.448  -0.568   0.026  0.00  0.00    +0.009 C 
ENDBRANCH   1  37
TORSDOF 2
