REMARK  Name = ZINC39634429
REMARK  10 active torsions:
REMARK  status: ('A' for Active; 'I' for Inactive)
REMARK    1  A    between atoms: C_1  and  C_2
REMARK    2  A    between atoms: C_5  and  C_8
REMARK    3  A    between atoms: C_8  and  N_9
REMARK    4  A    between atoms: C_10  and  C_12
REMARK    5  A    between atoms: C_23  and  C_25
REMARK    6  A    between atoms: C_25  and  C_27
REMARK    7  A    between atoms: C_25  and  O_30
REMARK    8  A    between atoms: C_27  and  C_28
REMARK    9  A    between atoms: C_27  and  C_29
REMARK   10  A    between atoms: O_30  and  C_31
REMARK                            x       y       z     vdW  Elec       q    Type
REMARK                         _______ _______ _______ _____ _____    ______ ____
ROOT
ATOM      1  C   UNL     1       3.362  -6.527   0.326  0.00  0.00    +0.100 C 
ATOM      2  C   UNL     1       3.929  -6.142  -1.058  0.00  0.00    +0.121 C 
ATOM      3  N   UNL     1       4.735  -7.314  -1.472  0.00  0.00    -0.297 N 
ATOM      4  C   UNL     1       3.940  -8.484  -1.028  0.00  0.00    +0.115 C 
ATOM      5  C   UNL     1       3.370  -8.065   0.342  0.00  0.00    -0.004 C 
ATOM      6  C   UNL     1       4.267  -8.577   1.465  0.00  0.00    -0.010 C 
ATOM      7  C   UNL     1       4.214 -10.107   1.497  0.00  0.00    -0.082 C 
ATOM      8  N   UNL     1       2.830 -10.547   1.709  0.00  0.00    +0.379 N 
ATOM      9  C   UNL     1       1.992 -10.129   0.578  0.00  0.00    -0.082 C 
ATOM     10  C   UNL     1       1.951  -8.600   0.508  0.00  0.00    -0.010 C 
ATOM     11  C   UNL     1       5.923  -7.317  -2.110  0.00  0.00    +0.257 C 
ATOM     12  O   UNL     1       6.422  -8.366  -2.458  0.00  0.00    -0.272 OA
ATOM     13  H   UNL     1       2.806 -11.552   1.791  0.00  0.00    -0.086 HD
ATOM     14  H   UNL     1       2.474 -10.135   2.559  0.00  0.00    -0.086 HD
ENDROOT
BRANCH   1  16
ATOM     15  N   UNL     1       1.428  -5.846   1.709  0.00  0.00    -0.311 N 
ATOM     16  C   UNL     1       1.955  -6.009   0.480  0.00  0.00    +0.218 C 
ATOM     17  O   UNL     1       1.298  -5.738  -0.503  0.00  0.00    -0.275 OA
ATOM     18  H   UNL     1       1.953  -6.062   2.495  0.00  0.00    +0.149 HD
BRANCH  15  19
ATOM     19  C   UNL     1       0.060  -5.341   1.859  0.00  0.00    +0.139 C 
BRANCH  19  24
ATOM     20  C   UNL     1      -1.267  -4.999   7.472  0.00  0.00    +0.044 C 
ATOM     21  C   UNL     1      -0.921  -5.088   6.008  0.00  0.00    -0.050 A 
ATOM     22  C   UNL     1      -0.344  -4.008   5.367  0.00  0.00    +0.003 A 
ATOM     23  C   UNL     1      -0.027  -4.090   4.024  0.00  0.00    +0.005 A 
ATOM     24  C   UNL     1      -0.285  -5.253   3.323  0.00  0.00    -0.030 A 
ATOM     25  C   UNL     1      -0.861  -6.333   3.964  0.00  0.00    +0.005 A 
ATOM     26  C   UNL     1      -1.175  -6.253   5.308  0.00  0.00    +0.003 A 
ENDBRANCH  19  24
ENDBRANCH  15  19
ENDBRANCH   1  16
BRANCH  11  27
ATOM     27  C   UNL     1       6.631  -6.016  -2.389  0.00  0.00    +0.261 C 
BRANCH  27  28
ATOM     28  C   UNL     1       6.151  -5.452  -3.728  0.00  0.00    +0.033 C 
ATOM     29  C   UNL     1       4.627  -5.319  -3.708  0.00  0.00    +0.011 C 
ATOM     30  C   UNL     1       6.779  -4.075  -3.956  0.00  0.00    +0.011 C 
ENDBRANCH  27  28
BRANCH  27  31
ATOM     31  O   UNL     1       8.041  -6.243  -2.446  0.00  0.00    -0.479 OA
BRANCH  31  32
ATOM     32  C   UNL     1       8.845  -5.246  -1.994  0.00  0.00    +0.122 A 
ATOM     33  C   UNL     1       8.290  -4.112  -1.419  0.00  0.00    +0.045 A 
ATOM     34  C   UNL     1       9.110  -3.099  -0.960  0.00  0.00    +0.004 A 
ATOM     35  C   UNL     1      10.483  -3.216  -1.072  0.00  0.00    +0.000 A 
ATOM     36  C   UNL     1      11.039  -4.345  -1.645  0.00  0.00    +0.004 A 
ATOM     37  C   UNL     1      10.223  -5.363  -2.100  0.00  0.00    +0.045 A 
ENDBRANCH  31  32
ENDBRANCH  27  31
ENDBRANCH  11  27
TORSDOF 7
