REMARK  Name = ZINC35585738
REMARK  6 active torsions:
REMARK  status: ('A' for Active; 'I' for Inactive)
REMARK    1  A    between atoms: C_1  and  C_2
REMARK    2  A    between atoms: C_6  and  C_22
REMARK    3  A    between atoms: C_7  and  O_9
REMARK    4  A    between atoms: C_13  and  C_14
REMARK    5  A    between atoms: C_17  and  O_21
REMARK    6  A    between atoms: C_18  and  O_20
REMARK                            x       y       z     vdW  Elec       q    Type
REMARK                         _______ _______ _______ _____ _____    ______ ____
ROOT
ATOM      1  C   UNL     1      -0.019   1.526   0.010  0.00  0.00    +0.013 C 
ATOM      2  C   UNL     1       0.002  -0.004   0.002  0.00  0.00    -0.007 C 
ATOM      3  C   UNL     1      -1.430  -0.549   0.018  0.00  0.00    -0.066 C 
ATOM      4  N   UNL     1      -1.399  -2.014  -0.017  0.00  0.00    +0.394 N 
ATOM      5  C   UNL     1      -0.730  -2.537   1.178  0.00  0.00    -0.061 C 
ATOM      6  C   UNL     1       0.726  -2.060   1.202  0.00  0.00    +0.020 C 
ATOM      7  C   UNL     1       0.742  -0.527   1.241  0.00  0.00    +0.130 C 
ATOM      8  C   UNL     1       1.416  -2.527  -0.085  0.00  0.00    +0.095 C 
ATOM      9  N   UNL     1       0.674  -1.998  -1.239  0.00  0.00    -0.310 NA
ATOM     10  C   UNL     1       0.724  -0.513  -1.252  0.00  0.00    +0.090 C 
ATOM     11  C   UNL     1      -0.715  -2.479  -1.227  0.00  0.00    +0.033 C 
ATOM     12  H   UNL     1      -2.347  -2.360  -0.026  0.00  0.00    -0.079 HD
ENDROOT
BRANCH  11  13
ATOM     13  C   UNL     1      -1.435  -1.954  -2.442  0.00  0.00    -0.044 A 
ATOM     14  C   UNL     1      -2.798  -1.723  -2.389  0.00  0.00    +0.007 A 
ATOM     15  C   UNL     1      -3.463  -1.242  -3.501  0.00  0.00    +0.049 A 
ATOM     16  C   UNL     1      -2.766  -0.990  -4.671  0.00  0.00    +0.158 A 
ATOM     17  C   UNL     1      -1.395  -1.222  -4.724  0.00  0.00    +0.158 A 
ATOM     18  C   UNL     1      -0.732  -1.700  -3.605  0.00  0.00    +0.052 A 
BRANCH  17  19
ATOM     19  O   UNL     1      -0.705  -0.976  -5.870  0.00  0.00    -0.503 OA
ATOM     20  H   UNL     1      -0.355  -0.076  -5.934  0.00  0.00    +0.292 HD
ENDBRANCH  17  19
BRANCH  16  21
ATOM     21  O   UNL     1      -3.419  -0.517  -5.766  0.00  0.00    -0.503 OA
ATOM     22  H   UNL     1      -3.458   0.448  -5.815  0.00  0.00    +0.292 HD
ENDBRANCH  16  21
ENDBRANCH  11  13
BRANCH   6  23
ATOM     23  C   UNL     1       1.431  -2.614   2.414  0.00  0.00    -0.039 A 
ATOM     24  C   UNL     1       1.970  -1.755   3.353  0.00  0.00    +0.004 A 
ATOM     25  C   UNL     1       2.616  -2.263   4.464  0.00  0.00    +0.000 A 
ATOM     26  C   UNL     1       2.723  -3.631   4.636  0.00  0.00    +0.000 A 
ATOM     27  C   UNL     1       2.183  -4.490   3.698  0.00  0.00    +0.000 A 
ATOM     28  C   UNL     1       1.533  -3.982   2.589  0.00  0.00    +0.004 A 
ENDBRANCH   6  23
BRANCH   7  29
ATOM     29  O   UNL     1       2.087  -0.045   1.236  0.00  0.00    -0.390 OA
ATOM     30  H   UNL     1       2.160   0.919   1.248  0.00  0.00    +0.210 HD
ENDBRANCH   7  29
TORSDOF 5
