REMARK  Name = ZINC02109520
REMARK  6 active torsions:
REMARK  status: ('A' for Active; 'I' for Inactive)
REMARK    1  A    between atoms: C_1  and  N_52
REMARK    2  A    between atoms: C_8  and  O_29
REMARK    3  A    between atoms: C_10  and  C_12
REMARK    4  A    between atoms: N_19  and  C_22
REMARK    5  A    between atoms: C_20  and  O_21
REMARK    6  A    between atoms: O_29  and  C_30
REMARK                            x       y       z     vdW  Elec       q    Type
REMARK                         _______ _______ _______ _____ _____    ______ ____
ROOT
ATOM      1  C   UNL     1       2.445  -4.109  -0.145  0.00  0.00    +0.068 A 
ATOM      2  C   UNL     1       1.228  -4.805  -0.029  0.00  0.00    +0.258 A 
ATOM      3  O   UNL     1       1.215  -6.024  -0.031  0.00  0.00    -0.267 OA
ATOM      4  N   UNL     1       0.076  -4.114   0.083  0.00  0.00    -0.302 N 
ATOM      5  H   UNL     1      -0.765  -4.591   0.163  0.00  0.00    +0.171 HD
ATOM      6  C   UNL     1       0.084  -2.769   0.091  0.00  0.00    +0.168 A 
ATOM      7  S   UNL     1      -1.394  -1.918   0.241  0.00  0.00    -0.012 S 
ATOM      8  N   UNL     1       1.235  -2.082  -0.024  0.00  0.00    -0.260 N 
ATOM      9  C   UNL     1       2.432  -2.746  -0.140  0.00  0.00    +0.206 A 
ENDROOT
BRANCH   1  19
ATOM     10  C   UNL     1       3.970  -5.051   2.130  0.00  0.00    -0.095 C 
ATOM     11  C   UNL     1       5.056  -6.651   0.669  0.00  0.00    -0.073 C 
ATOM     12  C   UNL     1       4.748  -7.644  -0.452  0.00  0.00    +0.017 C 
ATOM     13  C   UNL     1       4.227  -6.909  -1.661  0.00  0.00    -0.040 A 
ATOM     14  C   UNL     1       4.226  -7.566  -2.882  0.00  0.00    +0.053 A 
ATOM     15  C   UNL     1       3.754  -6.936  -4.020  0.00  0.00    +0.170 A 
ATOM     16  C   UNL     1       3.278  -5.632  -3.937  0.00  0.00    +0.208 A 
ATOM     17  C   UNL     1       3.281  -4.976  -2.714  0.00  0.00    +0.167 A 
ATOM     18  C   UNL     1       3.758  -5.616  -1.574  0.00  0.00    -0.008 A 
ATOM     19  C   UNL     1       3.745  -4.860  -0.271  0.00  0.00    +0.007 C 
ATOM     20  O   UNL     1       2.873  -5.235  -5.180  0.00  0.00    -0.449 OA
ATOM     21  C   UNL     1       3.485  -6.161  -6.097  0.00  0.00    +0.467 C 
ATOM     22  O   UNL     1       3.649  -7.358  -5.314  0.00  0.00    -0.452 OA
ATOM     23  N   UNL     1       3.864  -5.799   0.857  0.00  0.00    +0.386 N 
ATOM     24  H   UNL     1       3.028  -6.394   0.887  0.00  0.00    -0.081 HD
BRANCH  17  25
ATOM     25  O   UNL     1       2.817  -3.701  -2.630  0.00  0.00    -0.491 OA
ATOM     26  C   UNL     1       3.765  -2.650  -2.830  0.00  0.00    +0.277 C 
ENDBRANCH  17  25
ENDBRANCH   1  19
BRANCH   8  27
ATOM     27  C   UNL     1       1.214  -0.681  -0.018  0.00  0.00    +0.052 A 
ATOM     28  C   UNL     1       1.083   0.017  -1.211  0.00  0.00    +0.029 A 
ATOM     29  C   UNL     1       1.062   1.398  -1.203  0.00  0.00    +0.040 A 
ATOM     30  C   UNL     1       1.173   2.086  -0.006  0.00  0.00    +0.124 A 
ATOM     31  C   UNL     1       1.303   1.392   1.185  0.00  0.00    +0.040 A 
ATOM     32  C   UNL     1       1.324   0.011   1.181  0.00  0.00    +0.029 A 
ATOM     33  F   UNL     1       1.152   3.437  -0.001  0.00  0.00    -0.205 F 
ENDBRANCH   8  27
BRANCH   9  34
ATOM     34  O   UNL     1       3.586  -2.054  -0.249  0.00  0.00    -0.493 OA
ATOM     35  H   UNL     1       3.481  -1.097  -0.158  0.00  0.00    +0.294 HD
ENDBRANCH   9  34
TORSDOF 4
