REMARK  Name = ZINC34830193
REMARK  7 active torsions:
REMARK  status: ('A' for Active; 'I' for Inactive)
REMARK    1  A    between atoms: C_1  and  C_2
REMARK    2  A    between atoms: C_7  and  C_8
REMARK    3  A    between atoms: N_17  and  C_18
REMARK    4  A    between atoms: C_18  and  C_19
REMARK    5  A    between atoms: C_19  and  C_20
REMARK    6  A    between atoms: C_28  and  C_30
REMARK    7  A    between atoms: C_33  and  N_36
REMARK                            x       y       z     vdW  Elec       q    Type
REMARK                         _______ _______ _______ _____ _____    ______ ____
ROOT
ATOM      1  C   UNL     1       3.643  -1.028   5.162  0.00  0.00    +0.077 C 
ENDROOT
BRANCH   1   2
ATOM      2  C   UNL     1       4.936  -1.573   4.611  0.00  0.00    +0.214 C 
ATOM      3  O   UNL     1       5.449  -1.054   3.642  0.00  0.00    -0.276 OA
ATOM      4  N   UNL     1       5.523  -2.636   5.196  0.00  0.00    -0.299 N 
ATOM      5  C   UNL     1       4.910  -3.278   6.367  0.00  0.00    +0.126 C 
ATOM      6  C   UNL     1       4.720  -4.770   6.065  0.00  0.00    +0.127 C 
ATOM      7  N   UNL     1       5.984  -5.308   5.542  0.00  0.00    -0.295 N 
ATOM      8  C   UNL     1       6.596  -4.666   4.370  0.00  0.00    +0.127 C 
ATOM      9  C   UNL     1       6.784  -3.178   4.670  0.00  0.00    +0.126 C 
ATOM     10  C   UNL     1       6.570  -6.371   6.126  0.00  0.00    +0.247 C 
ATOM     11  O   UNL     1       7.578  -6.850   5.644  0.00  0.00    -0.270 OA
BRANCH  10  12
ATOM     12  C   UNL     1       5.988  -6.955   7.354  0.00  0.00    +0.037 A 
ATOM     13  C   UNL     1       4.635  -7.297   7.394  0.00  0.00    +0.015 A 
ATOM     14  C   UNL     1       4.098  -7.841   8.542  0.00  0.00    +0.033 A 
ATOM     15  C   UNL     1       4.897  -8.048   9.652  0.00  0.00    +0.126 A 
ATOM     16  C   UNL     1       6.239  -7.711   9.619  0.00  0.00    +0.033 A 
ATOM     17  C   UNL     1       6.790  -7.172   8.475  0.00  0.00    +0.015 A 
BRANCH  15  18
ATOM     18  N   UNL     1       4.315  -8.633  10.881  0.00  0.00    +0.056 N 
ATOM     19  O   UNL     1       3.143  -8.928  10.913  0.00  0.00    -0.126 OA
ATOM     20  O   UNL     1       5.010  -8.815  11.853  0.00  0.00    -0.126 OA
ENDBRANCH  15  18
ENDBRANCH  10  12
ENDBRANCH   1   2
BRANCH   1  21
ATOM     21  C   UNL     1       3.195   0.169   4.322  0.00  0.00    -0.068 C 
BRANCH  21  30
ATOM     22  C   UNL     1       1.449   1.770   3.980  0.00  0.00    -0.006 C 
ATOM     23  C   UNL     1       0.197   2.385   4.598  0.00  0.00    -0.047 A 
ATOM     24  C   UNL     1      -0.737   3.134   3.886  0.00  0.00    +0.010 A 
ATOM     25  C   UNL     1      -1.822   3.640   4.517  0.00  0.00    +0.045 A 
ATOM     26  S   UNL     1      -1.573   3.071   6.193  0.00  0.00    -0.101 S 
ATOM     27  C   UNL     1      -0.051   2.208   5.926  0.00  0.00    -0.010 A 
ATOM     28  C   UNL     1       0.800   1.453   6.894  0.00  0.00    +0.024 C 
ATOM     29  C   UNL     1       2.161   1.205   6.220  0.00  0.00    -0.072 C 
ATOM     30  N   UNL     1       1.935   0.700   4.859  0.00  0.00    +0.388 N 
ATOM     31  H   UNL     1       1.250  -0.040   4.890  0.00  0.00    -0.080 HD
BRANCH  22  38
ATOM     32  C   UNL     1       1.487   3.473   1.646  0.00  0.00    +0.044 C 
ATOM     33  C   UNL     1       1.134   2.014   1.509  0.00  0.00    -0.049 A 
ATOM     34  C   UNL     1       0.834   1.489   0.265  0.00  0.00    +0.003 A 
ATOM     35  C   UNL     1       0.510   0.151   0.140  0.00  0.00    +0.000 A 
ATOM     36  C   UNL     1       0.486  -0.662   1.258  0.00  0.00    +0.000 A 
ATOM     37  C   UNL     1       0.787  -0.138   2.500  0.00  0.00    +0.002 A 
ATOM     38  C   UNL     1       1.115   1.200   2.625  0.00  0.00    -0.054 A 
ENDBRANCH  22  38
ENDBRANCH  21  30
ENDBRANCH   1  21
TORSDOF 6
