REMARK  Name = ZINC03229968
REMARK  6 active torsions:
REMARK  status: ('A' for Active; 'I' for Inactive)
REMARK    1  A    between atoms: C_4  and  O_25
REMARK    2  A    between atoms: C_5  and  C_7
REMARK    3  A    between atoms: C_13  and  S_20
REMARK    4  A    between atoms: S_20  and  N_23
REMARK    5  A    between atoms: O_25  and  C_26
REMARK    6  A    between atoms: C_26  and  C_27
REMARK                            x       y       z     vdW  Elec       q    Type
REMARK                         _______ _______ _______ _____ _____    ______ ____
ROOT
ATOM      1  C   UNL     1       1.227  -2.187  -0.022  0.00  0.00    +0.194 C 
ATOM      2  N   UNL     1       2.364  -2.666   0.760  0.00  0.00    -0.322 N 
ATOM      3  C   UNL     1       2.444  -2.551   2.145  0.00  0.00    +0.057 A 
ATOM      4  C   UNL     1       3.698  -2.600   2.752  0.00  0.00    +0.047 A 
ATOM      5  C   UNL     1       3.809  -2.505   4.125  0.00  0.00    +0.069 A 
ATOM      6  C   UNL     1       2.676  -2.362   4.908  0.00  0.00    +0.125 A 
ATOM      7  C   UNL     1       1.430  -2.307   4.311  0.00  0.00    +0.060 A 
ATOM      8  C   UNL     1       1.316  -2.393   2.939  0.00  0.00    +0.128 A 
ATOM      9  S   UNL     1      -0.276  -2.282   2.180  0.00  0.00    +0.062 S 
ATOM     10  O   UNL     1      -1.081  -3.303   2.752  0.00  0.00    -0.153 OA
ATOM     11  O   UNL     1      -0.648  -0.911   2.194  0.00  0.00    -0.153 OA
ATOM     12  N   UNL     1      -0.018  -2.702   0.583  0.00  0.00    -0.166 NA
ATOM     13 CL   UNL     1       5.375  -2.565   4.871  0.00  0.00    -0.081 Cl
ATOM     14  H   UNL     1       3.101  -3.087   0.290  0.00  0.00    +0.148 HD
ATOM     15  H   UNL     1      -0.644  -3.251   0.085  0.00  0.00    +0.150 HD
ENDROOT
BRANCH   1  20
ATOM     16  C   UNL     1      -0.017   1.378   0.010  0.00  0.00    +0.001 A 
ATOM     17  C   UNL     1       1.170   2.088   0.002  0.00  0.00    +0.004 A 
ATOM     18  C   UNL     1       2.377   1.417  -0.013  0.00  0.00    +0.046 A 
ATOM     19  C   UNL     1       2.399   0.030  -0.021  0.00  0.00    +0.128 A 
ATOM     20  C   UNL     1       1.207  -0.680  -0.013  0.00  0.00    +0.030 A 
ATOM     21  C   UNL     1       0.002  -0.004   0.002  0.00  0.00    +0.010 A 
BRANCH  19  22
ATOM     22  O   UNL     1       3.586  -0.632  -0.037  0.00  0.00    -0.480 OA
BRANCH  22  23
ATOM     23  C   UNL     1       4.772   0.164  -0.045  0.00  0.00    +0.353 C 
BRANCH  23  24
ATOM     24  C   UNL     1       5.981  -0.737  -0.062  0.00  0.00    +0.393 C 
ATOM     25  O   UNL     1       5.839  -1.948  -0.067  0.00  0.00    -0.243 OA
ATOM     26  O   UNL     1       7.100  -0.255  -0.071  0.00  0.00    -0.243 OA
ENDBRANCH  23  24
ENDBRANCH  22  23
ENDBRANCH  19  22
ENDBRANCH   1  20
BRANCH   6  27
ATOM     27  S   UNL     1       2.823  -2.252   6.660  0.00  0.00    +0.057 S 
ATOM     28  O   UNL     1       3.826  -1.282   6.924  0.00  0.00    -0.153 OA
ATOM     29  O   UNL     1       1.502  -2.141   7.172  0.00  0.00    -0.153 OA
BRANCH  27  30
ATOM     30  N   UNL     1       3.416  -3.703   7.194  0.00  0.00    -0.203 NA
ATOM     31  H   UNL     1       3.965  -3.739   7.993  0.00  0.00    +0.144 HD
ATOM     32  H   UNL     1       3.216  -4.518   6.707  0.00  0.00    +0.144 HD
ENDBRANCH  27  30
ENDBRANCH   6  27
TORSDOF 6
