REMARK  Name = ZINC20766784
REMARK  4 active torsions:
REMARK  status: ('A' for Active; 'I' for Inactive)
REMARK    1  A    between atoms: C_10  and  N_11
REMARK    2  A    between atoms: N_11  and  S_12
REMARK    3  A    between atoms: S_12  and  C_15
REMARK    4  A    between atoms: C_25  and  C_27
REMARK                            x       y       z     vdW  Elec       q    Type
REMARK                         _______ _______ _______ _____ _____    ______ ____
ROOT
ATOM      1  C   UNL     1       2.448   0.294  -0.834  0.00  0.00    +0.109 A 
ATOM      2  C   UNL     1       1.263  -0.241  -0.361  0.00  0.00    +0.030 A 
ATOM      3  C   UNL     1       0.076   0.435  -0.556  0.00  0.00    +0.026 A 
ATOM      4  C   UNL     1       0.071   1.653  -1.228  0.00  0.00    +0.040 A 
ATOM      5  C   UNL     1       1.258   2.190  -1.698  0.00  0.00    -0.024 A 
ATOM      6  C   UNL     1       2.445   1.504  -1.500  0.00  0.00    +0.034 A 
ATOM      7  C   UNL     1       1.293   3.512  -2.419  0.00  0.00    +0.038 C 
ATOM      8  C   UNL     1      -0.088   3.852  -2.980  0.00  0.00    +0.024 C 
ATOM      9  C   UNL     1      -1.125   3.722  -1.857  0.00  0.00    +0.114 C 
ATOM     10  N   UNL     1      -1.146   2.318  -1.425  0.00  0.00    -0.267 N 
ATOM     11  C   UNL     1      -2.316   1.681  -1.220  0.00  0.00    +0.251 C 
ATOM     12  O   UNL     1      -2.325   0.490  -0.978  0.00  0.00    -0.270 OA
ENDROOT
BRANCH  11  13
ATOM     13  C   UNL     1      -3.587   2.430  -1.291  0.00  0.00    +0.037 A 
ATOM     14  C   UNL     1      -3.610   3.799  -1.013  0.00  0.00    +0.016 A 
ATOM     15  C   UNL     1      -4.798   4.495  -1.086  0.00  0.00    +0.039 A 
ATOM     16  C   UNL     1      -5.970   3.836  -1.422  0.00  0.00    +0.123 A 
ATOM     17  C   UNL     1      -5.954   2.476  -1.693  0.00  0.00    +0.039 A 
ATOM     18  C   UNL     1      -4.771   1.772  -1.629  0.00  0.00    +0.016 A 
ATOM     19  F   UNL     1      -7.133   4.521  -1.487  0.00  0.00    -0.205 F 
ENDBRANCH  11  13
BRANCH   1  20
ATOM     20  S   UNL     1       3.963  -0.570  -0.587  0.00  0.00    +0.072 S 
ATOM     21  O   UNL     1       4.998   0.402  -0.644  0.00  0.00    -0.150 OA
ATOM     22  O   UNL     1       3.771  -1.413   0.541  0.00  0.00    -0.150 OA
BRANCH  20  23
ATOM     23  N   UNL     1       4.177  -1.567  -1.892  0.00  0.00    -0.216 N 
ATOM     24  H   UNL     1       4.245  -2.655  -1.747  0.00  0.00    +0.174 HD
BRANCH  23  34
ATOM     25  C   UNL     1       2.655  -3.021  -6.478  0.00  0.00    +0.001 A 
ATOM     26  C   UNL     1       2.550  -3.579  -5.205  0.00  0.00    +0.001 A 
ATOM     27  C   UNL     1       3.069  -2.945  -4.117  0.00  0.00    +0.010 A 
ATOM     28  C   UNL     1       3.721  -1.712  -4.277  0.00  0.00    +0.004 A 
ATOM     29  C   UNL     1       3.828  -1.144  -5.570  0.00  0.00    -0.016 A 
ATOM     30  C   UNL     1       3.280  -1.827  -6.670  0.00  0.00    +0.008 A 
ATOM     31  C   UNL     1       4.479   0.091  -5.731  0.00  0.00    +0.008 A 
ATOM     32  C   UNL     1       5.000   0.731  -4.648  0.00  0.00    +0.002 A 
ATOM     33  C   UNL     1       4.898   0.185  -3.372  0.00  0.00    +0.025 A 
ATOM     34  C   UNL     1       4.271  -1.027  -3.173  0.00  0.00    +0.056 A 
ENDBRANCH  23  34
ENDBRANCH  20  23
ENDBRANCH   1  20
TORSDOF 4
