REMARK  Name = ZINC02644920
REMARK  11 active torsions:
REMARK  status: ('A' for Active; 'I' for Inactive)
REMARK    1  A    between atoms: C_1  and  C_2
REMARK    2  A    between atoms: C_2  and  C_3
REMARK    3  A    between atoms: C_3  and  C_4
REMARK    4  A    between atoms: C_4  and  C_29
REMARK    5  A    between atoms: N_7  and  C_11
REMARK    6  A    between atoms: C_11  and  C_12
REMARK    7  A    between atoms: N_14  and  C_15
REMARK    8  A    between atoms: C_16  and  C_24
REMARK    9  A    between atoms: C_24  and  O_26
REMARK   10  A    between atoms: O_26  and  C_27
REMARK   11  A    between atoms: C_27  and  C_28
REMARK                            x       y       z     vdW  Elec       q    Type
REMARK                         _______ _______ _______ _____ _____    ______ ____
ROOT
ATOM      1  C   UNL     1       1.715   7.294   2.643  0.00  0.00    +0.214 C 
ENDROOT
BRANCH   1   5
ATOM      2  C   UNL     1      -0.070   5.347   0.032  0.00  0.00    +0.138 C 
ATOM      3  C   UNL     1       0.061   5.873   1.448  0.00  0.00    +0.251 C 
ATOM      4  O   UNL     1      -0.698   5.684   2.373  0.00  0.00    -0.272 OA
ATOM      5  N   UNL     1       1.198   6.597   1.463  0.00  0.00    -0.215 N 
ATOM      6  C   UNL     1       1.797   6.601   0.266  0.00  0.00    +0.310 C 
ATOM      7  O   UNL     1       2.837   7.185   0.032  0.00  0.00    -0.252 OA
ATOM      8  N   UNL     1       1.119   5.886  -0.650  0.00  0.00    -0.281 N 
ATOM      9  H   UNL     1       1.366   5.751  -1.578  0.00  0.00    +0.152 HD
BRANCH   2  10
ATOM     10  C   UNL     1      -0.050   3.840   0.023  0.00  0.00    -0.015 A 
ATOM     11  C   UNL     1       1.156   3.165   0.008  0.00  0.00    +0.006 A 
ATOM     12  C   UNL     1       1.175   1.783   0.000  0.00  0.00    +0.000 A 
ATOM     13  C   UNL     1      -0.013   1.076   0.008  0.00  0.00    +0.000 A 
ATOM     14  C   UNL     1      -1.219   1.751   0.017  0.00  0.00    +0.000 A 
ATOM     15  C   UNL     1      -1.238   3.133   0.029  0.00  0.00    +0.006 A 
ENDBRANCH   2  10
BRANCH   2  16
ATOM     16  C   UNL     1      -1.350   5.870  -0.623  0.00  0.00    +0.040 C 
BRANCH  16  18
ATOM     17  C   UNL     1      -2.569   7.920  -1.369  0.00  0.00    +0.004 C 
ATOM     18  C   UNL     1      -1.290   7.397  -0.713  0.00  0.00    -0.000 C 
ENDBRANCH  16  18
ENDBRANCH   2  16
ENDBRANCH   1   5
BRANCH   1  19
ATOM     19  C   UNL     1       1.157   8.694   2.684  0.00  0.00    +0.236 C 
ATOM     20  O   UNL     1       0.403   9.072   1.813  0.00  0.00    -0.274 OA
ATOM     21  N   UNL     1       1.497   9.525   3.689  0.00  0.00    -0.278 N 
ATOM     22  H   UNL     1       2.100   9.223   4.386  0.00  0.00    +0.155 HD
BRANCH  21  23
ATOM     23  C   UNL     1       0.985  10.812   3.726  0.00  0.00    +0.086 A 
ATOM     24  C   UNL     1       1.210  11.804   4.673  0.00  0.00    +0.091 A 
ATOM     25  C   UNL     1       0.547  13.082   4.476  0.00  0.00    -0.021 A 
ATOM     26  C   UNL     1      -0.237  13.161   3.379  0.00  0.00    -0.004 A 
ATOM     27  S   UNL     1      -0.099  11.573   2.609  0.00  0.00    -0.077 S 
ATOM     28  C   UNL     1      -1.042  14.340   2.927  0.00  0.00    +0.043 C 
ATOM     29  C   UNL     1      -1.144  15.332   4.095  0.00  0.00    +0.005 C 
ATOM     30  C   UNL     1       0.252  15.537   4.691  0.00  0.00    +0.005 C 
ATOM     31  C   UNL     1       0.698  14.269   5.420  0.00  0.00    +0.037 C 
BRANCH  24  32
ATOM     32  C   UNL     1       2.085  11.571   5.823  0.00  0.00    +0.342 C 
ATOM     33  O   UNL     1       3.273  11.819   5.744  0.00  0.00    -0.245 OA
BRANCH  32  34
ATOM     34  O   UNL     1       1.574  11.081   6.971  0.00  0.00    -0.461 OA
BRANCH  34  35
ATOM     35  C   UNL     1       2.500  10.875   8.070  0.00  0.00    +0.229 C 
ATOM     36  C   UNL     1       1.743  10.319   9.278  0.00  0.00    +0.048 C 
ENDBRANCH  34  35
ENDBRANCH  32  34
ENDBRANCH  24  32
ENDBRANCH  21  23
ENDBRANCH   1  19
TORSDOF 9
