REMARK  Name = ZINC27695008
REMARK  14 active torsions:
REMARK  status: ('A' for Active; 'I' for Inactive)
REMARK    1  A    between atoms: C_1  and  C_2
REMARK    2  A    between atoms: C_2  and  C_4
REMARK    3  A    between atoms: C_2  and  C_14
REMARK    4  A    between atoms: C_7  and  C_10
REMARK    5  A    between atoms: C_10  and  C_11
REMARK    6  A    between atoms: C_11  and  C_12
REMARK    7  A    between atoms: C_11  and  C_13
REMARK    8  A    between atoms: N_22  and  C_23
REMARK    9  A    between atoms: C_23  and  C_24
REMARK   10  A    between atoms: C_24  and  C_26
REMARK   11  A    between atoms: C_24  and  O_35
REMARK   12  A    between atoms: C_26  and  N_27
REMARK   13  A    between atoms: N_27  and  C_28
REMARK   14  A    between atoms: N_27  and  C_29
REMARK                            x       y       z     vdW  Elec       q    Type
REMARK                         _______ _______ _______ _____ _____    ______ ____
ROOT
ATOM      1  C   UNL     1       0.593  -1.702  -1.480  0.00  0.00    +0.118 A 
ATOM      2  N   UNL     1       1.840  -1.753  -1.848  0.00  0.00    -0.232 NA
ATOM      3  C   UNL     1       1.944  -2.443  -3.013  0.00  0.00    +0.089 A 
ATOM      4  C   UNL     1       3.020  -2.792  -3.833  0.00  0.00    +0.030 A 
ATOM      5  C   UNL     1       2.801  -3.511  -4.974  0.00  0.00    +0.002 A 
ATOM      6  C   UNL     1       1.518  -3.901  -5.329  0.00  0.00    +0.002 A 
ATOM      7  C   UNL     1       0.441  -3.569  -4.535  0.00  0.00    +0.028 A 
ATOM      8  C   UNL     1       0.644  -2.839  -3.372  0.00  0.00    +0.069 A 
ATOM      9  N   UNL     1      -0.188  -2.360  -2.379  0.00  0.00    -0.325 N 
ENDROOT
BRANCH   1  11
ATOM     10  C   UNL     1       0.438   0.469  -0.292  0.00  0.00    +0.020 C 
ATOM     11  C   UNL     1       0.087  -1.019  -0.235  0.00  0.00    +0.082 C 
BRANCH  11  12
ATOM     12  C   UNL     1       0.732  -1.641   0.976  0.00  0.00    -0.037 A 
ATOM     13  C   UNL     1       2.107  -1.611   1.120  0.00  0.00    +0.004 A 
ATOM     14  C   UNL     1       2.698  -2.182   2.231  0.00  0.00    +0.004 A 
ATOM     15  C   UNL     1       1.915  -2.781   3.200  0.00  0.00    -0.047 A 
ATOM     16  C   UNL     1       0.540  -2.810   3.057  0.00  0.00    +0.004 A 
ATOM     17  C   UNL     1      -0.052  -2.236   1.947  0.00  0.00    +0.004 A 
BRANCH  15  18
ATOM     18  C   UNL     1       2.560  -3.404   4.411  0.00  0.00    +0.038 C 
BRANCH  18  19
ATOM     19  C   UNL     1       2.679  -2.357   5.520  0.00  0.00    -0.013 C 
ATOM     20  C   UNL     1       1.281  -1.937   5.977  0.00  0.00    +0.007 C 
ATOM     21  C   UNL     1       3.445  -2.953   6.703  0.00  0.00    +0.007 C 
ENDBRANCH  18  19
ENDBRANCH  15  18
ENDBRANCH  11  12
ENDBRANCH   1  11
BRANCH   9  22
ATOM     22  C   UNL     1      -1.641  -2.526  -2.310  0.00  0.00    +0.153 C 
BRANCH  22  23
ATOM     23  C   UNL     1      -2.323  -1.361  -3.028  0.00  0.00    +0.118 C 
BRANCH  23  24
ATOM     24  O   UNL     1      -2.004  -1.407  -4.420  0.00  0.00    -0.392 OA
ATOM     25  H   UNL     1      -2.287  -2.219  -4.862  0.00  0.00    +0.210 HD
ENDBRANCH  23  24
BRANCH  23  26
ATOM     26  C   UNL     1      -3.839  -1.467  -2.849  0.00  0.00    -0.045 C 
BRANCH  26  27
ATOM     27  N   UNL     1      -4.482  -0.263  -3.391  0.00  0.00    +0.381 N 
ATOM     28  C   UNL     1      -4.298  -0.223  -4.848  0.00  0.00    -0.096 C 
ATOM     29  H   UNL     1      -4.064   0.557  -2.977  0.00  0.00    -0.082 HD
BRANCH  27  30
ATOM     30  C   UNL     1      -5.917  -0.292  -3.079  0.00  0.00    -0.069 C 
ATOM     31  C   UNL     1      -6.587   0.962  -3.644  0.00  0.00    -0.015 C 
ATOM     32  C   UNL     1      -8.082   0.932  -3.319  0.00  0.00    -0.002 C 
ATOM     33  C   UNL     1      -8.274   0.891  -1.802  0.00  0.00    -0.000 C 
ATOM     34  C   UNL     1      -7.604  -0.363  -1.237  0.00  0.00    -0.002 C 
ATOM     35  C   UNL     1      -6.109  -0.333  -1.562  0.00  0.00    -0.015 C 
ENDBRANCH  27  30
ENDBRANCH  26  27
ENDBRANCH  23  26
ENDBRANCH  22  23
ENDBRANCH   9  22
TORSDOF 10
