REMARK  Name = ZINC62424760
REMARK  6 active torsions:
REMARK  status: ('A' for Active; 'I' for Inactive)
REMARK    1  A    between atoms: C_1  and  C_2
REMARK    2  A    between atoms: C_2  and  O_3
REMARK    3  A    between atoms: O_3  and  C_4
REMARK    4  A    between atoms: C_4  and  C_6
REMARK    5  A    between atoms: C_12  and  C_17
REMARK    6  A    between atoms: C_13  and  C_16
REMARK                            x       y       z     vdW  Elec       q    Type
REMARK                         _______ _______ _______ _____ _____    ______ ____
ROOT
ATOM      1  C   UNL     1       1.292  -2.729  -2.295  0.00  0.00    +0.060 A 
ATOM      2  C   UNL     1       1.798  -1.720  -3.127  0.00  0.00    +0.017 A 
ATOM      3  C   UNL     1       2.471  -2.035  -4.270  0.00  0.00    +0.027 A 
ATOM      4  C   UNL     1       2.666  -3.369  -4.625  0.00  0.00    +0.047 A 
ATOM      5  C   UNL     1       2.163  -4.390  -3.797  0.00  0.00    +0.010 A 
ATOM      6  C   UNL     1       1.481  -4.068  -2.629  0.00  0.00    +0.025 A 
ATOM      7  C   UNL     1       2.531  -5.659  -4.447  0.00  0.00    +0.031 A 
ATOM      8  C   UNL     1       3.204  -5.335  -5.576  0.00  0.00    +0.023 A 
ATOM      9  N   UNL     1       3.289  -3.974  -5.690  0.00  0.00    -0.358 N 
ATOM     10  H   UNL     1       3.725  -3.505  -6.418  0.00  0.00    +0.166 HD
ATOM     11  C   UNL     1       3.775  -6.324  -6.559  0.00  0.00    +0.064 C 
ENDROOT
BRANCH   7  12
ATOM     12  C   UNL     1       2.226  -7.026  -3.959  0.00  0.00    +0.113 A 
ATOM     13  C   UNL     1       1.642  -7.344  -2.780  0.00  0.00    +0.227 A 
ATOM     14  O   UNL     1       1.550  -8.691  -2.732  0.00  0.00    -0.433 OA
ATOM     15  C   UNL     1       2.070  -9.184  -3.866  0.00  0.00    +0.285 A 
ATOM     16  N   UNL     1       2.475  -8.190  -4.616  0.00  0.00    -0.196 NA
ATOM     17  N   UNL     1       2.158 -10.524  -4.193  0.00  0.00    -0.313 N 
ATOM     18  H   UNL     1       1.826 -11.196  -3.578  0.00  0.00    +0.147 HD
ATOM     19  H   UNL     1       2.550 -10.792  -5.039  0.00  0.00    +0.147 HD
ENDBRANCH   7  12
BRANCH   1  20
ATOM     20  C   UNL     1       0.566  -2.373  -1.061  0.00  0.00    +0.339 C 
ATOM     21  O   UNL     1       0.132  -3.247  -0.338  0.00  0.00    -0.245 OA
BRANCH  20  22
ATOM     22  O   UNL     1       0.383  -1.077  -0.738  0.00  0.00    -0.461 OA
BRANCH  22  24
ATOM     23  C   UNL     1      -0.437   0.708   0.669  0.00  0.00    +0.048 C 
ATOM     24  C   UNL     1      -0.330  -0.805   0.470  0.00  0.00    +0.229 C 
ENDBRANCH  22  24
ENDBRANCH  20  22
ENDBRANCH   1  20
TORSDOF 4
