REMARK  Name = ZINC52884109
REMARK  6 active torsions:
REMARK  status: ('A' for Active; 'I' for Inactive)
REMARK    1  A    between atoms: C_1  and  C_2
REMARK    2  A    between atoms: C_6  and  N_12
REMARK    3  A    between atoms: C_7  and  N_11
REMARK    4  A    between atoms: C_15  and  C_17
REMARK    5  A    between atoms: C_17  and  C_18
REMARK    6  A    between atoms: C_17  and  C_19
REMARK                            x       y       z     vdW  Elec       q    Type
REMARK                         _______ _______ _______ _____ _____    ______ ____
ROOT
ATOM      1  C   UNL     1      -0.043   1.486   0.418  0.00  0.00    +0.073 C 
ATOM      2  C   UNL     1      -0.016  -0.013   0.270  0.00  0.00    +0.076 A 
ATOM      3  N   UNL     1      -1.011  -0.857   0.306  0.00  0.00    -0.244 NA
ATOM      4  C   UNL     1      -0.845  -2.189   0.158  0.00  0.00    +0.081 A 
ATOM      5  C   UNL     1      -1.835  -3.199   0.178  0.00  0.00    +0.058 A 
ATOM      6  C   UNL     1      -1.496  -4.520   0.011  0.00  0.00    +0.088 A 
ATOM      7  C   UNL     1      -0.166  -4.910  -0.184  0.00  0.00    +0.052 A 
ATOM      8  C   UNL     1       0.825  -3.941  -0.209  0.00  0.00    +0.042 A 
ATOM      9  C   UNL     1       0.486  -2.620  -0.042  0.00  0.00    +0.041 A 
ATOM     10  S   UNL     1       1.385  -1.087  -0.009  0.00  0.00    -0.072 S 
ENDROOT
BRANCH   6  11
ATOM     11  N   UNL     1      -2.503  -5.498   0.036  0.00  0.00    -0.238 N 
ATOM     12  C   UNL     1      -3.673  -5.453  -0.640  0.00  0.00    +0.115 A 
ATOM     13  C   UNL     1      -4.361  -6.581  -0.347  0.00  0.00    +0.045 A 
ATOM     14  C   UNL     1      -3.587  -7.341   0.536  0.00  0.00    +0.066 A 
ATOM     15  N   UNL     1      -2.471  -6.695   0.762  0.00  0.00    -0.171 NA
BRANCH  14  16
ATOM     16  C   UNL     1      -3.970  -8.676   1.121  0.00  0.00    +0.033 C 
ATOM     17  C   UNL     1      -4.826  -8.459   2.370  0.00  0.00    +0.014 C 
ATOM     18  C   UNL     1      -4.767  -9.476   0.088  0.00  0.00    +0.014 C 
ENDBRANCH  14  16
ENDBRANCH   6  11
BRANCH   7  19
ATOM     19  N   UNL     1       0.159  -6.261  -0.352  0.00  0.00    -0.356 N 
ATOM     20  H   UNL     1      -0.545  -6.923  -0.427  0.00  0.00    +0.142 HD
ATOM     21  H   UNL     1       1.089  -6.534  -0.394  0.00  0.00    +0.142 HD
ENDBRANCH   7  19
TORSDOF 3
