REMARK  Name = ZINC63996741
REMARK  7 active torsions:
REMARK  status: ('A' for Active; 'I' for Inactive)
REMARK    1  A    between atoms: C_7  and  C_10
REMARK    2  A    between atoms: C_10  and  C_11
REMARK    3  A    between atoms: N_15  and  C_19
REMARK    4  A    between atoms: C_19  and  C_20
REMARK    5  A    between atoms: N_22  and  C_23
REMARK    6  A    between atoms: N_22  and  C_31
REMARK    7  A    between atoms: C_23  and  C_24
REMARK                            x       y       z     vdW  Elec       q    Type
REMARK                         _______ _______ _______ _____ _____    ______ ____
ROOT
ATOM      1  C   UNL     1       0.312  -4.157  -0.651  0.00  0.00    +0.165 C 
ATOM      2  C   UNL     1      -0.705  -5.239  -0.956  0.00  0.00    +0.244 C 
ATOM      3  O   UNL     1      -1.896  -5.210  -0.730  0.00  0.00    -0.273 OA
ATOM      4  N   UNL     1      -0.010  -6.240  -1.532  0.00  0.00    -0.216 N 
ATOM      5  C   UNL     1       1.291  -5.944  -1.631  0.00  0.00    +0.310 C 
ATOM      6  O   UNL     1       2.118  -6.691  -2.116  0.00  0.00    -0.252 OA
ATOM      7  N   UNL     1       1.582  -4.724  -1.137  0.00  0.00    -0.287 N 
ATOM      8  H   UNL     1       2.454  -4.301  -1.105  0.00  0.00    +0.151 HD
ENDROOT
BRANCH   1   9
ATOM      9  C   UNL     1       0.381  -3.892   0.854  0.00  0.00    +0.065 C 
BRANCH   9  16
ATOM     10  C   UNL     1      -0.206   0.625   1.416  0.00  0.00    +0.001 A 
ATOM     11  C   UNL     1       0.987   1.322   1.649  0.00  0.00    +0.002 A 
ATOM     12  C   UNL     1       2.190   0.711   1.702  0.00  0.00    +0.026 A 
ATOM     13  C   UNL     1       2.291  -0.696   1.518  0.00  0.00    +0.043 A 
ATOM     14  N   UNL     1       3.322  -1.505   1.523  0.00  0.00    -0.380 N 
ATOM     15  C   UNL     1       2.846  -2.871   1.278  0.00  0.00    +0.144 C 
ATOM     16  C   UNL     1       1.345  -2.765   1.122  0.00  0.00    -0.039 C 
ATOM     17  C   UNL     1       1.044  -1.455   1.270  0.00  0.00    -0.001 A 
ATOM     18  C   UNL     1      -0.222  -0.715   1.228  0.00  0.00    +0.010 A 
ATOM     19  H   UNL     1       4.246  -1.244   1.664  0.00  0.00    +0.160 HD
ENDBRANCH   9  16
ENDBRANCH   1   9
BRANCH   4  20
ATOM     20  C   UNL     1      -0.605  -7.498  -1.990  0.00  0.00    +0.213 C 
BRANCH  20  21
ATOM     21  C   UNL     1      -1.040  -7.354  -3.426  0.00  0.00    +0.234 C 
ATOM     22  O   UNL     1      -0.958  -6.278  -3.979  0.00  0.00    -0.274 OA
ATOM     23  N   UNL     1      -1.519  -8.421  -4.095  0.00  0.00    -0.293 N 
BRANCH  23  24
ATOM     24  C   UNL     1      -1.830  -8.312  -5.522  0.00  0.00    +0.076 C 
ATOM     25  C   UNL     1      -0.592  -7.825  -6.279  0.00  0.00    +0.022 C 
ATOM     26  C   UNL     1      -0.917  -7.710  -7.769  0.00  0.00    +0.002 C 
ATOM     27  C   UNL     1      -2.061  -6.713  -7.966  0.00  0.00    +0.000 C 
ATOM     28  C   UNL     1      -3.298  -7.199  -7.210  0.00  0.00    +0.002 C 
ATOM     29  C   UNL     1      -2.973  -7.314  -5.720  0.00  0.00    +0.022 C 
ENDBRANCH  23  24
BRANCH  23  30
ATOM     30  C   UNL     1      -1.728  -9.691  -3.395  0.00  0.00    +0.143 C 
BRANCH  30  31
ATOM     31  C   UNL     1      -3.171  -9.801  -2.975  0.00  0.00    -0.030 A 
ATOM     32  C   UNL     1      -3.588  -9.239  -1.783  0.00  0.00    +0.008 A 
ATOM     33  C   UNL     1      -4.911  -9.339  -1.397  0.00  0.00    +0.038 A 
ATOM     34  C   UNL     1      -5.819 -10.002  -2.205  0.00  0.00    +0.123 A 
ATOM     35  C   UNL     1      -5.401 -10.564  -3.399  0.00  0.00    +0.038 A 
ATOM     36  C   UNL     1      -4.078 -10.459  -3.785  0.00  0.00    +0.008 A 
ATOM     37  F   UNL     1      -7.113 -10.101  -1.828  0.00  0.00    -0.205 F 
ENDBRANCH  30  31
ENDBRANCH  23  30
ENDBRANCH  20  21
ENDBRANCH   4  20
TORSDOF 7
