REMARK  Name = ZINC37443187
REMARK  5 active torsions:
REMARK  status: ('A' for Active; 'I' for Inactive)
REMARK    1  A    between atoms: C_1  and  C_2
REMARK    2  A    between atoms: C_8  and  N_10
REMARK    3  A    between atoms: C_11  and  C_13
REMARK    4  A    between atoms: C_13  and  C_31
REMARK    5  A    between atoms: N_25  and  C_26
REMARK                            x       y       z     vdW  Elec       q    Type
REMARK                         _______ _______ _______ _____ _____    ______ ____
ROOT
ATOM      1  C   UNL     1       0.038   0.647   4.727  0.00  0.00    +0.129 C 
ATOM      2  C   UNL     1      -0.405  -0.595   5.502  0.00  0.00    +0.157 C 
ATOM      3  N   UNL     1      -1.625  -1.130   4.892  0.00  0.00    -0.333 N 
ATOM      4  C   UNL     1      -2.078  -2.436   4.858  0.00  0.00    +0.057 A 
ATOM      5  C   UNL     1      -1.674  -3.707   5.295  0.00  0.00    +0.034 A 
ATOM      6  C   UNL     1      -2.446  -4.786   5.049  0.00  0.00    +0.048 A 
ATOM      7  S   UNL     1      -3.829  -4.084   4.165  0.00  0.00    -0.095 S 
ATOM      8  C   UNL     1      -3.300  -2.391   4.171  0.00  0.00    +0.038 A 
ATOM      9  C   UNL     1      -3.574  -1.081   3.795  0.00  0.00    +0.048 A 
ATOM     10  C   UNL     1      -2.538  -0.312   4.235  0.00  0.00    +0.106 A 
ATOM     11  C   UNL     1      -2.292   1.129   4.098  0.00  0.00    +0.264 C 
ATOM     12  O   UNL     1      -3.145   1.889   3.679  0.00  0.00    -0.268 OA
ATOM     13  N   UNL     1      -1.063   1.565   4.462  0.00  0.00    -0.278 N 
ATOM     14  C   UNL     1       1.107   1.379   5.540  0.00  0.00    +0.043 C 
ENDROOT
BRANCH  13  15
ATOM     15  C   UNL     1      -0.833   3.006   4.595  0.00  0.00    +0.078 C 
ATOM     16  C   UNL     1      -1.812   3.605   5.626  0.00  0.00    +0.022 C 
ATOM     17  C   UNL     1      -2.175   4.993   5.043  0.00  0.00    +0.002 C 
ATOM     18  C   UNL     1      -2.260   4.713   3.522  0.00  0.00    +0.002 C 
ATOM     19  C   UNL     1      -1.117   3.711   3.257  0.00  0.00    +0.022 C 
ENDBRANCH  13  15
BRANCH   1  21
ATOM     20  N   UNL     1      -0.153   0.046   2.335  0.00  0.00    -0.310 N 
ATOM     21  C   UNL     1       0.637   0.214   3.414  0.00  0.00    +0.238 C 
ATOM     22  O   UNL     1       1.830   0.016   3.328  0.00  0.00    -0.273 OA
ATOM     23  H   UNL     1      -1.108   0.204   2.404  0.00  0.00    +0.149 HD
BRANCH  20  30
ATOM     24  C   UNL     1      -0.583   1.617  -0.060  0.00  0.00    +0.009 C 
ATOM     25  C   UNL     1      -0.468   0.092  -0.090  0.00  0.00    +0.006 C 
ATOM     26  C   UNL     1      -1.858  -0.527   0.065  0.00  0.00    +0.005 C 
ATOM     27  C   UNL     1      -1.744  -2.053   0.035  0.00  0.00    +0.000 C 
ATOM     28  C   UNL     1      -0.847  -2.519   1.184  0.00  0.00    +0.002 C 
ATOM     29  C   UNL     1       0.544  -1.900   1.029  0.00  0.00    +0.022 C 
ATOM     30  C   UNL     1       0.429  -0.375   1.058  0.00  0.00    +0.076 C 
ENDBRANCH  20  30
ENDBRANCH   1  21
TORSDOF 3
