REMARK  Name = ZINC36832353
REMARK  6 active torsions:
REMARK  status: ('A' for Active; 'I' for Inactive)
REMARK    1  A    between atoms: C_1  and  C_2
REMARK    2  A    between atoms: C_8  and  C_12
REMARK    3  A    between atoms: N_14  and  C_15
REMARK    4  A    between atoms: C_20  and  C_21
REMARK    5  A    between atoms: N_23  and  C_24
REMARK    6  A    between atoms: C_24  and  C_25
REMARK                            x       y       z     vdW  Elec       q    Type
REMARK                         _______ _______ _______ _____ _____    ______ ____
ROOT
ATOM      1  C   UNL     1       4.608  -2.985   2.636  0.00  0.00    +0.046 A 
ATOM      2  C   UNL     1       3.802  -3.801   3.418  0.00  0.00    +0.024 A 
ATOM      3  C   UNL     1       4.371  -4.755   4.238  0.00  0.00    +0.002 A 
ATOM      4  C   UNL     1       5.747  -4.905   4.287  0.00  0.00    +0.001 A 
ATOM      5  C   UNL     1       6.563  -4.105   3.518  0.00  0.00    +0.015 A 
ATOM      6  C   UNL     1       6.001  -3.139   2.679  0.00  0.00    +0.058 A 
ENDROOT
BRANCH   1   9
ATOM      7  C   UNL     1       2.922  -1.373   2.200  0.00  0.00    +0.239 C 
ATOM      8  O   UNL     1       2.372  -1.683   3.236  0.00  0.00    -0.273 OA
ATOM      9  N   UNL     1       4.035  -2.022   1.808  0.00  0.00    -0.283 N 
ATOM     10  H   UNL     1       4.438  -1.819   0.949  0.00  0.00    +0.155 HD
BRANCH   7  18
ATOM     11  C   UNL     1       0.550   2.313   0.675  0.00  0.00    +0.044 C 
ATOM     12  C   UNL     1       0.206   0.868   1.042  0.00  0.00    +0.082 C 
ATOM     13  C   UNL     1      -1.178   0.730   1.697  0.00  0.00    +0.046 C 
ATOM     14  C   UNL     1      -0.805   0.821   3.196  0.00  0.00    +0.099 C 
ATOM     15  C   UNL     1       0.624   0.335   3.254  0.00  0.00    +0.217 C 
ATOM     16  O   UNL     1       1.213   0.046   4.274  0.00  0.00    -0.276 OA
ATOM     17  N   UNL     1       1.158   0.267   2.008  0.00  0.00    -0.275 N 
ATOM     18  C   UNL     1       2.360  -0.261   1.352  0.00  0.00    +0.173 C 
ATOM     19  C   UNL     1       2.109  -0.809  -0.068  0.00  0.00    +0.103 C 
ATOM     20  S   UNL     1       0.368  -0.292  -0.374  0.00  0.00    -0.133 S 
ENDBRANCH   7  18
ENDBRANCH   1   9
BRANCH   6  21
ATOM     21  C   UNL     1       6.869  -2.283   1.848  0.00  0.00    +0.246 C 
ATOM     22  O   UNL     1       6.385  -1.377   1.197  0.00  0.00    -0.270 OA
ATOM     23  N   UNL     1       8.197  -2.505   1.810  0.00  0.00    -0.307 N 
ATOM     24  H   UNL     1       8.584  -3.228   2.329  0.00  0.00    +0.149 HD
BRANCH  23  25
ATOM     25  C   UNL     1       9.059  -1.655   0.984  0.00  0.00    +0.140 C 
BRANCH  25  26
ATOM     26  C   UNL     1      10.489  -2.110   1.117  0.00  0.00    -0.027 A 
ATOM     27  C   UNL     1      11.294  -1.576   2.107  0.00  0.00    +0.009 A 
ATOM     28  C   UNL     1      12.606  -1.990   2.233  0.00  0.00    +0.050 A 
ATOM     29  C   UNL     1      13.120  -2.942   1.367  0.00  0.00    +0.166 A 
ATOM     30  C   UNL     1      12.310  -3.479   0.369  0.00  0.00    +0.167 A 
ATOM     31  C   UNL     1      10.993  -3.063   0.252  0.00  0.00    +0.054 A 
ATOM     32  O   UNL     1      13.040  -4.385  -0.345  0.00  0.00    -0.453 OA
ATOM     33  C   UNL     1      14.416  -4.098  -0.036  0.00  0.00    +0.466 C 
ATOM     34  O   UNL     1      14.357  -3.511   1.277  0.00  0.00    -0.453 OA
ENDBRANCH  25  26
ENDBRANCH  23  25
ENDBRANCH   6  21
TORSDOF 5
