REMARK  Name = ZINC02223717
REMARK  7 active torsions:
REMARK  status: ('A' for Active; 'I' for Inactive)
REMARK    1  A    between atoms: C_1  and  O_2
REMARK    2  A    between atoms: O_2  and  C_3
REMARK    3  A    between atoms: C_3  and  C_5
REMARK    4  A    between atoms: C_6  and  N_33
REMARK    5  A    between atoms: C_11  and  C_12
REMARK    6  A    between atoms: C_21  and  C_31
REMARK    7  A    between atoms: C_22  and  C_24
REMARK                            x       y       z     vdW  Elec       q    Type
REMARK                         _______ _______ _______ _____ _____    ______ ____
ROOT
ATOM      1  C   UNL     1      -0.050  -2.017   1.573  0.00  0.00    +0.087 C 
ATOM      2  C   UNL     1       0.619  -2.655   2.562  0.00  0.00    +0.115 C 
ATOM      3  N   UNL     1       0.780  -4.042   2.619  0.00  0.00    -0.257 N 
ATOM      4  C   UNL     1       1.448  -4.668   3.609  0.00  0.00    +0.271 A 
ATOM      5  O   UNL     1       1.952  -4.035   4.518  0.00  0.00    -0.266 OA
ATOM      6  C   UNL     1       1.552  -6.132   3.564  0.00  0.00    +0.080 A 
ATOM      7  C   UNL     1       2.164  -6.979   4.431  0.00  0.00    +0.030 C 
ATOM      8  S   UNL     1       0.658  -6.497   2.063  0.00  0.00    -0.065 S 
ATOM      9  C   UNL     1       0.233  -4.825   1.620  0.00  0.00    +0.104 A 
ATOM     10  C   UNL     1      -0.464  -4.339   0.562  0.00  0.00    +0.072 C 
ATOM     11  C   UNL     1      -0.669  -2.841   0.462  0.00  0.00    +0.104 C 
ENDROOT
BRANCH   7  12
ATOM     12  C   UNL     1       1.999  -8.431   4.278  0.00  0.00    -0.005 A 
ATOM     13  C   UNL     1       0.862  -8.948   3.648  0.00  0.00    +0.009 A 
ATOM     14  C   UNL     1       0.715 -10.311   3.509  0.00  0.00    +0.001 A 
ATOM     15  C   UNL     1       1.688 -11.170   3.991  0.00  0.00    +0.001 A 
ATOM     16  C   UNL     1       2.816 -10.668   4.617  0.00  0.00    +0.020 A 
ATOM     17  C   UNL     1       2.982  -9.305   4.758  0.00  0.00    +0.048 A 
ATOM     18 CL   UNL     1       4.402  -8.678   5.536  0.00  0.00    -0.083 Cl
ENDBRANCH   7  12
BRANCH  11  19
ATOM     19  C   UNL     1      -2.150  -2.563   0.438  0.00  0.00    -0.016 A 
ATOM     20  C   UNL     1      -2.922  -2.832   1.554  0.00  0.00    +0.006 A 
ATOM     21  C   UNL     1      -4.280  -2.577   1.532  0.00  0.00    +0.000 A 
ATOM     22  C   UNL     1      -4.868  -2.055   0.395  0.00  0.00    +0.001 A 
ATOM     23  C   UNL     1      -4.098  -1.786  -0.721  0.00  0.00    +0.020 A 
ATOM     24  C   UNL     1      -2.737  -2.035  -0.698  0.00  0.00    +0.045 A 
ATOM     25 CL   UNL     1      -1.768  -1.692  -2.096  0.00  0.00    -0.083 Cl
ENDBRANCH  11  19
BRANCH   2  26
ATOM     26  N   UNL     1       1.170  -1.899   3.563  0.00  0.00    -0.344 N 
ATOM     27  H   UNL     1       0.662  -1.172   3.957  0.00  0.00    +0.144 HD
ATOM     28  H   UNL     1       2.067  -2.090   3.878  0.00  0.00    +0.144 HD
ENDBRANCH   2  26
BRANCH   1  29
ATOM     29  C   UNL     1      -0.173  -0.619   1.580  0.00  0.00    +0.339 C 
ATOM     30  O   UNL     1       0.321   0.031   2.484  0.00  0.00    -0.245 OA
BRANCH  29  32
ATOM     31  C   UNL     1      -0.926   1.429   0.655  0.00  0.00    +0.280 C 
ATOM     32  O   UNL     1      -0.840   0.005   0.585  0.00  0.00    -0.465 OA
ENDBRANCH  29  32
ENDBRANCH   1  29
BRANCH  10  33
ATOM     33  C   UNL     1      -0.998  -5.221  -0.432  0.00  0.00    +0.098 C 
ATOM     34  N   UNL     1      -1.421  -5.920  -1.221  0.00  0.00    -0.191 NA
ENDBRANCH  10  33
TORSDOF 6
