REMARK  Name = ZINC33569101
REMARK  5 active torsions:
REMARK  status: ('A' for Active; 'I' for Inactive)
REMARK    1  A    between atoms: C_4  and  C_7
REMARK    2  A    between atoms: C_8  and  C_9
REMARK    3  A    between atoms: N_11  and  C_12
REMARK    4  A    between atoms: C_20  and  C_21
REMARK    5  A    between atoms: C_21  and  C_23
REMARK                            x       y       z     vdW  Elec       q    Type
REMARK                         _______ _______ _______ _____ _____    ______ ____
ROOT
ATOM      1  C   UNL     1       2.247   5.691   0.082  0.00  0.00    +0.091 A 
ATOM      2  C   UNL     1       3.340   6.619  -0.231  0.00  0.00    +0.042 A 
ATOM      3  C   UNL     1       4.645   6.457  -0.700  0.00  0.00    +0.013 A 
ATOM      4  C   UNL     1       5.433   7.555  -0.903  0.00  0.00    +0.001 A 
ATOM      5  C   UNL     1       4.942   8.828  -0.653  0.00  0.00    +0.004 A 
ATOM      6  C   UNL     1       3.654   9.009  -0.195  0.00  0.00    +0.047 A 
ATOM      7  C   UNL     1       2.834   7.907   0.019  0.00  0.00    +0.138 A 
ATOM      8  O   UNL     1       1.563   7.780   0.451  0.00  0.00    -0.450 OA
ATOM      9  C   UNL     1       1.192   6.481   0.497  0.00  0.00    +0.197 A 
ENDROOT
BRANCH   1  12
ATOM     10  C   UNL     1       3.403   3.632   0.265  0.00  0.00    +0.241 C 
ATOM     11  O   UNL     1       4.430   4.239   0.504  0.00  0.00    -0.270 OA
ATOM     12  N   UNL     1       2.270   4.308  -0.013  0.00  0.00    -0.278 N 
ATOM     13  H   UNL     1       1.364   3.762  -0.316  0.00  0.00    +0.155 HD
BRANCH  10  15
ATOM     14  C   UNL     1       4.530   1.492   0.558  0.00  0.00    +0.013 C 
ATOM     15  C   UNL     1       3.397   2.169   0.280  0.00  0.00    +0.068 C 
BRANCH  14  19
ATOM     16  C   UNL     1       4.513  -2.749   0.602  0.00  0.00    +0.000 A 
ATOM     17  C   UNL     1       5.684  -2.063   0.874  0.00  0.00    +0.001 A 
ATOM     18  C   UNL     1       5.697  -0.684   0.861  0.00  0.00    +0.008 A 
ATOM     19  C   UNL     1       4.524   0.021   0.573  0.00  0.00    -0.025 A 
ATOM     20  C   UNL     1       3.344  -0.680   0.304  0.00  0.00    +0.008 A 
ATOM     21  C   UNL     1       3.348  -2.059   0.315  0.00  0.00    +0.001 A 
ENDBRANCH  14  19
ENDBRANCH  10  15
ENDBRANCH   1  12
BRANCH   9  22
ATOM     22  C   UNL     1      -0.078   6.005   0.905  0.00  0.00    +0.230 C 
ATOM     23  O   UNL     1      -0.278   4.808   1.000  0.00  0.00    -0.283 OA
BRANCH  22  24
ATOM     24  C   UNL     1      -1.161   6.963   1.217  0.00  0.00    +0.026 A 
ATOM     25  C   UNL     1      -0.899   8.334   1.243  0.00  0.00    +0.013 A 
ATOM     26  C   UNL     1      -1.914   9.222   1.528  0.00  0.00    +0.016 A 
ATOM     27  C   UNL     1      -3.190   8.756   1.800  0.00  0.00    +0.018 A 
ATOM     28  C   UNL     1      -3.455   7.397   1.781  0.00  0.00    +0.016 A 
ATOM     29  C   UNL     1      -2.449   6.499   1.492  0.00  0.00    +0.013 A 
ATOM     30 BR   UNL     1      -4.575   9.980   2.197  0.00  0.00    -0.050 Br
ENDBRANCH  22  24
ENDBRANCH   9  22
TORSDOF 5
