REMARK  Name = ZINC45353426
REMARK  11 active torsions:
REMARK  status: ('A' for Active; 'I' for Inactive)
REMARK    1  A    between atoms: C_1  and  C_2
REMARK    2  A    between atoms: C_2  and  C_3
REMARK    3  A    between atoms: C_3  and  C_4
REMARK    4  A    between atoms: C_4  and  C_5
REMARK    5  A    between atoms: C_5  and  C_27
REMARK    6  A    between atoms: N_8  and  C_12
REMARK    7  A    between atoms: C_12  and  C_13
REMARK    8  A    between atoms: N_15  and  C_16
REMARK    9  A    between atoms: N_15  and  C_17
REMARK   10  A    between atoms: C_17  and  C_19
REMARK   11  A    between atoms: C_17  and  C_20
REMARK                            x       y       z     vdW  Elec       q    Type
REMARK                         _______ _______ _______ _____ _____    ______ ____
ROOT
ATOM      1  C   UNL     1       1.623  -2.637   2.494  0.00  0.00    +0.138 C 
ATOM      2  C   UNL     1       2.993  -1.994   2.580  0.00  0.00    +0.251 C 
ATOM      3  O   UNL     1       3.904  -2.102   1.787  0.00  0.00    -0.272 OA
ATOM      4  N   UNL     1       2.988  -1.278   3.722  0.00  0.00    -0.215 N 
ATOM      5  C   UNL     1       1.818  -1.377   4.362  0.00  0.00    +0.310 C 
ATOM      6  O   UNL     1       1.573  -0.820   5.414  0.00  0.00    -0.252 OA
ATOM      7  N   UNL     1       0.941  -2.163   3.711  0.00  0.00    -0.281 N 
ATOM      8  H   UNL     1       0.036  -2.376   3.989  0.00  0.00    +0.152 HD
ENDROOT
BRANCH   1   9
ATOM      9  C   UNL     1       1.737  -4.140   2.501  0.00  0.00    -0.015 A 
ATOM     10  C   UNL     1       1.809  -4.832   1.307  0.00  0.00    +0.009 A 
ATOM     11  C   UNL     1       1.914  -6.210   1.313  0.00  0.00    +0.039 A 
ATOM     12  C   UNL     1       1.947  -6.897   2.514  0.00  0.00    +0.123 A 
ATOM     13  C   UNL     1       1.875  -6.202   3.710  0.00  0.00    +0.039 A 
ATOM     14  C   UNL     1       1.775  -4.824   3.702  0.00  0.00    +0.009 A 
ATOM     15  F   UNL     1       2.049  -8.244   2.521  0.00  0.00    -0.205 F 
ENDBRANCH   1   9
BRANCH   1  16
ATOM     16  C   UNL     1       0.883  -2.161   1.243  0.00  0.00    +0.040 C 
BRANCH  16  17
ATOM     17  C   UNL     1       0.827  -0.632   1.234  0.00  0.00    +0.003 C 
BRANCH  17  19
ATOM     18  C   UNL     1       0.032   1.373  -0.027  0.00  0.00    +0.004 C 
ATOM     19  C   UNL     1       0.087  -0.156  -0.018  0.00  0.00    -0.003 C 
ENDBRANCH  17  19
ENDBRANCH  16  17
ENDBRANCH   1  16
BRANCH   4  20
ATOM     20  C   UNL     1       4.125  -0.488   4.202  0.00  0.00    +0.213 C 
BRANCH  20  21
ATOM     21  C   UNL     1       4.030   0.913   3.655  0.00  0.00    +0.234 C 
ATOM     22  O   UNL     1       3.104   1.222   2.935  0.00  0.00    -0.274 OA
ATOM     23  N   UNL     1       4.974   1.823   3.967  0.00  0.00    -0.296 N 
ATOM     24  C   UNL     1       6.092   1.451   4.837  0.00  0.00    +0.132 C 
BRANCH  23  25
ATOM     25  C   UNL     1       4.882   3.185   3.435  0.00  0.00    +0.103 C 
ATOM     26  C   UNL     1       4.948   4.189   4.588  0.00  0.00    +0.033 C 
BRANCH  25  27
ATOM     27  C   UNL     1       6.028   3.433   2.488  0.00  0.00    -0.027 A 
ATOM     28  C   UNL     1       5.777   3.867   1.199  0.00  0.00    +0.008 A 
ATOM     29  C   UNL     1       6.827   4.095   0.330  0.00  0.00    +0.038 A 
ATOM     30  C   UNL     1       8.130   3.889   0.750  0.00  0.00    +0.123 A 
ATOM     31  C   UNL     1       8.380   3.454   2.040  0.00  0.00    +0.038 A 
ATOM     32  C   UNL     1       7.329   3.231   2.909  0.00  0.00    +0.008 A 
ATOM     33  F   UNL     1       9.157   4.111  -0.100  0.00  0.00    -0.205 F 
ENDBRANCH  25  27
ENDBRANCH  23  25
ENDBRANCH  20  21
ENDBRANCH   4  20
TORSDOF 8
