REMARK  Name = ZINC61882590
REMARK  9 active torsions:
REMARK  status: ('A' for Active; 'I' for Inactive)
REMARK    1  A    between atoms: C_1  and  C_2
REMARK    2  A    between atoms: C_2  and  N_3
REMARK    3  A    between atoms: N_3  and  C_4
REMARK    4  A    between atoms: N_3  and  C_5
REMARK    5  A    between atoms: C_5  and  C_6
REMARK    6  A    between atoms: C_6  and  N_7
REMARK    7  A    between atoms: N_7  and  S_8
REMARK    8  A    between atoms: S_8  and  C_11
REMARK    9  A    between atoms: C_15  and  N_18
REMARK                            x       y       z     vdW  Elec       q    Type
REMARK                         _______ _______ _______ _____ _____    ______ ____
ROOT
ATOM      1  S   UNL     1       2.155  -4.726  -3.673  0.00  0.00    +0.060 S 
ATOM      2  O   UNL     1       2.087  -6.130  -3.462  0.00  0.00    -0.153 OA
ATOM      3  O   UNL     1       1.362  -4.063  -4.648  0.00  0.00    -0.153 OA
ENDROOT
BRANCH   1   4
ATOM      4  C   UNL     1       3.835  -4.355  -4.053  0.00  0.00    +0.122 A 
ATOM      5  C   UNL     1       4.139  -3.586  -5.161  0.00  0.00    +0.049 A 
ATOM      6  C   UNL     1       5.457  -3.292  -5.463  0.00  0.00    +0.045 A 
ATOM      7  C   UNL     1       6.475  -3.767  -4.657  0.00  0.00    +0.044 A 
ATOM      8  C   UNL     1       6.173  -4.540  -3.543  0.00  0.00    +0.042 A 
ATOM      9  C   UNL     1       4.847  -4.829  -3.240  0.00  0.00    +0.065 A 
ATOM     10 BR   UNL     1       4.430  -5.875  -1.721  0.00  0.00    -0.046 Br
ATOM     11 CL   UNL     1       5.833  -2.326  -6.855  0.00  0.00    -0.083 Cl
BRANCH   8  12
ATOM     12  N   UNL     1       7.199  -5.023  -2.727  0.00  0.00    -0.357 N 
ATOM     13  H   UNL     1       8.123  -4.818  -2.938  0.00  0.00    +0.142 HD
ATOM     14  H   UNL     1       6.987  -5.563  -1.950  0.00  0.00    +0.142 HD
ENDBRANCH   8  12
ENDBRANCH   1   4
BRANCH   1  15
ATOM     15  N   UNL     1       1.813  -4.011  -2.219  0.00  0.00    -0.192 NA
ATOM     16  H   UNL     1       1.597  -4.559  -1.448  0.00  0.00    +0.148 HD
BRANCH  15  17
ATOM     17  C   UNL     1       1.837  -2.552  -2.096  0.00  0.00    +0.087 C 
BRANCH  17  18
ATOM     18  C   UNL     1       1.126  -2.136  -0.806  0.00  0.00    -0.062 C 
BRANCH  18  19
ATOM     19  N   UNL     1       1.150  -0.673  -0.683  0.00  0.00    +0.379 N 
ATOM     20  C   UNL     1       0.361  -0.078  -1.770  0.00  0.00    -0.096 C 
ATOM     21  H   UNL     1       2.103  -0.346  -0.741  0.00  0.00    -0.082 HD
BRANCH  19  23
ATOM     22  C   UNL     1       0.713   1.232   0.792  0.00  0.00    -0.017 C 
ATOM     23  C   UNL     1       0.575  -0.281   0.610  0.00  0.00    -0.083 C 
ENDBRANCH  19  23
ENDBRANCH  18  19
ENDBRANCH  17  18
ENDBRANCH  15  17
ENDBRANCH   1  15
TORSDOF 7
