REMARK  Name = ZINC13881816
REMARK  8 active torsions:
REMARK  status: ('A' for Active; 'I' for Inactive)
REMARK    1  A    between atoms: C_1  and  C_2
REMARK    2  A    between atoms: C_2  and  O_3
REMARK    3  A    between atoms: O_3  and  C_4
REMARK    4  A    between atoms: C_4  and  C_6
REMARK    5  A    between atoms: C_7  and  C_31
REMARK    6  A    between atoms: C_12  and  C_14
REMARK    7  A    between atoms: C_14  and  S_15
REMARK    8  A    between atoms: S_15  and  C_16
REMARK                            x       y       z     vdW  Elec       q    Type
REMARK                         _______ _______ _______ _____ _____    ______ ____
ROOT
ATOM      1  C   UNL     1       3.478   5.752  -0.000  0.00  0.00    +0.173 C 
ENDROOT
BRANCH   1   8
ATOM      2  C   UNL     1       5.434  11.660   0.013  0.00  0.00    +0.120 A 
ATOM      3  C   UNL     1       4.050  11.768   0.028  0.00  0.00    +0.062 A 
ATOM      4  N   UNL     1       3.352  10.663   0.023  0.00  0.00    -0.229 NA
ATOM      5  C   UNL     1       3.935   9.474   0.016  0.00  0.00    +0.165 A 
ATOM      6  S   UNL     1       5.623   9.883   0.001  0.00  0.00    -0.045 S 
ATOM      7  N   UNL     1       3.348   8.222   0.015  0.00  0.00    -0.264 N 
ATOM      8  C   UNL     1       4.118   7.116   0.001  0.00  0.00    +0.229 C 
ATOM      9  O   UNL     1       5.326   7.219  -0.011  0.00  0.00    -0.275 OA
ATOM     10  C   UNL     1       3.374  13.115   0.043  0.00  0.00    +0.067 C 
ATOM     11  H   UNL     1       2.381   8.139   0.024  0.00  0.00    +0.157 HD
BRANCH   2  12
ATOM     12  C   UNL     1       6.453  12.707   0.009  0.00  0.00    +0.348 C 
ATOM     13  O   UNL     1       6.122  13.878   0.018  0.00  0.00    -0.244 OA
BRANCH  12  14
ATOM     14  O   UNL     1       7.761  12.376  -0.007  0.00  0.00    -0.461 OA
BRANCH  14  16
ATOM     15  C   UNL     1      10.123  12.885  -0.028  0.00  0.00    +0.048 C 
ATOM     16  C   UNL     1       8.702  13.451  -0.010  0.00  0.00    +0.229 C 
ENDBRANCH  14  16
ENDBRANCH  12  14
ENDBRANCH   2  12
ENDBRANCH   1   8
BRANCH   1  17
ATOM     17  S   UNL     1       4.766   4.481  -0.020  0.00  0.00    -0.078 S 
BRANCH  17  18
ATOM     18  C   UNL     1       3.766   3.030  -0.018  0.00  0.00    +0.170 A 
ATOM     19  N   UNL     1       4.378   1.814  -0.031  0.00  0.00    -0.301 N 
ATOM     20  H   UNL     1       5.348   1.784  -0.041  0.00  0.00    +0.171 HD
ATOM     21  C   UNL     1       3.696   0.645  -0.030  0.00  0.00    +0.261 A 
ATOM     22  O   UNL     1       4.262  -0.435  -0.041  0.00  0.00    -0.267 OA
ATOM     23  C   UNL     1       2.267   0.755  -0.015  0.00  0.00    +0.075 A 
ATOM     24  C   UNL     1       1.312  -0.341  -0.012  0.00  0.00    -0.023 A 
ATOM     25  C   UNL     1       0.002  -0.004   0.002  0.00  0.00    -0.004 A 
ATOM     26  S   UNL     1      -0.022   1.771   0.012  0.00  0.00    -0.073 S 
ATOM     27  C   UNL     1       1.719   2.058  -0.003  0.00  0.00    +0.117 A 
ATOM     28  N   UNL     1       2.447   3.168  -0.005  0.00  0.00    -0.216 NA
ATOM     29  C   UNL     1      -1.173  -0.932   0.007  0.00  0.00    +0.043 C 
ATOM     30  C   UNL     1      -0.687  -2.336  -0.379  0.00  0.00    +0.005 C 
ATOM     31  C   UNL     1       0.560  -2.666   0.446  0.00  0.00    +0.005 C 
ATOM     32  C   UNL     1       1.735  -1.808  -0.023  0.00  0.00    +0.037 C 
ENDBRANCH  17  18
ENDBRANCH   1  17
TORSDOF 6
