REMARK  Name = ZINC48570439
REMARK  7 active torsions:
REMARK  status: ('A' for Active; 'I' for Inactive)
REMARK    1  A    between atoms: C_1  and  C_2
REMARK    2  A    between atoms: C_2  and  C_3
REMARK    3  A    between atoms: N_5  and  C_6
REMARK    4  A    between atoms: C_9  and  N_12
REMARK    5  A    between atoms: C_13  and  C_15
REMARK    6  A    between atoms: N_17  and  C_18
REMARK    7  A    between atoms: C_18  and  C_19
REMARK                            x       y       z     vdW  Elec       q    Type
REMARK                         _______ _______ _______ _____ _____    ______ ____
ROOT
ATOM      1  N   UNL     1       3.676  -4.012   5.715  0.00  0.00    -0.278 N 
ATOM      2  C   UNL     1       3.929  -5.335   5.750  0.00  0.00    +0.303 C 
ATOM      3  O   UNL     1       3.469  -6.064   4.896  0.00  0.00    -0.265 OA
ATOM      4  H   UNL     1       3.987  -3.439   6.433  0.00  0.00    +0.155 HD
ENDROOT
BRANCH   1   8
ATOM      5  C   UNL     1       1.556  -2.380   2.519  0.00  0.00    +0.033 A 
ATOM      6  C   UNL     1       1.241  -3.650   2.985  0.00  0.00    +0.025 A 
ATOM      7  C   UNL     1       1.943  -4.190   4.044  0.00  0.00    +0.025 A 
ATOM      8  C   UNL     1       2.965  -3.464   4.642  0.00  0.00    +0.034 A 
ATOM      9  C   UNL     1       3.280  -2.194   4.176  0.00  0.00    +0.025 A 
ATOM     10  C   UNL     1       2.582  -1.657   3.114  0.00  0.00    +0.025 A 
BRANCH   5  13
ATOM     11  C   UNL     1       1.475  -1.048   0.548  0.00  0.00    +0.217 C 
ATOM     12  O   UNL     1       2.638  -0.749   0.717  0.00  0.00    -0.275 OA
ATOM     13  N   UNL     1       0.844  -1.832   1.445  0.00  0.00    -0.286 N 
ATOM     14  H   UNL     1      -0.103  -2.017   1.347  0.00  0.00    +0.155 HD
BRANCH  11  16
ATOM     15  C   UNL     1       1.672   0.318  -1.512  0.00  0.00    +0.013 C 
ATOM     16  C   UNL     1       0.734  -0.543  -0.663  0.00  0.00    +0.093 C 
ENDBRANCH  11  16
ENDBRANCH   5  13
ENDBRANCH   1   8
BRANCH   2  17
ATOM     17  C   UNL     1       4.776  -5.904   6.841  0.00  0.00    +0.300 C 
ATOM     18  O   UNL     1       5.236  -5.175   7.695  0.00  0.00    -0.265 OA
ATOM     19  N   UNL     1       5.029  -7.227   6.877  0.00  0.00    -0.303 N 
ATOM     20  H   UNL     1       4.661  -7.810   6.194  0.00  0.00    +0.149 HD
BRANCH  19  21
ATOM     21  C   UNL     1       5.859  -7.786   7.947  0.00  0.00    +0.140 C 
BRANCH  21  22
ATOM     22  C   UNL     1       5.987  -9.275   7.758  0.00  0.00    -0.027 A 
ATOM     23  C   UNL     1       5.064 -10.126   8.337  0.00  0.00    +0.009 A 
ATOM     24  C   UNL     1       5.177 -11.493   8.167  0.00  0.00    +0.050 A 
ATOM     25  C   UNL     1       6.217 -12.014   7.414  0.00  0.00    +0.166 A 
ATOM     26  C   UNL     1       7.146 -11.158   6.830  0.00  0.00    +0.167 A 
ATOM     27  C   UNL     1       7.024  -9.788   7.000  0.00  0.00    +0.054 A 
ATOM     28  O   UNL     1       8.061 -11.906   6.147  0.00  0.00    -0.453 OA
ATOM     29  C   UNL     1       7.919 -13.245   6.657  0.00  0.00    +0.466 C 
ATOM     30  O   UNL     1       6.549 -13.300   7.097  0.00  0.00    -0.453 OA
ENDBRANCH  21  22
ENDBRANCH  19  21
ENDBRANCH   2  17
TORSDOF 6
