REMARK  Name = ZINC64789532
REMARK  6 active torsions:
REMARK  status: ('A' for Active; 'I' for Inactive)
REMARK    1  A    between atoms: C_1  and  C_2
REMARK    2  A    between atoms: C_2  and  C_3
REMARK    3  A    between atoms: C_2  and  C_4
REMARK    4  A    between atoms: C_7  and  C_10
REMARK    5  A    between atoms: N_15  and  C_16
REMARK    6  A    between atoms: N_22  and  C_25
REMARK                            x       y       z     vdW  Elec       q    Type
REMARK                         _______ _______ _______ _____ _____    ______ ____
ROOT
ATOM      1  C   UNL     1       2.020  -1.659  -6.972  0.00  0.00    +0.111 C 
ATOM      2  C   UNL     1       2.008  -3.092  -6.387  0.00  0.00    +0.078 C 
ATOM      3  C   UNL     1       3.351  -3.635  -6.840  0.00  0.00    +0.038 C 
ATOM      4  N   UNL     1       4.103  -2.596  -7.247  0.00  0.00    -0.280 N 
ATOM      5  N   UNL     1       3.472  -1.395  -7.105  0.00  0.00    -0.225 NA
ATOM      6  C   UNL     1       3.744  -0.517  -8.251  0.00  0.00    +0.128 C 
ATOM      7  C   UNL     1       3.735  -4.964  -6.834  0.00  0.00    +0.118 C 
ATOM      8  C   UNL     1       2.824  -6.025  -6.369  0.00  0.00    +0.258 C 
ATOM      9  N   UNL     1       3.266  -7.300  -6.392  0.00  0.00    -0.235 N 
ATOM     10  C   UNL     1       4.498  -7.606  -6.823  0.00  0.00    +0.320 C 
ATOM     11  O   UNL     1       4.835  -8.774  -6.819  0.00  0.00    -0.251 OA
ATOM     12  N   UNL     1       5.377  -6.694  -7.259  0.00  0.00    -0.190 N 
ATOM     13  C   UNL     1       5.070  -5.381  -7.298  0.00  0.00    +0.265 C 
ATOM     14  O   UNL     1       5.875  -4.562  -7.701  0.00  0.00    -0.269 OA
ATOM     15  O   UNL     1       1.704  -5.760  -5.976  0.00  0.00    -0.270 OA
ATOM     16  H   UNL     1       2.679  -8.010  -6.089  0.00  0.00    +0.159 HD
ATOM     17  H   UNL     1       5.000  -2.690  -7.604  0.00  0.00    +0.166 HD
ENDROOT
BRANCH  12  18
ATOM     18  C   UNL     1       6.643  -7.113  -7.690  0.00  0.00    +0.047 A 
ATOM     19  C   UNL     1       7.694  -7.195  -6.786  0.00  0.00    +0.024 A 
ATOM     20  C   UNL     1       8.940  -7.609  -7.213  0.00  0.00    +0.003 A 
ATOM     21  C   UNL     1       9.143  -7.942  -8.540  0.00  0.00    +0.020 A 
ATOM     22  C   UNL     1       8.098  -7.862  -9.443  0.00  0.00    +0.043 A 
ATOM     23  C   UNL     1       6.847  -7.454  -9.020  0.00  0.00    +0.044 A 
ATOM     24 CL   UNL     1       8.357  -8.280 -11.108  0.00  0.00    -0.083 Cl
ENDBRANCH  12  18
BRANCH   1  28
ATOM     25  C   UNL     1       0.205   1.108  -4.271  0.00  0.00    -0.045 A 
ATOM     26  C   UNL     1      -0.492   0.667  -5.380  0.00  0.00    +0.004 A 
ATOM     27  C   UNL     1       0.096  -0.228  -6.255  0.00  0.00    +0.005 A 
ATOM     28  C   UNL     1       1.380  -0.682  -6.020  0.00  0.00    -0.028 A 
ATOM     29  C   UNL     1       2.077  -0.241  -4.911  0.00  0.00    +0.005 A 
ATOM     30  C   UNL     1       1.491   0.658  -4.039  0.00  0.00    +0.004 A 
BRANCH  25  32
ATOM     31  C   UNL     1      -0.797   3.367  -4.068  0.00  0.00    +0.012 C 
ATOM     32  C   UNL     1      -0.436   2.084  -3.318  0.00  0.00    +0.013 C 
ATOM     33  C   UNL     1      -1.704   1.464  -2.729  0.00  0.00    +0.012 C 
ENDBRANCH  25  32
ENDBRANCH   1  28
TORSDOF 3
