REMARK  Name = ZINC03242564
REMARK  9 active torsions:
REMARK  status: ('A' for Active; 'I' for Inactive)
REMARK    1  A    between atoms: C_1  and  C_2
REMARK    2  A    between atoms: C_5  and  C_8
REMARK    3  A    between atoms: C_8  and  C_32
REMARK    4  A    between atoms: N_12  and  C_24
REMARK    5  A    between atoms: N_14  and  C_15
REMARK    6  A    between atoms: C_20  and  O_21
REMARK    7  A    between atoms: O_21  and  C_22
REMARK    8  A    between atoms: C_29  and  O_30
REMARK    9  A    between atoms: O_30  and  C_31
REMARK                            x       y       z     vdW  Elec       q    Type
REMARK                         _______ _______ _______ _____ _____    ______ ____
ROOT
ATOM      1  C   UNL     1      -1.400   2.995  -0.681  0.00  0.00    +0.210 C 
ATOM      2  N   UNL     1      -1.125   1.603  -0.332  0.00  0.00    -0.273 N 
ATOM      3  C   UNL     1       0.077   1.129  -0.017  0.00  0.00    +0.314 C 
ATOM      4  O   UNL     1       0.154  -0.068   0.180  0.00  0.00    -0.252 OA
ATOM      5  N   UNL     1       1.210   1.827   0.101  0.00  0.00    -0.199 N 
ATOM      6  C   UNL     1       1.226   3.206  -0.057  0.00  0.00    +0.172 C 
ATOM      7  N   UNL     1       2.313   3.840  -0.429  0.00  0.00    -0.222 NA
ATOM      8  S   UNL     1      -0.285   4.072   0.265  0.00  0.00    -0.050 S 
ATOM      9  H   UNL     1      -1.870   0.982  -0.327  0.00  0.00    +0.152 HD
ENDROOT
BRANCH   1  14
ATOM     10  C   UNL     1      -0.500   3.768  -6.336  0.00  0.00    +0.044 C 
ATOM     11  C   UNL     1      -0.736   3.567  -4.861  0.00  0.00    -0.050 A 
ATOM     12  C   UNL     1      -0.624   4.635  -3.991  0.00  0.00    +0.004 A 
ATOM     13  C   UNL     1      -0.839   4.450  -2.639  0.00  0.00    +0.007 A 
ATOM     14  C   UNL     1      -1.166   3.197  -2.156  0.00  0.00    -0.005 A 
ATOM     15  C   UNL     1      -1.273   2.127  -3.025  0.00  0.00    +0.007 A 
ATOM     16  C   UNL     1      -1.063   2.313  -4.378  0.00  0.00    +0.004 A 
ENDBRANCH   1  14
BRANCH   7  17
ATOM     17  C   UNL     1       2.333   5.210  -0.454  0.00  0.00    +0.108 A 
ATOM     18  C   UNL     1       1.920   5.938   0.662  0.00  0.00    +0.031 A 
ATOM     19  C   UNL     1       1.947   7.317   0.633  0.00  0.00    +0.002 A 
ATOM     20  C   UNL     1       2.372   7.982  -0.504  0.00  0.00    +0.004 A 
ATOM     21  C   UNL     1       2.778   7.271  -1.619  0.00  0.00    +0.048 A 
ATOM     22  C   UNL     1       2.762   5.887  -1.603  0.00  0.00    +0.145 A 
BRANCH  22  23
ATOM     23  O   UNL     1       3.160   5.187  -2.698  0.00  0.00    -0.493 OA
ATOM     24  C   UNL     1       3.585   5.945  -3.833  0.00  0.00    +0.277 C 
ENDBRANCH  22  23
ENDBRANCH   7  17
BRANCH   5  25
ATOM     25  C   UNL     1       2.406   1.153   0.391  0.00  0.00    +0.086 A 
ATOM     26  C   UNL     1       3.205   0.682  -0.640  0.00  0.00    +0.027 A 
ATOM     27  C   UNL     1       4.383   0.019  -0.352  0.00  0.00    +0.002 A 
ATOM     28  C   UNL     1       4.768  -0.177   0.962  0.00  0.00    +0.004 A 
ATOM     29  C   UNL     1       3.976   0.290   1.994  0.00  0.00    +0.047 A 
ATOM     30  C   UNL     1       2.796   0.961   1.714  0.00  0.00    +0.142 A 
BRANCH  30  31
ATOM     31  O   UNL     1       2.018   1.425   2.728  0.00  0.00    -0.493 OA
ATOM     32  C   UNL     1       2.482   1.191   4.060  0.00  0.00    +0.277 C 
ENDBRANCH  30  31
ENDBRANCH   5  25
BRANCH   1  33
ATOM     33  C   UNL     1      -2.853   3.334  -0.338  0.00  0.00    +0.425 C 
ATOM     34  F   UNL     1      -3.109   4.670  -0.664  0.00  0.00    -0.167 F 
ATOM     35  F   UNL     1      -3.710   2.503  -1.068  0.00  0.00    -0.167 F 
ATOM     36  F   UNL     1      -3.067   3.138   1.030  0.00  0.00    -0.167 F 
ENDBRANCH   1  33
TORSDOF 6
