REMARK  Name = ZINC02737766
REMARK  11 active torsions:
REMARK  status: ('A' for Active; 'I' for Inactive)
REMARK    1  A    between atoms: C_1  and  C_2
REMARK    2  A    between atoms: C_2  and  C_3
REMARK    3  A    between atoms: C_4  and  C_28
REMARK    4  A    between atoms: C_6  and  N_14
REMARK    5  A    between atoms: C_7  and  C_8
REMARK    6  A    between atoms: C_8  and  O_10
REMARK    7  A    between atoms: O_10  and  C_11
REMARK    8  A    between atoms: C_11  and  C_12
REMARK    9  A    between atoms: C_11  and  C_13
REMARK   10  A    between atoms: C_15  and  C_17
REMARK   11  A    between atoms: C_22  and  C_26
REMARK                            x       y       z     vdW  Elec       q    Type
REMARK                         _______ _______ _______ _____ _____    ______ ____
ROOT
ATOM      1  N   UNL     1       1.480   3.441   0.006  0.00  0.00    -0.275 N 
ATOM      2  C   UNL     1       2.754   3.881  -0.003  0.00  0.00    +0.257 C 
ATOM      3  O   UNL     1       3.673   3.083  -0.017  0.00  0.00    -0.269 OA
ATOM      4  H   UNL     1       0.748   4.076   0.017  0.00  0.00    +0.156 HD
ENDROOT
BRANCH   2   5
ATOM      5  C   UNL     1       3.033   5.321   0.002  0.00  0.00    +0.094 A 
ATOM      6  C   UNL     1       4.240   5.952  -0.001  0.00  0.00    +0.068 A 
ATOM      7  C   UNL     1       4.295   7.358   0.000  0.00  0.00    +0.008 A 
ATOM      8  C   UNL     1       5.444   8.191  -0.007  0.00  0.00    +0.011 A 
ATOM      9  C   UNL     1       5.321   9.544   0.001  0.00  0.00    +0.004 A 
ATOM     10  C   UNL     1       4.077  10.162   0.017  0.00  0.00    -0.049 A 
ATOM     11  C   UNL     1       2.933   9.389   0.025  0.00  0.00    +0.019 A 
ATOM     12  C   UNL     1       3.042   8.015   0.016  0.00  0.00    +0.022 A 
ATOM     13  S   UNL     1       1.874   6.678   0.021  0.00  0.00    -0.082 S 
ATOM     14  C   UNL     1       3.976  11.666   0.025  0.00  0.00    +0.044 C 
ATOM     15 CL   UNL     1       5.706   5.023  -0.011  0.00  0.00    -0.082 Cl
ENDBRANCH   2   5
BRANCH   1  19
ATOM     16  C   UNL     1       0.002  -0.004   0.002  0.00  0.00    -0.022 A 
ATOM     17  C   UNL     1       1.206  -0.602  -0.013  0.00  0.00    -0.008 A 
ATOM     18  S   UNL     1       2.345   0.767  -0.016  0.00  0.00    -0.078 S 
ATOM     19  C   UNL     1       1.217   2.081   0.002  0.00  0.00    +0.087 A 
ATOM     20  C   UNL     1      -0.018   1.440   0.010  0.00  0.00    +0.091 A 
ATOM     21  C   UNL     1       1.518  -2.076  -0.024  0.00  0.00    +0.052 C 
BRANCH  16  23
ATOM     22  C   UNL     1      -1.719  -1.071  -1.429  0.00  0.00    +0.009 C 
ATOM     23  C   UNL     1      -1.273  -0.807   0.010  0.00  0.00    +0.033 C 
ENDBRANCH  16  23
BRANCH  20  24
ATOM     24  C   UNL     1      -1.274   2.191   0.020  0.00  0.00    +0.342 C 
ATOM     25  O   UNL     1      -1.791   2.498   1.078  0.00  0.00    -0.245 OA
BRANCH  24  26
ATOM     26  O   UNL     1      -1.858   2.544  -1.143  0.00  0.00    -0.458 OA
BRANCH  26  27
ATOM     27  C   UNL     1      -3.102   3.288  -1.057  0.00  0.00    +0.171 C 
ATOM     28  C   UNL     1      -2.799   4.787  -1.024  0.00  0.00    +0.052 C 
ATOM     29  C   UNL     1      -3.972   2.970  -2.276  0.00  0.00    +0.052 C 
ENDBRANCH  26  27
ENDBRANCH  24  26
ENDBRANCH  20  24
ENDBRANCH   1  19
TORSDOF 6
