REMARK  Name = ZINC09292170
REMARK  9 active torsions:
REMARK  status: ('A' for Active; 'I' for Inactive)
REMARK    1  A    between atoms: C_1  and  C_2
REMARK    2  A    between atoms: C_4  and  C_16
REMARK    3  A    between atoms: C_5  and  C_15
REMARK    4  A    between atoms: N_6  and  C_7
REMARK    5  A    between atoms: C_10  and  O_13
REMARK    6  A    between atoms: O_13  and  C_14
REMARK    7  A    between atoms: C_26  and  C_28
REMARK    8  A    between atoms: C_28  and  C_29
REMARK    9  A    between atoms: C_29  and  C_30
REMARK                            x       y       z     vdW  Elec       q    Type
REMARK                         _______ _______ _______ _____ _____    ______ ____
ROOT
ATOM      1  C   UNL     1       0.138  -3.385  -1.467  0.00  0.00    +0.026 C 
ATOM      2  C   UNL     1      -0.025  -3.256  -2.831  0.00  0.00    +0.081 C 
ATOM      3  C   UNL     1      -0.089  -1.923  -3.490  0.00  0.00    +0.152 C 
ATOM      4  N   UNL     1       0.575  -0.879  -3.066  0.00  0.00    -0.283 NA
ATOM      5  N   UNL     1      -0.936  -1.895  -4.619  0.00  0.00    -0.152 N 
ATOM      6  C   UNL     1      -1.183  -3.092  -5.258  0.00  0.00    +0.181 C 
ATOM      7  N   UNL     1      -0.799  -4.288  -4.888  0.00  0.00    -0.152 NA
ATOM      8  C   UNL     1      -0.141  -4.438  -3.719  0.00  0.00    +0.273 C 
ATOM      9  O   UNL     1       0.341  -5.513  -3.400  0.00  0.00    -0.268 OA
ATOM     10  S   UNL     1      -2.148  -2.576  -6.653  0.00  0.00    -0.038 S 
ATOM     11  C   UNL     1      -2.243  -0.839  -6.242  0.00  0.00    +0.100 C 
ATOM     12  N   UNL     1      -1.533  -0.773  -5.152  0.00  0.00    -0.169 NA
ATOM     13  H   UNL     1       0.471  -0.024  -3.512  0.00  0.00    +0.188 HD
ENDROOT
BRANCH   1  17
ATOM     14  C   UNL     1      -0.989   1.228   0.258  0.00  0.00    +0.064 C 
ATOM     15  C   UNL     1      -0.483  -0.186   0.131  0.00  0.00    +0.022 A 
ATOM     16  C   UNL     1      -0.612  -0.964  -0.956  0.00  0.00    +0.031 A 
ATOM     17  C   UNL     1       0.026  -2.247  -0.628  0.00  0.00    -0.003 A 
ATOM     18  C   UNL     1       0.496  -2.116   0.669  0.00  0.00    +0.028 A 
ATOM     19  N   UNL     1       0.187  -0.877   1.102  0.00  0.00    -0.317 N 
ATOM     20  C   UNL     1       1.229  -3.171   1.456  0.00  0.00    +0.064 C 
BRANCH  19  21
ATOM     21  C   UNL     1       0.503  -0.371   2.371  0.00  0.00    +0.047 A 
ATOM     22  C   UNL     1       1.831  -0.180   2.731  0.00  0.00    +0.030 A 
ATOM     23  C   UNL     1       2.142   0.319   3.980  0.00  0.00    +0.047 A 
ATOM     24  C   UNL     1       1.129   0.629   4.876  0.00  0.00    +0.120 A 
ATOM     25  C   UNL     1      -0.197   0.438   4.517  0.00  0.00    +0.047 A 
ATOM     26  C   UNL     1      -0.510  -0.055   3.266  0.00  0.00    +0.030 A 
BRANCH  24  27
ATOM     27  O   UNL     1       1.436   1.120   6.106  0.00  0.00    -0.495 OA
ATOM     28  C   UNL     1       0.343   1.418   6.977  0.00  0.00    +0.277 C 
ENDBRANCH  24  27
ENDBRANCH  19  21
ENDBRANCH   1  17
BRANCH  11  29
ATOM     29  C   UNL     1      -2.960   0.268  -6.971  0.00  0.00    +0.065 C 
BRANCH  29  30
ATOM     30  C   UNL     1      -2.747   1.589  -6.231  0.00  0.00    +0.010 C 
BRANCH  30  31
ATOM     31  C   UNL     1      -3.475   2.713  -6.971  0.00  0.00    -0.011 C 
ATOM     32  C   UNL     1      -2.838   2.913  -8.347  0.00  0.00    +0.003 C 
ATOM     33  C   UNL     1      -3.567   4.037  -9.088  0.00  0.00    +0.000 C 
ATOM     34  C   UNL     1      -3.458   5.333  -8.282  0.00  0.00    +0.000 C 
ATOM     35  C   UNL     1      -4.095   5.133  -6.905  0.00  0.00    +0.000 C 
ATOM     36  C   UNL     1      -3.366   4.009  -6.165  0.00  0.00    +0.003 C 
ENDBRANCH  30  31
ENDBRANCH  29  30
ENDBRANCH  11  29
TORSDOF 6
