REMARK  Name = ZINC38818905
REMARK  6 active torsions:
REMARK  status: ('A' for Active; 'I' for Inactive)
REMARK    1  A    between atoms: C_1  and  C_2
REMARK    2  A    between atoms: N_5  and  N_11
REMARK    3  A    between atoms: C_12  and  C_13
REMARK    4  A    between atoms: C_16  and  N_19
REMARK    5  A    between atoms: C_20  and  C_31
REMARK    6  A    between atoms: C_23  and  C_25
REMARK                            x       y       z     vdW  Elec       q    Type
REMARK                         _______ _______ _______ _____ _____    ______ ____
ROOT
ATOM      1  C   UNL     1      -3.595  -4.921  -0.217  0.00  0.00    -0.005 A 
ATOM      2  C   UNL     1      -4.829  -4.263  -0.213  0.00  0.00    +0.011 A 
ATOM      3  C   UNL     1      -5.995  -4.988  -0.315  0.00  0.00    +0.025 A 
ATOM      4  C   UNL     1      -5.947  -6.375  -0.422  0.00  0.00    +0.052 A 
ATOM      5  C   UNL     1      -4.720  -7.034  -0.426  0.00  0.00    +0.025 A 
ATOM      6  C   UNL     1      -3.550  -6.314  -0.330  0.00  0.00    +0.011 A 
ENDROOT
BRANCH   4   7
ATOM      7  N   UNL     1      -7.128  -7.105  -0.524  0.00  0.00    -0.216 N 
ATOM      8  C   UNL     1      -7.222  -8.569  -0.636  0.00  0.00    +0.134 C 
ATOM      9  C   UNL     1      -8.739  -8.829  -0.717  0.00  0.00    +0.087 C 
ATOM     10  C   UNL     1      -9.350  -7.448  -0.640  0.00  0.00    +0.069 C 
ATOM     11  N   UNL     1      -8.414  -6.569  -0.531  0.00  0.00    -0.183 NA
BRANCH  10  12
ATOM     12  C   UNL     1     -10.794  -7.153  -0.678  0.00  0.00    -0.002 A 
ATOM     13  C   UNL     1     -11.720  -8.193  -0.787  0.00  0.00    +0.010 A 
ATOM     14  C   UNL     1     -13.070  -7.910  -0.821  0.00  0.00    +0.001 A 
ATOM     15  C   UNL     1     -13.507  -6.599  -0.748  0.00  0.00    +0.000 A 
ATOM     16  C   UNL     1     -12.595  -5.564  -0.640  0.00  0.00    +0.001 A 
ATOM     17  C   UNL     1     -11.243  -5.832  -0.599  0.00  0.00    +0.010 A 
ENDBRANCH  10  12
BRANCH   8  18
ATOM     18  C   UNL     1      -6.530  -9.051  -1.885  0.00  0.00    -0.025 A 
ATOM     19  C   UNL     1      -6.621  -8.316  -3.053  0.00  0.00    +0.005 A 
ATOM     20  C   UNL     1      -5.987  -8.758  -4.199  0.00  0.00    +0.000 A 
ATOM     21  C   UNL     1      -5.261  -9.934  -4.177  0.00  0.00    +0.000 A 
ATOM     22  C   UNL     1      -5.170 -10.669  -3.010  0.00  0.00    +0.000 A 
ATOM     23  C   UNL     1      -5.801 -10.225  -1.862  0.00  0.00    +0.005 A 
ENDBRANCH   8  18
ENDBRANCH   4   7
BRANCH   1  25
ATOM     24  N   UNL     1      -2.389  -2.855  -0.002  0.00  0.00    -0.169 NA
ATOM     25  C   UNL     1      -2.346  -4.149  -0.107  0.00  0.00    +0.141 C 
BRANCH  24  30
ATOM     26  C   UNL     1       1.673  -1.215  -2.331  0.00  0.00    +0.073 C 
ATOM     27  C   UNL     1       0.799  -1.285  -1.105  0.00  0.00    +0.124 A 
ATOM     28  C   UNL     1      -0.439  -2.067  -1.119  0.00  0.00    +0.296 A 
ATOM     29  O   UNL     1      -0.775  -2.671  -2.122  0.00  0.00    -0.264 OA
ATOM     30  N   UNL     1      -1.202  -2.111  -0.007  0.00  0.00    -0.170 N 
ATOM     31  C   UNL     1      -0.823  -1.442   1.097  0.00  0.00    +0.198 A 
ATOM     32  S   UNL     1      -1.801  -1.507   2.501  0.00  0.00    -0.010 S 
ATOM     33  N   UNL     1       0.313  -0.722   1.115  0.00  0.00    -0.254 N 
ATOM     34  H   UNL     1       0.567  -0.247   1.922  0.00  0.00    +0.191 HD
ATOM     35  N   UNL     1       1.137  -0.653  -0.015  0.00  0.00    -0.172 NA
ENDBRANCH  24  30
ENDBRANCH   1  25
TORSDOF 5
