REMARK  Name = ZINC39710551
REMARK  15 active torsions:
REMARK  status: ('A' for Active; 'I' for Inactive)
REMARK    1  A    between atoms: C_1  and  C_2
REMARK    2  A    between atoms: C_2  and  C_3
REMARK    3  A    between atoms: C_10  and  C_15
REMARK    4  A    between atoms: C_15  and  C_17
REMARK    5  A    between atoms: C_15  and  N_27
REMARK    6  A    between atoms: N_22  and  C_23
REMARK    7  A    between atoms: C_23  and  C_24
REMARK    8  A    between atoms: C_23  and  C_25
REMARK    9  A    between atoms: C_23  and  C_26
REMARK   10  A    between atoms: N_27  and  C_28
REMARK   11  A    between atoms: N_27  and  C_37
REMARK   12  A    between atoms: C_28  and  C_29
REMARK   13  A    between atoms: C_32  and  O_35
REMARK   14  A    between atoms: O_35  and  C_36
REMARK   15  A    between atoms: C_37  and  C_38
REMARK                            x       y       z     vdW  Elec       q    Type
REMARK                         _______ _______ _______ _____ _____    ______ ____
ROOT
ATOM      1  C   UNL     1       0.394  -3.985   6.244  0.00  0.00    +0.115 C 
ENDROOT
BRANCH   1   9
ATOM      2  C   UNL     1       6.020  -2.447   6.432  0.00  0.00    -0.047 A 
ATOM      3  C   UNL     1       5.764  -1.446   7.370  0.00  0.00    +0.005 A 
ATOM      4  C   UNL     1       4.507  -1.029   7.672  0.00  0.00    +0.024 A 
ATOM      5  C   UNL     1       3.392  -1.604   7.036  0.00  0.00    +0.040 A 
ATOM      6  N   UNL     1       2.163  -1.186   7.340  0.00  0.00    -0.284 N 
ATOM      7  C   UNL     1       1.072  -1.683   6.782  0.00  0.00    +0.226 C 
ATOM      8  O   UNL     1      -0.024  -1.261   7.100  0.00  0.00    -0.275 OA
ATOM      9  C   UNL     1       1.192  -2.778   5.746  0.00  0.00    +0.119 C 
ATOM     10  C   UNL     1       2.588  -3.256   5.396  0.00  0.00    -0.003 C 
ATOM     11  C   UNL     1       3.632  -2.664   6.042  0.00  0.00    -0.007 A 
ATOM     12  C   UNL     1       5.012  -3.062   5.761  0.00  0.00    +0.013 A 
ATOM     13  H   UNL     1       2.064  -0.484   8.003  0.00  0.00    +0.155 HD
BRANCH   2  15
ATOM     14  C   UNL     1       8.009  -1.989   5.024  0.00  0.00    +0.009 C 
ATOM     15  C   UNL     1       7.445  -2.852   6.155  0.00  0.00    +0.032 C 
ENDBRANCH   2  15
ENDBRANCH   1   9
BRANCH   1  16
ATOM     16  C   UNL     1       0.985  -4.476   7.566  0.00  0.00    +0.236 C 
ATOM     17  N   UNL     1       1.109  -3.363   8.518  0.00  0.00    -0.148 NA
ATOM     18  N   UNL     1       2.298  -3.220   8.809  0.00  0.00    -0.069 NA
ATOM     19  N   UNL     1       3.130  -4.133   8.163  0.00  0.00    -0.179 N 
ATOM     20  N   UNL     1       2.369  -4.954   7.368  0.00  0.00    -0.179 NA
ATOM     21  H   UNL     1       4.094  -4.182   8.261  0.00  0.00    +0.191 HD
BRANCH  20  22
ATOM     22  C   UNL     1       2.505  -6.359   7.774  0.00  0.00    +0.035 C 
ATOM     23  C   UNL     1       1.562  -7.226   6.938  0.00  0.00    +0.029 C 
ATOM     24  C   UNL     1       3.948  -6.816   7.554  0.00  0.00    +0.029 C 
ATOM     25  C   UNL     1       2.146  -6.498   9.255  0.00  0.00    +0.029 C 
ENDBRANCH  20  22
ENDBRANCH   1  16
BRANCH   1  26
ATOM     26  N   UNL     1      -1.008  -3.594   6.448  0.00  0.00    -0.288 NA
BRANCH  26  27
ATOM     27  C   UNL     1      -1.795  -4.716   6.977  0.00  0.00    +0.120 C 
BRANCH  27  28
ATOM     28  C   UNL     1      -3.089  -4.196   7.548  0.00  0.00    -0.033 A 
ATOM     29  C   UNL     1      -3.123  -3.700   8.838  0.00  0.00    +0.008 A 
ATOM     30  C   UNL     1      -4.309  -3.223   9.364  0.00  0.00    +0.046 A 
ATOM     31  C   UNL     1      -5.464  -3.243   8.597  0.00  0.00    +0.120 A 
ATOM     32  C   UNL     1      -5.427  -3.741   7.303  0.00  0.00    +0.046 A 
ATOM     33  C   UNL     1      -4.238  -4.212   6.780  0.00  0.00    +0.008 A 
BRANCH  31  34
ATOM     34  O   UNL     1      -6.632  -2.775   9.112  0.00  0.00    -0.495 OA
ATOM     35  C   UNL     1      -7.782  -2.826   8.265  0.00  0.00    +0.277 C 
ENDBRANCH  31  34
ENDBRANCH  27  28
ENDBRANCH  26  27
BRANCH  26  36
ATOM     36  C   UNL     1      -1.597  -3.078   5.205  0.00  0.00    +0.116 C 
BRANCH  36  37
ATOM     37  C   UNL     1      -1.365  -4.082   4.075  0.00  0.00    +0.132 C 
ATOM     38  C   UNL     1      -1.873  -3.495   2.740  0.00  0.00    +0.035 C 
ATOM     39  C   UNL     1      -2.516  -4.734   2.059  0.00  0.00    +0.031 C 
ATOM     40  C   UNL     1      -3.075  -5.490   3.291  0.00  0.00    +0.160 C 
ATOM     41  O   UNL     1      -2.104  -5.282   4.332  0.00  0.00    -0.375 OA
ENDBRANCH  36  37
ENDBRANCH  26  36
ENDBRANCH   1  26
TORSDOF 10
