REMARK  Name = ZINC13569214
REMARK  11 active torsions:
REMARK  status: ('A' for Active; 'I' for Inactive)
REMARK    1  A    between atoms: C_1  and  C_2
REMARK    2  A    between atoms: C_8  and  C_26
REMARK    3  A    between atoms: C_11  and  C_12
REMARK    4  A    between atoms: C_11  and  O_21
REMARK    5  A    between atoms: C_13  and  C_20
REMARK    6  A    between atoms: C_14  and  C_19
REMARK    7  A    between atoms: C_17  and  C_18
REMARK    8  A    between atoms: C_30  and  O_32
REMARK    9  A    between atoms: O_32  and  C_33
REMARK   10  A    between atoms: C_33  and  C_34
REMARK   11  A    between atoms: C_33  and  C_35
REMARK                            x       y       z     vdW  Elec       q    Type
REMARK                         _______ _______ _______ _____ _____    ______ ____
ROOT
ATOM      1  C   UNL     1       0.438   4.158  -5.916  0.00  0.00    +0.089 C 
ATOM      2  C   UNL     1      -0.268   4.832  -4.768  0.00  0.00    +0.136 A 
ATOM      3  C   UNL     1       0.047   4.735  -3.456  0.00  0.00    +0.091 A 
ATOM      4  C   UNL     1      -0.918   5.553  -2.810  0.00  0.00    +0.172 A 
ATOM      5  N   UNL     1      -1.682   6.032  -3.757  0.00  0.00    -0.063 NA
ATOM      6  O   UNL     1      -1.331   5.646  -4.847  0.00  0.00    -0.358 OA
ATOM      7  N   UNL     1      -1.032   5.792  -1.442  0.00  0.00    -0.235 N 
ATOM      8  C   UNL     1      -0.101   5.317  -0.414  0.00  0.00    +0.151 C 
ATOM      9  C   UNL     1      -0.628   5.819   0.911  0.00  0.00    +0.072 C 
ATOM     10  C   UNL     1      -0.070   5.610   2.160  0.00  0.00    +0.135 C 
ATOM     11  C   UNL     1      -1.795   6.535   0.620  0.00  0.00    +0.249 C 
ATOM     12  O   UNL     1      -2.510   7.095   1.433  0.00  0.00    -0.282 OA
ATOM     13  C   UNL     1      -2.012   6.495  -0.850  0.00  0.00    +0.293 C 
ATOM     14  O   UNL     1      -2.939   7.022  -1.431  0.00  0.00    -0.266 OA
ENDROOT
BRANCH  10  15
ATOM     15  C   UNL     1      -0.714   6.171   3.355  0.00  0.00    +0.040 A 
ATOM     16  C   UNL     1      -1.407   5.430   4.416  0.00  0.00    -0.019 A 
ATOM     17  C   UNL     1      -1.835   6.346   5.301  0.00  0.00    +0.017 A 
ATOM     18  N   UNL     1      -1.464   7.589   4.874  0.00  0.00    -0.361 N 
ATOM     19  H   UNL     1      -1.657   8.416   5.343  0.00  0.00    +0.165 HD
ATOM     20  C   UNL     1      -0.786   7.504   3.714  0.00  0.00    +0.024 A 
ATOM     21  C   UNL     1      -0.210   8.661   2.939  0.00  0.00    +0.064 C 
ATOM     22  C   UNL     1      -2.602   6.049   6.563  0.00  0.00    +0.063 C 
ATOM     23  C   UNL     1      -1.600   3.938   4.497  0.00  0.00    +0.046 C 
ENDBRANCH  10  15
BRANCH   8  24
ATOM     24  C   UNL     1      -0.055   3.811  -0.414  0.00  0.00    -0.019 A 
ATOM     25  C   UNL     1      -1.214   3.085  -0.617  0.00  0.00    +0.006 A 
ATOM     26  C   UNL     1      -1.174   1.703  -0.624  0.00  0.00    +0.004 A 
ATOM     27  C   UNL     1       0.023   1.044  -0.417  0.00  0.00    +0.045 A 
ATOM     28  C   UNL     1       1.187   1.770  -0.213  0.00  0.00    +0.121 A 
ATOM     29  C   UNL     1       1.145   3.157  -0.212  0.00  0.00    +0.051 A 
BRANCH  28  30
ATOM     30  O   UNL     1       2.366   1.125  -0.014  0.00  0.00    -0.489 OA
BRANCH  30  31
ATOM     31  C   UNL     1       2.316  -0.300   0.091  0.00  0.00    +0.167 C 
ATOM     32  C   UNL     1       2.349  -0.916  -1.309  0.00  0.00    +0.051 C 
ATOM     33  C   UNL     1       3.520  -0.794   0.895  0.00  0.00    +0.051 C 
ENDBRANCH  30  31
ENDBRANCH  28  30
ENDBRANCH   8  24
BRANCH  10  34
ATOM     34  O   UNL     1       1.067   4.892   2.281  0.00  0.00    -0.506 OA
ATOM     35  H   UNL     1       1.329   4.841   3.245  0.00  0.00    +0.292 HD
ENDBRANCH  10  34
TORSDOF 5
