REMARK  Name = ZINC38700973
REMARK  10 active torsions:
REMARK  status: ('A' for Active; 'I' for Inactive)
REMARK    1  A    between atoms: C_1  and  C_2
REMARK    2  A    between atoms: C_2  and  C_3
REMARK    3  A    between atoms: C_3  and  O_4
REMARK    4  A    between atoms: O_4  and  C_5
REMARK    5  A    between atoms: C_9  and  C_11
REMARK    6  A    between atoms: C_16  and  O_25
REMARK    7  A    between atoms: C_20  and  N_24
REMARK    8  A    between atoms: C_21  and  C_22
REMARK    9  A    between atoms: O_25  and  C_26
REMARK   10  A    between atoms: C_26  and  C_28
REMARK                            x       y       z     vdW  Elec       q    Type
REMARK                         _______ _______ _______ _____ _____    ______ ____
ROOT
ATOM      1  C   UNL     1       2.074  -5.990  -3.503  0.00  0.00    +0.098 C 
ATOM      2  C   UNL     1       3.508  -6.447  -3.545  0.00  0.00    +0.008 A 
ATOM      3  C   UNL     1       4.283  -6.362  -2.402  0.00  0.00    +0.012 A 
ATOM      4  C   UNL     1       5.600  -6.777  -2.421  0.00  0.00    +0.047 A 
ATOM      5  C   UNL     1       6.151  -7.281  -3.591  0.00  0.00    +0.135 A 
ATOM      6  C   UNL     1       5.378  -7.367  -4.738  0.00  0.00    +0.093 A 
ATOM      7  C   UNL     1       4.053  -6.950  -4.716  0.00  0.00    +0.138 A 
ATOM      8  O   UNL     1       3.310  -7.040  -5.846  0.00  0.00    -0.441 OA
ATOM      9  C   UNL     1       1.969  -7.019  -5.770  0.00  0.00    +0.199 C 
ATOM     10  C   UNL     1       1.324  -6.534  -4.687  0.00  0.00    +0.098 C 
ENDROOT
BRANCH   1  15
ATOM     11  C   UNL     1       1.411  -2.404  -2.513  0.00  0.00    +0.121 A 
ATOM     12  C   UNL     1       1.948  -1.718  -3.592  0.00  0.00    +0.045 A 
ATOM     13  C   UNL     1       2.523  -2.416  -4.636  0.00  0.00    +0.004 A 
ATOM     14  C   UNL     1       2.563  -3.798  -4.607  0.00  0.00    +0.005 A 
ATOM     15  C   UNL     1       2.028  -4.484  -3.532  0.00  0.00    -0.031 A 
ATOM     16  C   UNL     1       1.458  -3.790  -2.483  0.00  0.00    +0.050 A 
BRANCH  11  17
ATOM     17  O   UNL     1       0.846  -1.720  -1.484  0.00  0.00    -0.492 OA
BRANCH  17  18
ATOM     18  C   UNL     1       0.833  -0.294  -1.582  0.00  0.00    +0.229 C 
BRANCH  18  20
ATOM     19  C   UNL     1       0.148   1.823  -0.447  0.00  0.00    +0.007 C 
ATOM     20  C   UNL     1       0.162   0.297  -0.341  0.00  0.00    +0.038 C 
ENDBRANCH  18  20
ENDBRANCH  17  18
ENDBRANCH  11  17
ENDBRANCH   1  15
BRANCH   9  21
ATOM     21  N   UNL     1       1.234  -7.503  -6.824  0.00  0.00    -0.328 N 
ATOM     22  H   UNL     1       1.684  -7.853  -7.608  0.00  0.00    +0.145 HD
ATOM     23  H   UNL     1       0.265  -7.495  -6.784  0.00  0.00    +0.145 HD
ENDBRANCH   9  21
BRANCH  10  24
ATOM     24  C   UNL     1      -0.108  -6.538  -4.668  0.00  0.00    +0.101 C 
ATOM     25  N   UNL     1      -1.244  -6.542  -4.653  0.00  0.00    -0.191 NA
ENDBRANCH  10  24
BRANCH   5  26
ATOM     26  O   UNL     1       7.447  -7.689  -3.612  0.00  0.00    -0.422 OA
BRANCH  26  27
ATOM     27  C   UNL     1       7.771  -8.803  -2.924  0.00  0.00    +0.353 C 
ATOM     28  O   UNL     1       6.900  -9.466  -2.396  0.00  0.00    -0.244 OA
BRANCH  27  29
ATOM     29  C   UNL     1       9.175  -9.212  -2.811  0.00  0.00    +0.116 A 
ATOM     30  C   UNL     1       9.694 -10.296  -2.170  0.00  0.00    +0.070 A 
ATOM     31  C   UNL     1      11.084 -10.516  -2.179  0.00  0.00    +0.008 A 
ATOM     32  C   UNL     1      11.809 -11.575  -1.575  0.00  0.00    +0.010 A 
ATOM     33  C   UNL     1      13.161 -11.639  -1.678  0.00  0.00    +0.001 A 
ATOM     34  C   UNL     1      13.885 -10.678  -2.375  0.00  0.00    +0.001 A 
ATOM     35  C   UNL     1      13.219  -9.631  -2.978  0.00  0.00    +0.016 A 
ATOM     36  C   UNL     1      11.846  -9.552  -2.881  0.00  0.00    +0.022 A 
ATOM     37  S   UNL     1      10.623  -8.418  -3.488  0.00  0.00    -0.080 S 
ATOM     38 CL   UNL     1       8.643 -11.403  -1.343  0.00  0.00    -0.082 Cl
ENDBRANCH  27  29
ENDBRANCH  26  27
ENDBRANCH   5  26
TORSDOF 9
