REMARK  Name = ZINC38818841
REMARK  3 active torsions:
REMARK  status: ('A' for Active; 'I' for Inactive)
REMARK    1  A    between atoms: C_10  and  N_27
REMARK    2  A    between atoms: C_12  and  C_18
REMARK    3  A    between atoms: C_15  and  C_16
REMARK                            x       y       z     vdW  Elec       q    Type
REMARK                         _______ _______ _______ _____ _____    ______ ____
ROOT
ATOM      1  C   UNL     1      -0.016   1.361   0.009  0.00  0.00    +0.002 A 
ATOM      2  C   UNL     1       1.169   2.084   0.002  0.00  0.00    +0.002 A 
ATOM      3  C   UNL     1       2.384   1.434  -0.013  0.00  0.00    +0.028 A 
ATOM      4  C   UNL     1       2.427   0.046  -0.020  0.00  0.00    +0.070 A 
ATOM      5  C   UNL     1       1.222  -0.686  -0.013  0.00  0.00    +0.090 A 
ATOM      6  C   UNL     1       0.002  -0.004   0.002  0.00  0.00    +0.030 A 
ATOM      7  N   UNL     1       1.549  -2.005  -0.022  0.00  0.00    -0.227 NA
ATOM      8  C   UNL     1       2.841  -2.132  -0.016  0.00  0.00    +0.153 A 
ATOM      9  N   UNL     1       3.432  -0.885  -0.037  0.00  0.00    -0.306 N 
ATOM     10  C   UNL     1       4.885  -0.712  -0.082  0.00  0.00    +0.169 C 
ATOM     11  C   UNL     1       5.554  -1.861   0.672  0.00  0.00    +0.116 C 
ATOM     12  C   UNL     1       4.985  -3.198   0.294  0.00  0.00    +0.010 C 
ATOM     13  C   UNL     1       3.681  -3.356  -0.018  0.00  0.00    +0.091 C 
ENDROOT
BRANCH  11  14
ATOM     14  C   UNL     1       5.362  -1.651   2.152  0.00  0.00    +0.118 A 
ATOM     15  N   UNL     1       6.221  -1.073   2.940  0.00  0.00    -0.232 NA
ATOM     16  C   UNL     1       5.734  -1.050   4.207  0.00  0.00    +0.089 A 
ATOM     17  C   UNL     1       6.226  -0.562   5.420  0.00  0.00    +0.030 A 
ATOM     18  C   UNL     1       5.482  -0.691   6.559  0.00  0.00    +0.002 A 
ATOM     19  C   UNL     1       4.238  -1.304   6.525  0.00  0.00    +0.002 A 
ATOM     20  C   UNL     1       3.732  -1.793   5.339  0.00  0.00    +0.028 A 
ATOM     21  C   UNL     1       4.473  -1.671   4.173  0.00  0.00    +0.066 A 
ATOM     22  N   UNL     1       4.264  -2.035   2.857  0.00  0.00    -0.341 N 
ATOM     23  H   UNL     1       3.480  -2.483   2.503  0.00  0.00    +0.167 HD
ENDBRANCH  11  14
BRANCH  10  24
ATOM     24  N   UNL     1       5.336  -0.713  -1.480  0.00  0.00    -0.310 NA
ATOM     25  H   UNL     1       4.905   0.037  -1.999  0.00  0.00    +0.120 HD
ATOM     26  H   UNL     1       6.342  -0.659  -1.535  0.00  0.00    +0.120 HD
ENDBRANCH  10  24
BRANCH  13  27
ATOM     27  C   UNL     1       3.135  -4.641  -0.336  0.00  0.00    +0.103 C 
ATOM     28  N   UNL     1       2.702  -5.660  -0.589  0.00  0.00    -0.191 NA
ENDBRANCH  13  27
TORSDOF 3
