REMARK  Name = ZINC35745858
REMARK  18 active torsions:
REMARK  status: ('A' for Active; 'I' for Inactive)
REMARK    1  A    between atoms: C_1  and  C_2
REMARK    2  A    between atoms: C_7  and  C_8
REMARK    3  A    between atoms: C_17  and  C_19
REMARK    4  A    between atoms: C_19  and  N_20
REMARK    5  A    between atoms: N_20  and  C_21
REMARK    6  A    between atoms: N_20  and  C_26
REMARK    7  A    between atoms: C_21  and  C_22
REMARK    8  A    between atoms: C_22  and  C_23
REMARK    9  A    between atoms: C_23  and  C_24
REMARK   10  A    between atoms: C_23  and  C_25
REMARK   11  A    between atoms: C_26  and  C_27
REMARK   12  A    between atoms: C_27  and  C_29
REMARK   13  A    between atoms: C_27  and  O_35
REMARK   14  A    between atoms: C_29  and  O_30
REMARK   15  A    between atoms: O_30  and  C_31
REMARK   16  A    between atoms: C_31  and  C_32
REMARK   17  A    between atoms: C_32  and  C_33
REMARK   18  A    between atoms: C_32  and  C_34
REMARK                            x       y       z     vdW  Elec       q    Type
REMARK                         _______ _______ _______ _____ _____    ______ ____
ROOT
ATOM      1  C   UNL     1      -4.225   7.874   1.076  0.00  0.00    +0.004 A 
ATOM      2  C   UNL     1      -3.745   8.997   1.664  0.00  0.00    +0.056 A 
ATOM      3  S   UNL     1      -3.267   8.439   3.288  0.00  0.00    -0.076 S 
ATOM      4  C   UNL     1      -3.719   6.730   3.142  0.00  0.00    +0.116 A 
ATOM      5  C   UNL     1      -4.234   6.632   1.839  0.00  0.00    +0.080 A 
ATOM      6  C   UNL     1      -4.689   5.332   1.448  0.00  0.00    +0.260 A 
ATOM      7  O   UNL     1      -5.148   5.146   0.334  0.00  0.00    -0.267 OA
ATOM      8  N   UNL     1      -4.600   4.318   2.328  0.00  0.00    -0.312 N 
ATOM      9  H   UNL     1      -4.906   3.435   2.068  0.00  0.00    +0.170 HD
ATOM     10  C   UNL     1      -4.090   4.506   3.572  0.00  0.00    +0.094 A 
ATOM     11  N   UNL     1      -3.659   5.679   3.955  0.00  0.00    -0.229 NA
ENDROOT
BRANCH   1  18
ATOM     12  C   UNL     1      -7.027   7.367   0.567  0.00  0.00    +0.044 C 
ATOM     13  C   UNL     1      -6.085   7.667  -0.571  0.00  0.00    -0.043 A 
ATOM     14  C   UNL     1      -6.557   7.708  -1.867  0.00  0.00    +0.004 A 
ATOM     15  C   UNL     1      -5.694   7.983  -2.912  0.00  0.00    +0.000 A 
ATOM     16  C   UNL     1      -4.353   8.219  -2.665  0.00  0.00    +0.001 A 
ATOM     17  C   UNL     1      -3.870   8.181  -1.373  0.00  0.00    +0.009 A 
ATOM     18  C   UNL     1      -4.737   7.910  -0.315  0.00  0.00    -0.014 A 
ENDBRANCH   1  18
BRANCH  10  19
ATOM     19  C   UNL     1      -4.010   3.341   4.524  0.00  0.00    -0.003 C 
BRANCH  19  20
ATOM     20  N   UNL     1      -3.559   3.814   5.840  0.00  0.00    +0.386 N 
ATOM     21  H   UNL     1      -2.704   4.339   5.734  0.00  0.00    -0.081 HD
BRANCH  20  22
ATOM     22  C   UNL     1      -3.320   2.661   6.719  0.00  0.00    -0.078 C 
BRANCH  22  23
ATOM     23  C   UNL     1      -2.154   1.835   6.171  0.00  0.00    -0.016 C 
BRANCH  23  24
ATOM     24  C   UNL     1      -1.812   0.718   7.158  0.00  0.00    -0.019 C 
ATOM     25  C   UNL     1      -2.988  -0.256   7.253  0.00  0.00    +0.007 C 
ATOM     26  C   UNL     1      -0.569  -0.030   6.671  0.00  0.00    +0.007 C 
ENDBRANCH  23  24
ENDBRANCH  22  23
ENDBRANCH  20  22
BRANCH  20  27
ATOM     27  C   UNL     1      -4.593   4.674   6.432  0.00  0.00    -0.044 C 
BRANCH  27  28
ATOM     28  C   UNL     1      -4.074   5.266   7.744  0.00  0.00    +0.124 C 
BRANCH  28  29
ATOM     29  O   UNL     1      -2.970   6.133   7.472  0.00  0.00    -0.391 OA
ATOM     30  H   UNL     1      -3.187   6.874   6.890  0.00  0.00    +0.210 HD
ENDBRANCH  28  29
BRANCH  28  31
ATOM     31  C   UNL     1      -5.191   6.061   8.422  0.00  0.00    +0.189 C 
BRANCH  31  32
ATOM     32  O   UNL     1      -4.744   6.516   9.700  0.00  0.00    -0.377 OA
BRANCH  32  33
ATOM     33  C   UNL     1      -5.718   7.273  10.421  0.00  0.00    +0.163 C 
BRANCH  33  34
ATOM     34  C   UNL     1      -5.133   7.706  11.768  0.00  0.00    +0.009 C 
ATOM     35  C   UNL     1      -3.966   8.667  11.531  0.00  0.00    +0.009 C 
ATOM     36  C   UNL     1      -6.214   8.408  12.591  0.00  0.00    +0.009 C 
ENDBRANCH  33  34
ENDBRANCH  32  33
ENDBRANCH  31  32
ENDBRANCH  28  31
ENDBRANCH  27  28
ENDBRANCH  20  27
ENDBRANCH  19  20
ENDBRANCH  10  19
TORSDOF 13
