REMARK  Name = ZINC38684531
REMARK  13 active torsions:
REMARK  status: ('A' for Active; 'I' for Inactive)
REMARK    1  A    between atoms: C_1  and  O_2
REMARK    2  A    between atoms: O_2  and  C_3
REMARK    3  A    between atoms: C_8  and  O_9
REMARK    4  A    between atoms: O_9  and  C_10
REMARK    5  A    between atoms: C_10  and  C_11
REMARK    6  A    between atoms: C_11  and  O_13
REMARK    7  A    between atoms: O_13  and  C_14
REMARK    8  A    between atoms: C_21  and  N_37
REMARK    9  A    between atoms: C_22  and  C_35
REMARK   10  A    between atoms: C_23  and  C_25
REMARK   11  A    between atoms: C_29  and  O_31
REMARK   12  A    between atoms: O_31  and  C_32
REMARK   13  A    between atoms: C_32  and  C_33
REMARK                            x       y       z     vdW  Elec       q    Type
REMARK                         _______ _______ _______ _____ _____    ______ ____
ROOT
ATOM      1  C   UNL     1      -1.038  -6.825   2.038  0.00  0.00    +0.135 A 
ATOM      2  C   UNL     1      -1.664  -6.103   3.045  0.00  0.00    +0.047 A 
ATOM      3  C   UNL     1      -2.225  -6.761   4.121  0.00  0.00    +0.012 A 
ATOM      4  C   UNL     1      -2.167  -8.142   4.201  0.00  0.00    +0.008 A 
ATOM      5  C   UNL     1      -1.544  -8.868   3.199  0.00  0.00    +0.138 A 
ATOM      6  C   UNL     1      -0.984  -8.207   2.113  0.00  0.00    +0.093 A 
ATOM      7  O   UNL     1      -1.476 -10.221   3.260  0.00  0.00    -0.441 OA
ATOM      8  C   UNL     1      -1.655 -10.849   4.434  0.00  0.00    +0.199 C 
ATOM      9  C   UNL     1      -2.269 -10.249   5.481  0.00  0.00    +0.098 C 
ATOM     10  C   UNL     1      -2.785  -8.841   5.382  0.00  0.00    +0.098 C 
ENDROOT
BRANCH  10  11
ATOM     11  C   UNL     1      -4.283  -8.869   5.218  0.00  0.00    -0.031 A 
ATOM     12  C   UNL     1      -4.846  -9.502   4.125  0.00  0.00    +0.005 A 
ATOM     13  C   UNL     1      -6.220  -9.530   3.972  0.00  0.00    +0.004 A 
ATOM     14  C   UNL     1      -7.033  -8.924   4.910  0.00  0.00    +0.045 A 
ATOM     15  C   UNL     1      -6.471  -8.288   6.007  0.00  0.00    +0.121 A 
ATOM     16  C   UNL     1      -5.092  -8.267   6.162  0.00  0.00    +0.050 A 
BRANCH  15  17
ATOM     17  O   UNL     1      -7.269  -7.691   6.931  0.00  0.00    -0.488 OA
BRANCH  17  18
ATOM     18  C   UNL     1      -8.679  -7.757   6.710  0.00  0.00    +0.256 C 
BRANCH  18  19
ATOM     19  C   UNL     1      -9.396  -7.047   7.829  0.00  0.00    +0.006 C 
ATOM     20  C   UNL     1     -10.380  -6.225   7.559  0.00  0.00    +0.007 C 
ENDBRANCH  18  19
ENDBRANCH  17  18
ENDBRANCH  15  17
ENDBRANCH  10  11
BRANCH   8  21
ATOM     21  N   UNL     1      -1.202 -12.137   4.576  0.00  0.00    -0.328 N 
ATOM     22  H   UNL     1      -0.761 -12.581   3.835  0.00  0.00    +0.145 HD
ATOM     23  H   UNL     1      -1.324 -12.604   5.418  0.00  0.00    +0.145 HD
ENDBRANCH   8  21
BRANCH   9  24
ATOM     24  C   UNL     1      -2.429 -10.971   6.708  0.00  0.00    +0.101 C 
ATOM     25  N   UNL     1      -2.556 -11.543   7.681  0.00  0.00    -0.191 NA
ENDBRANCH   9  24
BRANCH   1  26
ATOM     26  O   UNL     1      -0.485  -6.178   0.979  0.00  0.00    -0.423 OA
BRANCH  26  27
ATOM     27  C   UNL     1       0.700  -5.573   1.158  0.00  0.00    +0.350 C 
ATOM     28  O   UNL     1       1.199  -5.537   2.258  0.00  0.00    -0.247 OA
BRANCH  27  29
ATOM     29  C   UNL     1       1.406  -4.938  -0.011  0.00  0.00    +0.349 C 
BRANCH  29  30
ATOM     30  O   UNL     1       2.638  -4.363   0.431  0.00  0.00    -0.477 OA
BRANCH  30  36
ATOM     31  C   UNL     1       4.615  -3.165  -0.148  0.00  0.00    +0.162 A 
ATOM     32  C   UNL     1       5.394  -2.542  -1.110  0.00  0.00    +0.049 A 
ATOM     33  C   UNL     1       4.965  -2.495  -2.423  0.00  0.00    +0.004 A 
ATOM     34  C   UNL     1       3.759  -3.067  -2.780  0.00  0.00    +0.004 A 
ATOM     35  C   UNL     1       2.976  -3.690  -1.825  0.00  0.00    +0.049 A 
ATOM     36  C   UNL     1       3.404  -3.746  -0.508  0.00  0.00    +0.163 A 
BRANCH  31  38
ATOM     37  C   UNL     1       6.290  -2.595   1.441  0.00  0.00    +0.277 C 
ATOM     38  O   UNL     1       5.036  -3.212   1.144  0.00  0.00    -0.491 OA
ENDBRANCH  31  38
ENDBRANCH  30  36
ENDBRANCH  29  30
ENDBRANCH  27  29
ENDBRANCH  26  27
ENDBRANCH   1  26
TORSDOF 12
