REMARK  Name = ZINC21855890
REMARK  10 active torsions:
REMARK  status: ('A' for Active; 'I' for Inactive)
REMARK    1  A    between atoms: C_1  and  C_2
REMARK    2  A    between atoms: C_2  and  N_3
REMARK    3  A    between atoms: N_3  and  C_4
REMARK    4  A    between atoms: N_3  and  C_6
REMARK    5  A    between atoms: C_4  and  C_5
REMARK    6  A    between atoms: C_6  and  C_7
REMARK    7  A    between atoms: C_7  and  N_8
REMARK    8  A    between atoms: C_21  and  C_22
REMARK    9  A    between atoms: C_21  and  C_23
REMARK   10  A    between atoms: N_25  and  C_26
REMARK                            x       y       z     vdW  Elec       q    Type
REMARK                         _______ _______ _______ _____ _____    ______ ____
ROOT
ATOM      1  N   UNL     1      -0.894  -0.820   0.027  0.00  0.00    -0.282 N 
ATOM      2  C   UNL     1      -1.533  -0.883  -1.164  0.00  0.00    +0.264 C 
ATOM      3  O   UNL     1      -2.705  -1.198  -1.245  0.00  0.00    -0.268 OA
ATOM      4  C   UNL     1      -0.735  -0.551  -2.358  0.00  0.00    +0.106 A 
ATOM      5  C   UNL     1      -1.129  -0.356  -3.634  0.00  0.00    +0.041 A 
ATOM      6  C   UNL     1       0.019  -0.046  -4.386  0.00  0.00    +0.001 A 
ATOM      7  C   UNL     1       0.191   0.250  -5.745  0.00  0.00    +0.010 A 
ATOM      8  C   UNL     1       1.467   0.521  -6.167  0.00  0.00    +0.001 A 
ATOM      9  C   UNL     1       2.549   0.503  -5.300  0.00  0.00    +0.002 A 
ATOM     10  C   UNL     1       2.413   0.212  -3.955  0.00  0.00    +0.026 A 
ATOM     11  C   UNL     1       1.126  -0.070  -3.493  0.00  0.00    +0.050 A 
ATOM     12  N   UNL     1       0.650  -0.391  -2.267  0.00  0.00    -0.334 N 
ATOM     13  C   UNL     1       1.356  -0.583  -0.997  0.00  0.00    +0.157 C 
ATOM     14  C   UNL     1       0.428  -0.218   0.160  0.00  0.00    +0.128 C 
ATOM     15  C   UNL     1       0.276   1.304   0.211  0.00  0.00    +0.043 C 
ENDROOT
BRANCH  14  16
ATOM     16  C   UNL     1       1.050  -0.688   1.450  0.00  0.00    +0.238 C 
ATOM     17  O   UNL     1       1.561   0.113   2.204  0.00  0.00    -0.273 OA
ATOM     18  N   UNL     1       1.037  -1.998   1.765  0.00  0.00    -0.311 N 
ATOM     19  H   UNL     1       0.653  -2.734   1.044  0.00  0.00    +0.149 HD
BRANCH  18  20
ATOM     20  C   UNL     1       1.536  -2.442   3.069  0.00  0.00    +0.073 C 
ATOM     21  C   UNL     1       3.054  -2.624   2.999  0.00  0.00    +0.022 C 
ATOM     22  C   UNL     1       3.575  -3.088   4.361  0.00  0.00    +0.002 C 
ATOM     23  C   UNL     1       2.919  -4.419   4.732  0.00  0.00    +0.000 C 
ATOM     24  C   UNL     1       1.402  -4.238   4.801  0.00  0.00    +0.002 C 
ATOM     25  C   UNL     1       0.880  -3.774   3.440  0.00  0.00    +0.022 C 
ENDBRANCH  18  20
ENDBRANCH  14  16
BRANCH   1  26
ATOM     26  C   UNL     1      -1.548  -1.371   1.216  0.00  0.00    +0.091 C 
BRANCH  26  27
ATOM     27  C   UNL     1      -2.503  -0.329   1.802  0.00  0.00    -0.060 C 
BRANCH  27  28
ATOM     28  N   UNL     1      -3.159  -0.882   2.995  0.00  0.00    +0.380 N 
ATOM     29  H   UNL     1      -2.375  -1.267   3.664  0.00  0.00    -0.082 HD
BRANCH  28  31
ATOM     30  C   UNL     1      -2.914   1.046   4.485  0.00  0.00    -0.017 C 
ATOM     31  C   UNL     1      -3.899   0.160   3.719  0.00  0.00    -0.082 C 
ENDBRANCH  28  31
BRANCH  28  32
ATOM     32  C   UNL     1      -4.039  -2.003   2.639  0.00  0.00    -0.082 C 
ATOM     33  C   UNL     1      -4.496  -2.716   3.914  0.00  0.00    -0.017 C 
ENDBRANCH  28  32
ENDBRANCH  27  28
ENDBRANCH  26  27
ENDBRANCH   1  26
TORSDOF 7
