REMARK  Name = ZINC54155762
REMARK  6 active torsions:
REMARK  status: ('A' for Active; 'I' for Inactive)
REMARK    1  A    between atoms: C_1  and  C_2
REMARK    2  A    between atoms: C_2  and  C_4
REMARK    3  A    between atoms: C_2  and  C_19
REMARK    4  A    between atoms: C_4  and  N_5
REMARK    5  A    between atoms: N_8  and  C_9
REMARK    6  A    between atoms: N_20  and  O_21
REMARK                            x       y       z     vdW  Elec       q    Type
REMARK                         _______ _______ _______ _____ _____    ______ ____
ROOT
ATOM      1  N   UNL     1      -0.055  -0.114  -2.441  0.00  0.00    -0.299 N 
ATOM      2  C   UNL     1       0.387  -0.445  -3.670  0.00  0.00    +0.300 C 
ATOM      3  O   UNL     1       1.427  -1.062  -3.797  0.00  0.00    -0.253 OA
ATOM      4  N   UNL     1      -0.325  -0.092  -4.759  0.00  0.00    -0.294 N 
ATOM      5  H   UNL     1      -0.885   0.378  -2.339  0.00  0.00    +0.150 HD
ATOM      6  H   UNL     1      -1.154   0.400  -4.658  0.00  0.00    +0.151 HD
ENDROOT
BRANCH   4   7
ATOM      7  C   UNL     1       0.155  -0.451  -6.096  0.00  0.00    +0.037 C 
ATOM      8  C   UNL     1       1.529   0.180  -6.331  0.00  0.00    +0.029 C 
ATOM      9  C   UNL     1       2.031  -0.196  -7.727  0.00  0.00    -0.008 C 
ATOM     10  C   UNL     1       1.046   0.319  -8.778  0.00  0.00    +0.007 C 
ATOM     11  C   UNL     1      -0.328  -0.312  -8.543  0.00  0.00    -0.008 C 
ATOM     12  C   UNL     1      -0.829   0.064  -7.147  0.00  0.00    +0.029 C 
ATOM     13  C   UNL     1      -0.216  -1.833  -8.652  0.00  0.00    +0.007 C 
ATOM     14  C   UNL     1       0.769  -2.349  -7.601  0.00  0.00    -0.008 C 
ATOM     15  C   UNL     1       2.143  -1.718  -7.836  0.00  0.00    +0.007 C 
ATOM     16  C   UNL     1       0.268  -1.973  -6.205  0.00  0.00    +0.029 C 
ENDBRANCH   4   7
BRANCH   1  17
ATOM     17  C   UNL     1       0.718  -0.497  -1.257  0.00  0.00    +0.116 C 
BRANCH  17  19
ATOM     18  C   UNL     1      -0.019   1.526   0.010  0.00  0.00    +0.017 C 
ATOM     19  C   UNL     1       0.002  -0.004   0.002  0.00  0.00    +0.069 C 
BRANCH  19  20
ATOM     20  C   UNL     1       0.731  -0.503   1.223  0.00  0.00    +0.136 C 
ATOM     21  N   UNL     1       1.609   0.246   1.802  0.00  0.00    -0.076 NA
ATOM     22  N   UNL     1       0.461  -1.758   1.721  0.00  0.00    -0.344 N 
ATOM     23  H   UNL     1      -0.199  -2.321   1.286  0.00  0.00    +0.144 HD
ATOM     24  H   UNL     1       0.930  -2.080   2.507  0.00  0.00    +0.144 HD
BRANCH  21  25
ATOM     25  O   UNL     1       2.294  -0.223   2.949  0.00  0.00    -0.408 OA
ATOM     26  H   UNL     1       2.931   0.408   3.312  0.00  0.00    +0.328 HD
ENDBRANCH  21  25
ENDBRANCH  19  20
ENDBRANCH  17  19
ENDBRANCH   1  17
TORSDOF 5
