REMARK  Name = ZINC28932996
REMARK  12 active torsions:
REMARK  status: ('A' for Active; 'I' for Inactive)
REMARK    1  A    between atoms: C_1  and  C_2
REMARK    2  A    between atoms: C_7  and  C_8
REMARK    3  A    between atoms: C_8  and  N_9
REMARK    4  A    between atoms: N_9  and  C_10
REMARK    5  A    between atoms: N_9  and  C_11
REMARK    6  A    between atoms: C_11  and  C_12
REMARK    7  A    between atoms: C_12  and  C_14
REMARK    8  A    between atoms: C_15  and  N_27
REMARK    9  A    between atoms: N_16  and  C_23
REMARK   10  A    between atoms: C_23  and  C_24
REMARK   11  A    between atoms: C_24  and  C_25
REMARK   12  A    between atoms: C_24  and  C_26
REMARK                            x       y       z     vdW  Elec       q    Type
REMARK                         _______ _______ _______ _____ _____    ______ ____
ROOT
ATOM      1  C   UNL     1      -2.695   1.300  -1.890  0.00  0.00    +0.118 A 
ATOM      2  C   UNL     1      -3.943   1.234  -1.247  0.00  0.00    +0.116 A 
ATOM      3  N   UNL     1      -4.981   1.971  -1.741  0.00  0.00    -0.281 N 
ATOM      4  C   UNL     1      -4.830   2.752  -2.822  0.00  0.00    +0.331 A 
ATOM      5  O   UNL     1      -5.784   3.388  -3.223  0.00  0.00    -0.246 OA
ATOM      6  N   UNL     1      -3.662   2.855  -3.478  0.00  0.00    -0.274 N 
ATOM      7  H   UNL     1      -3.584   3.503  -4.363  0.00  0.00    +0.173 HD
ATOM      8  C   UNL     1      -2.575   2.171  -3.067  0.00  0.00    +0.266 A 
ATOM      9  O   UNL     1      -1.517   2.271  -3.660  0.00  0.00    -0.267 OA
ENDROOT
BRANCH   2  10
ATOM     10  N   UNL     1      -4.114   0.448  -0.149  0.00  0.00    -0.344 N 
ATOM     11  H   UNL     1      -5.094   0.403   0.347  0.00  0.00    +0.144 HD
ATOM     12  H   UNL     1      -3.272  -0.142   0.241  0.00  0.00    +0.144 HD
ENDBRANCH   2  10
BRANCH   1  13
ATOM     13  C   UNL     1      -1.592   0.558  -1.418  0.00  0.00    +0.155 C 
ATOM     14  O   UNL     1      -1.738  -0.236  -0.510  0.00  0.00    -0.294 OA
BRANCH  13  15
ATOM     15  C   UNL     1      -0.232   0.751  -2.039  0.00  0.00    +0.002 C 
BRANCH  15  16
ATOM     16  N   UNL     1       0.739  -0.130  -1.376  0.00  0.00    +0.385 N 
ATOM     17  C   UNL     1       0.432  -1.542  -1.637  0.00  0.00    -0.095 C 
ATOM     18  H   UNL     1       0.661   0.038  -0.291  0.00  0.00    -0.081 HD
BRANCH  16  19
ATOM     19  C   UNL     1       2.111   0.196  -1.786  0.00  0.00    -0.043 C 
BRANCH  19  26
ATOM     20  C   UNL     1       2.401   1.366   0.840  0.00  0.00    +0.044 C 
ATOM     21  C   UNL     1       3.223   0.162   0.456  0.00  0.00    -0.049 A 
ATOM     22  C   UNL     1       4.116  -0.382   1.361  0.00  0.00    +0.003 A 
ATOM     23  C   UNL     1       4.869  -1.486   1.009  0.00  0.00    +0.000 A 
ATOM     24  C   UNL     1       4.730  -2.046  -0.248  0.00  0.00    +0.000 A 
ATOM     25  C   UNL     1       3.834  -1.505  -1.150  0.00  0.00    +0.002 A 
ATOM     26  C   UNL     1       3.084  -0.398  -0.800  0.00  0.00    -0.061 A 
ENDBRANCH  19  26
ENDBRANCH  16  19
ENDBRANCH  15  16
ENDBRANCH  13  15
ENDBRANCH   1  13
BRANCH   3  27
ATOM     27  C   UNL     1      -6.285   1.909  -1.077  0.00  0.00    +0.131 C 
BRANCH  27  28
ATOM     28  C   UNL     1      -6.361   2.991   0.002  0.00  0.00    +0.003 C 
ATOM     29  C   UNL     1      -7.765   3.008   0.610  0.00  0.00    +0.009 C 
ATOM     30  C   UNL     1      -5.335   2.691   1.097  0.00  0.00    +0.009 C 
ENDBRANCH  27  28
ENDBRANCH   3  27
TORSDOF 8
