REMARK  Name = ZINC34196888
REMARK  9 active torsions:
REMARK  status: ('A' for Active; 'I' for Inactive)
REMARK    1  A    between atoms: C_1  and  C_2
REMARK    2  A    between atoms: C_17  and  C_36
REMARK    3  A    between atoms: C_19  and  O_34
REMARK    4  A    between atoms: C_22  and  C_33
REMARK    5  A    between atoms: C_23  and  C_24
REMARK    6  A    between atoms: C_23  and  O_32
REMARK    7  A    between atoms: C_24  and  C_26
REMARK    8  A    between atoms: C_26  and  O_27
REMARK    9  A    between atoms: O_27  and  S_28
REMARK                            x       y       z     vdW  Elec       q    Type
REMARK                         _______ _______ _______ _____ _____    ______ ____
ROOT
ATOM      1  C   UNL     1       0.300   1.486  -0.186  0.00  0.00    +0.011 C 
ATOM      2  C   UNL     1       0.195  -0.036  -0.103  0.00  0.00    +0.026 C 
ATOM      3  C   UNL     1      -1.288  -0.476  -0.185  0.00  0.00    +0.011 C 
ATOM      4  C   UNL     1      -1.384  -1.637   0.816  0.00  0.00    +0.005 C 
ATOM      5  C   UNL     1      -2.771  -2.000   1.254  0.00  0.00    +0.034 C 
ATOM      6  C   UNL     1      -3.687  -2.463   0.123  0.00  0.00    +0.011 C 
ATOM      7  C   UNL     1      -3.902  -1.337  -0.880  0.00  0.00    +0.032 C 
ATOM      8  C   UNL     1      -4.171  -0.028  -0.193  0.00  0.00    -0.053 C 
ATOM      9  C   UNL     1      -4.587   0.996  -0.974  0.00  0.00    +0.051 C 
ATOM     10  C   UNL     1      -4.824   2.292  -0.288  0.00  0.00    +0.179 C 
ATOM     11  O   UNL     1      -5.727   3.046  -0.605  0.00  0.00    -0.288 OA
ATOM     12  C   UNL     1      -3.873   2.603   0.811  0.00  0.00    +0.047 C 
ATOM     13  C   UNL     1      -3.482   1.562   1.579  0.00  0.00    -0.009 C 
ATOM     14  C   UNL     1      -4.027   0.203   1.274  0.00  0.00    +0.044 C 
ATOM     15  C   UNL     1      -3.472  -0.931   2.078  0.00  0.00    +0.153 C 
ATOM     16  C   UNL     1      -2.583  -0.534   3.247  0.00  0.00    +0.154 C 
ATOM     17  C   UNL     1      -1.214  -0.065   2.768  0.00  0.00    +0.044 C 
ATOM     18  C   UNL     1      -0.491  -1.160   1.987  0.00  0.00    +0.010 C 
ATOM     19  C   UNL     1       0.723  -0.540   1.252  0.00  0.00    +0.134 C 
ATOM     20  C   UNL     1      -0.066  -2.327   2.882  0.00  0.00    +0.015 C 
ATOM     21  F   UNL     1      -4.598  -1.574   2.651  0.00  0.00    -0.238 F 
ATOM     22  C   UNL     1      -5.485   0.275   1.767  0.00  0.00    +0.023 C 
ENDROOT
BRANCH  19  23
ATOM     23  C   UNL     1       1.338   0.590   2.029  0.00  0.00    +0.193 C 
ATOM     24  O   UNL     1       0.654   1.517   2.390  0.00  0.00    -0.292 OA
BRANCH  23  25
ATOM     25  C   UNL     1       2.809   0.565   2.358  0.00  0.00    +0.273 C 
BRANCH  25  26
ATOM     26  O   UNL     1       3.151   1.740   3.097  0.00  0.00    -0.206 OA
BRANCH  26  27
ATOM     27  S   UNL     1       4.620   1.821   3.485  0.00  0.00    +0.239 S 
ATOM     28  O   UNL     1       4.731   2.848   4.508  0.00  0.00    -0.116 OA
ATOM     29  O   UNL     1       4.997   0.509   3.989  0.00  0.00    -0.116 OA
ATOM     30  O   UNL     1       5.357   2.172   2.280  0.00  0.00    -0.022 OA
ENDBRANCH  26  27
ENDBRANCH  25  26
ENDBRANCH  23  25
ENDBRANCH  19  23
BRANCH  19  31
ATOM     31  O   UNL     1       1.712  -1.556   1.026  0.00  0.00    -0.380 OA
ATOM     32  H   UNL     1       2.486  -1.249   0.532  0.00  0.00    +0.211 HD
ENDBRANCH  19  31
BRANCH  16  33
ATOM     33  O   UNL     1      -3.204   0.463   4.058  0.00  0.00    -0.389 OA
ATOM     34  H   UNL     1      -2.670   0.743   4.814  0.00  0.00    +0.210 HD
ENDBRANCH  16  33
TORSDOF 6
