REMARK  Name = ZINC40346194
REMARK  7 active torsions:
REMARK  status: ('A' for Active; 'I' for Inactive)
REMARK    1  A    between atoms: C_1  and  C_2
REMARK    2  A    between atoms: C_2  and  C_4
REMARK    3  A    between atoms: C_2  and  N_10
REMARK    4  A    between atoms: C_4  and  C_5
REMARK    5  A    between atoms: C_11  and  C_13
REMARK    6  A    between atoms: C_16  and  N_20
REMARK    7  A    between atoms: C_18  and  N_19
REMARK                            x       y       z     vdW  Elec       q    Type
REMARK                         _______ _______ _______ _____ _____    ______ ____
ROOT
ATOM      1  N   UNL     1       0.724  -0.443   1.201  0.00  0.00    -0.308 N 
ATOM      2  C   UNL     1       0.058  -0.614   2.360  0.00  0.00    +0.246 C 
ATOM      3  O   UNL     1      -1.130  -0.357   2.422  0.00  0.00    -0.270 OA
ATOM      4  H   UNL     1       1.671  -0.648   1.151  0.00  0.00    +0.149 HD
ENDROOT
BRANCH   2   5
ATOM      5  C   UNL     1       0.766  -1.111   3.549  0.00  0.00    +0.057 A 
ATOM      6  C   UNL     1       2.099  -1.525   3.451  0.00  0.00    +0.016 A 
ATOM      7  C   UNL     1       2.756  -1.986   4.555  0.00  0.00    +0.023 A 
ATOM      8  C   UNL     1       2.107  -2.049   5.787  0.00  0.00    +0.026 A 
ATOM      9  C   UNL     1       0.784  -1.643   5.903  0.00  0.00    +0.046 A 
ATOM     10  C   UNL     1       0.108  -1.167   4.790  0.00  0.00    +0.039 A 
BRANCH  10  11
ATOM     11  N   UNL     1      -1.214  -0.754   4.900  0.00  0.00    -0.357 N 
ATOM     12  H   UNL     1      -1.710  -0.501   4.106  0.00  0.00    +0.142 HD
ATOM     13  H   UNL     1      -1.640  -0.718   5.770  0.00  0.00    +0.142 HD
ENDBRANCH  10  11
BRANCH   8  14
ATOM     14  N   UNL     1       2.787  -2.521   6.905  0.00  0.00    -0.358 N 
ATOM     15  H   UNL     1       3.711  -2.806   6.826  0.00  0.00    +0.142 HD
ATOM     16  H   UNL     1       2.337  -2.566   7.763  0.00  0.00    +0.142 HD
ENDBRANCH   8  14
ENDBRANCH   2   5
BRANCH   1  18
ATOM     17  C   UNL     1      -0.021   1.581   0.048  0.00  0.00    +0.028 C 
ATOM     18  C   UNL     1       0.019   0.052   0.016  0.00  0.00    +0.077 C 
BRANCH  18  19
ATOM     19  C   UNL     1       0.751  -0.413  -1.245  0.00  0.00    +0.096 C 
BRANCH  19  20
ATOM     20  C   UNL     1       0.684  -1.915  -1.340  0.00  0.00    +0.107 A 
ATOM     21  C   UNL     1      -0.277  -2.622  -1.962  0.00  0.00    +0.045 A 
ATOM     22  C   UNL     1       0.054  -3.988  -1.805  0.00  0.00    +0.041 A 
ATOM     23  C   UNL     1       1.196  -4.034  -1.097  0.00  0.00    +0.195 A 
ATOM     24  O   UNL     1       1.577  -2.775  -0.823  0.00  0.00    -0.468 OA
ENDBRANCH  19  20
ENDBRANCH  18  19
ENDBRANCH   1  18
TORSDOF 6
