REMARK  Name = ZINC42037819
REMARK  3 active torsions:
REMARK  status: ('A' for Active; 'I' for Inactive)
REMARK    1  A    between atoms: C_6  and  C_7
REMARK    2  A    between atoms: N_8  and  N_9
REMARK    3  A    between atoms: N_10  and  C_11
REMARK                            x       y       z     vdW  Elec       q    Type
REMARK                         _______ _______ _______ _____ _____    ______ ____
ROOT
ATOM      1  C   UNL     1      -1.433  -0.684   0.402  0.00  0.00    +0.116 C 
ATOM      2  N   UNL     1      -1.297  -1.976   0.480  0.00  0.00    -0.300 N 
ATOM      3  N   UNL     1      -2.494  -0.136  -0.319  0.00  0.00    -0.326 N 
ATOM      4  H   UNL     1      -2.596   0.827  -0.377  0.00  0.00    +0.148 HD
ATOM      5  H   UNL     1      -1.987  -2.559   0.126  0.00  0.00    +0.185 HD
ENDROOT
BRANCH   1  11
ATOM      6  C   UNL     1      -0.068   1.398   0.472  0.00  0.00    +0.015 A 
ATOM      7  C   UNL     1       0.838   2.224   1.104  0.00  0.00    +0.050 A 
ATOM      8  C   UNL     1       1.361   1.872   2.341  0.00  0.00    +0.162 A 
ATOM      9  C   UNL     1       0.971   0.683   2.950  0.00  0.00    +0.163 A 
ATOM     10  C   UNL     1       0.063  -0.151   2.320  0.00  0.00    +0.060 A 
ATOM     11  C   UNL     1      -0.462   0.203   1.077  0.00  0.00    +0.018 A 
ATOM     12  O   UNL     1       1.468   0.327   4.166  0.00  0.00    -0.485 OA
ATOM     13  C   UNL     1       2.655   1.002   4.598  0.00  0.00    +0.270 C 
ATOM     14  C   UNL     1       2.472   2.504   4.346  0.00  0.00    +0.270 C 
ATOM     15  O   UNL     1       2.257   2.700   2.945  0.00  0.00    -0.485 OA
ENDBRANCH   1  11
BRANCH   3  16
ATOM     16  C   UNL     1      -3.456  -1.016  -0.988  0.00  0.00    +0.072 C 
ATOM     17  C   UNL     1      -2.916  -1.409  -2.365  0.00  0.00    +0.022 C 
ATOM     18  C   UNL     1      -3.921  -2.327  -3.063  0.00  0.00    +0.002 C 
ATOM     19  C   UNL     1      -5.253  -1.594  -3.229  0.00  0.00    +0.000 C 
ATOM     20  C   UNL     1      -5.793  -1.201  -1.852  0.00  0.00    +0.002 C 
ATOM     21  C   UNL     1      -4.789  -0.282  -1.153  0.00  0.00    +0.022 C 
ENDBRANCH   3  16
BRANCH   2  22
ATOM     22  N   UNL     1      -0.153  -2.526   1.074  0.00  0.00    -0.304 N 
ATOM     23  H   UNL     1       0.638  -1.979   1.201  0.00  0.00    +0.162 HD
ATOM     24  H   UNL     1      -0.152  -3.453   1.359  0.00  0.00    +0.162 HD
ENDBRANCH   2  22
TORSDOF 3
