REMARK  Name = ZINC39653544
REMARK  15 active torsions:
REMARK  status: ('A' for Active; 'I' for Inactive)
REMARK    1  A    between atoms: C_1  and  C_2
REMARK    2  A    between atoms: C_2  and  O_3
REMARK    3  A    between atoms: O_3  and  C_4
REMARK    4  A    between atoms: C_6  and  C_12
REMARK    5  A    between atoms: C_9  and  O_10
REMARK    6  A    between atoms: O_10  and  C_11
REMARK    7  A    between atoms: C_12  and  C_13
REMARK    8  A    between atoms: C_13  and  N_14
REMARK    9  A    between atoms: C_15  and  C_17
REMARK   10  A    between atoms: C_28  and  C_30
REMARK   11  A    between atoms: C_30  and  C_32
REMARK   12  A    between atoms: C_30  and  O_35
REMARK   13  A    between atoms: C_32  and  C_33
REMARK   14  A    between atoms: C_32  and  C_34
REMARK   15  A    between atoms: O_35  and  C_36
REMARK                            x       y       z     vdW  Elec       q    Type
REMARK                         _______ _______ _______ _____ _____    ______ ____
ROOT
ATOM      1  C   UNL     1       0.460  -7.471  -4.819  0.00  0.00    +0.100 C 
ATOM      2  C   UNL     1       0.172  -8.846  -4.175  0.00  0.00    +0.121 C 
ATOM      3  N   UNL     1       0.524  -9.832  -5.225  0.00  0.00    -0.297 N 
ATOM      4  C   UNL     1       1.746  -9.279  -5.855  0.00  0.00    +0.115 C 
ATOM      5  C   UNL     1       1.494  -7.760  -5.920  0.00  0.00    -0.004 C 
ATOM      6  C   UNL     1       2.788  -6.999  -5.643  0.00  0.00    -0.010 C 
ATOM      7  C   UNL     1       3.779  -7.255  -6.782  0.00  0.00    -0.082 C 
ATOM      8  N   UNL     1       3.192  -6.815  -8.053  0.00  0.00    +0.379 N 
ATOM      9  C   UNL     1       2.000  -7.616  -8.357  0.00  0.00    -0.082 C 
ATOM     10  C   UNL     1       0.933  -7.375  -7.286  0.00  0.00    -0.010 C 
ATOM     11  C   UNL     1      -0.123 -10.973  -5.536  0.00  0.00    +0.257 C 
ATOM     12  O   UNL     1       0.292 -11.681  -6.429  0.00  0.00    -0.272 OA
ATOM     13  H   UNL     1       2.933  -5.842  -7.984  0.00  0.00    -0.086 HD
ATOM     14  H   UNL     1       3.869  -6.928  -8.792  0.00  0.00    -0.086 HD
ENDROOT
BRANCH   1  16
ATOM     15  N   UNL     1       0.956  -5.192  -3.995  0.00  0.00    -0.315 N 
ATOM     16  C   UNL     1       1.033  -6.523  -3.797  0.00  0.00    +0.218 C 
ATOM     17  O   UNL     1       1.562  -6.958  -2.796  0.00  0.00    -0.275 OA
ATOM     18  H   UNL     1       0.532  -4.845  -4.795  0.00  0.00    +0.149 HD
BRANCH  15  19
ATOM     19  C   UNL     1       1.512  -4.271  -3.001  0.00  0.00    +0.109 C 
BRANCH  19  20
ATOM     20  C   UNL     1       1.294  -2.829  -3.465  0.00  0.00    +0.054 C 
BRANCH  20  23
ATOM     21  C   UNL     1       3.711  -0.599  -1.605  0.00  0.00    +0.162 A 
ATOM     22  C   UNL     1       3.183  -1.470  -2.543  0.00  0.00    +0.053 A 
ATOM     23  C   UNL     1       1.867  -1.881  -2.443  0.00  0.00    -0.042 A 
ATOM     24  C   UNL     1       1.074  -1.423  -1.407  0.00  0.00    +0.007 A 
ATOM     25  C   UNL     1       1.594  -0.553  -0.467  0.00  0.00    +0.049 A 
ATOM     26  C   UNL     1       2.915  -0.142  -0.558  0.00  0.00    +0.162 A 
BRANCH  26  27
ATOM     27  O   UNL     1       3.429   0.709   0.369  0.00  0.00    -0.491 OA
ATOM     28  C   UNL     1       2.554   1.136   1.414  0.00  0.00    +0.277 C 
ENDBRANCH  26  27
BRANCH  21  29
ATOM     29  O   UNL     1       5.006  -0.195  -1.702  0.00  0.00    -0.489 OA
BRANCH  29  31
ATOM     30  C   UNL     1       7.185  -0.142  -2.744  0.00  0.00    +0.048 C 
ATOM     31  C   UNL     1       5.763  -0.704  -2.801  0.00  0.00    +0.226 C 
ENDBRANCH  29  31
ENDBRANCH  21  29
ENDBRANCH  20  23
ENDBRANCH  19  20
ENDBRANCH  15  19
ENDBRANCH   1  16
BRANCH  11  32
ATOM     32  C   UNL     1      -1.362 -11.369  -4.775  0.00  0.00    +0.261 C 
BRANCH  32  33
ATOM     33  C   UNL     1      -0.995 -11.652  -3.317  0.00  0.00    +0.033 C 
ATOM     34  C   UNL     1      -2.253 -12.054  -2.544  0.00  0.00    +0.011 C 
ATOM     35  C   UNL     1       0.025 -12.791  -3.259  0.00  0.00    +0.011 C 
ENDBRANCH  32  33
BRANCH  32  36
ATOM     36  O   UNL     1      -1.926 -12.543  -5.362  0.00  0.00    -0.479 OA
BRANCH  36  37
ATOM     37  C   UNL     1      -3.279 -12.662  -5.326  0.00  0.00    +0.122 A 
ATOM     38  C   UNL     1      -4.054 -11.631  -4.814  0.00  0.00    +0.045 A 
ATOM     39  C   UNL     1      -5.429 -11.754  -4.779  0.00  0.00    +0.004 A 
ATOM     40  C   UNL     1      -6.034 -12.903  -5.253  0.00  0.00    +0.000 A 
ATOM     41  C   UNL     1      -5.264 -13.932  -5.763  0.00  0.00    +0.004 A 
ATOM     42  C   UNL     1      -3.889 -13.812  -5.806  0.00  0.00    +0.045 A 
ENDBRANCH  36  37
ENDBRANCH  32  36
ENDBRANCH  11  32
TORSDOF 11
