REMARK  Name = ZINC49778966
REMARK  9 active torsions:
REMARK  status: ('A' for Active; 'I' for Inactive)
REMARK    1  A    between atoms: C_1  and  C_2
REMARK    2  A    between atoms: C_2  and  C_4
REMARK    3  A    between atoms: C_2  and  N_12
REMARK    4  A    between atoms: C_9  and  O_10
REMARK    5  A    between atoms: O_10  and  C_11
REMARK    6  A    between atoms: N_15  and  C_16
REMARK    7  A    between atoms: N_15  and  C_17
REMARK    8  A    between atoms: C_17  and  C_18
REMARK    9  A    between atoms: C_23  and  O_24
REMARK                            x       y       z     vdW  Elec       q    Type
REMARK                         _______ _______ _______ _____ _____    ______ ____
ROOT
ATOM      1  N   UNL     1      -1.367  -0.519  -0.080  0.00  0.00    -0.293 N 
ATOM      2  C   UNL     1      -1.942  -0.715  -1.283  0.00  0.00    +0.303 C 
ATOM      3  O   UNL     1      -1.325  -0.464  -2.300  0.00  0.00    -0.253 OA
ATOM      4  N   UNL     1      -3.201  -1.189  -1.359  0.00  0.00    -0.284 N 
ATOM      5  C   UNL     1      -3.945  -1.492  -0.133  0.00  0.00    +0.134 C 
ATOM      6  H   UNL     1      -1.859  -0.720   0.731  0.00  0.00    +0.151 HD
ENDROOT
BRANCH   1   8
ATOM      7  C   UNL     1      -0.027   1.526  -0.016  0.00  0.00    +0.033 C 
ATOM      8  C   UNL     1       0.002  -0.004   0.002  0.00  0.00    +0.105 C 
BRANCH   8   9
ATOM      9  C   UNL     1       0.642  -0.479   1.281  0.00  0.00    +0.014 A 
ATOM     10  C   UNL     1      -0.143  -0.766   2.382  0.00  0.00    +0.009 A 
ATOM     11  C   UNL     1       0.443  -1.201   3.556  0.00  0.00    +0.001 A 
ATOM     12  C   UNL     1       1.816  -1.351   3.631  0.00  0.00    +0.004 A 
ATOM     13  C   UNL     1       2.605  -1.067   2.534  0.00  0.00    +0.046 A 
ATOM     14  C   UNL     1       2.018  -0.634   1.353  0.00  0.00    +0.125 A 
BRANCH  14  15
ATOM     15  O   UNL     1       2.792  -0.359   0.270  0.00  0.00    -0.495 OA
ATOM     16  C   UNL     1       4.201  -0.541   0.416  0.00  0.00    +0.277 C 
ENDBRANCH  14  15
ENDBRANCH   8   9
ENDBRANCH   1   8
BRANCH   4  17
ATOM     17  C   UNL     1      -3.827  -1.402  -2.666  0.00  0.00    +0.147 C 
BRANCH  17  18
ATOM     18  C   UNL     1      -3.539  -2.804  -3.138  0.00  0.00    +0.011 A 
ATOM     19  C   UNL     1      -2.531  -3.033  -4.055  0.00  0.00    +0.009 A 
ATOM     20  C   UNL     1      -2.267  -4.318  -4.488  0.00  0.00    +0.001 A 
ATOM     21  C   UNL     1      -3.011  -5.380  -4.006  0.00  0.00    +0.004 A 
ATOM     22  C   UNL     1      -4.020  -5.157  -3.089  0.00  0.00    +0.046 A 
ATOM     23  C   UNL     1      -4.283  -3.868  -2.648  0.00  0.00    +0.122 A 
BRANCH  23  24
ATOM     24  O   UNL     1      -5.271  -3.647  -1.742  0.00  0.00    -0.506 OA
ATOM     25  H   UNL     1      -6.138  -3.480  -2.138  0.00  0.00    +0.292 HD
ENDBRANCH  23  24
ENDBRANCH  17  18
ENDBRANCH   4  17
TORSDOF 6
