REMARK  Name = ZINC64611921
REMARK  10 active torsions:
REMARK  status: ('A' for Active; 'I' for Inactive)
REMARK    1  A    between atoms: C_1  and  C_2
REMARK    2  A    between atoms: C_2  and  C_3
REMARK    3  A    between atoms: C_2  and  N_16
REMARK    4  A    between atoms: N_5  and  C_6
REMARK    5  A    between atoms: C_10  and  S_12
REMARK    6  A    between atoms: S_12  and  N_15
REMARK    7  A    between atoms: N_16  and  C_17
REMARK    8  A    between atoms: C_19  and  C_25
REMARK    9  A    between atoms: C_22  and  O_23
REMARK   10  A    between atoms: O_23  and  C_24
REMARK                            x       y       z     vdW  Elec       q    Type
REMARK                         _______ _______ _______ _____ _____    ______ ____
ROOT
ATOM      1  C   UNL     1       0.730  -0.505   1.223  0.00  0.00    +0.237 C 
ATOM      2  O   UNL     1       1.719  -1.195   1.098  0.00  0.00    -0.273 OA
ATOM      3  N   UNL     1       0.278  -0.191   2.453  0.00  0.00    -0.284 N 
ATOM      4  H   UNL     1      -0.473   0.415   2.554  0.00  0.00    +0.155 HD
ENDROOT
BRANCH   3   5
ATOM      5  C   UNL     1       0.891  -0.739   3.585  0.00  0.00    +0.035 A 
ATOM      6  C   UNL     1       0.130  -1.065   4.700  0.00  0.00    +0.023 A 
ATOM      7  C   UNL     1       0.739  -1.606   5.815  0.00  0.00    +0.004 A 
ATOM      8  C   UNL     1       2.104  -1.822   5.823  0.00  0.00    +0.028 A 
ATOM      9  C   UNL     1       2.865  -1.498   4.715  0.00  0.00    +0.107 A 
ATOM     10  C   UNL     1       2.262  -0.963   3.594  0.00  0.00    +0.051 A 
BRANCH   9  11
ATOM     11  S   UNL     1       4.605  -1.775   4.731  0.00  0.00    +0.056 S 
ATOM     12  O   UNL     1       5.167  -0.882   3.778  0.00  0.00    -0.153 OA
ATOM     13  O   UNL     1       5.003  -1.782   6.095  0.00  0.00    -0.153 OA
BRANCH  11  14
ATOM     14  N   UNL     1       4.863  -3.306   4.154  0.00  0.00    -0.204 NA
ATOM     15  H   UNL     1       4.110  -3.856   3.887  0.00  0.00    +0.144 HD
ATOM     16  H   UNL     1       5.766  -3.652   4.083  0.00  0.00    +0.144 HD
ENDBRANCH  11  14
ENDBRANCH   9  11
ENDBRANCH   3   5
BRANCH   1  18
ATOM     17  C   UNL     1      -0.004   1.532   0.013  0.00  0.00    +0.038 C 
ATOM     18  C   UNL     1       0.006   0.002   0.002  0.00  0.00    +0.154 C 
BRANCH  18  19
ATOM     19  N   UNL     1       0.689  -0.474  -1.203  0.00  0.00    -0.330 N 
ATOM     20  H   UNL     1       1.632  -0.699  -1.169  0.00  0.00    +0.147 HD
BRANCH  19  21
ATOM     21  C   UNL     1      -0.018  -0.603  -2.404  0.00  0.00    +0.071 A 
ATOM     22  C   UNL     1      -1.362  -0.277  -2.454  0.00  0.00    +0.045 A 
ATOM     23  C   UNL     1      -2.064  -0.408  -3.655  0.00  0.00    +0.054 A 
ATOM     24  C   UNL     1      -1.407  -0.868  -4.799  0.00  0.00    +0.022 A 
ATOM     25  C   UNL     1      -0.068  -1.192  -4.742  0.00  0.00    +0.049 A 
ATOM     26  C   UNL     1       0.632  -1.056  -3.552  0.00  0.00    +0.141 A 
BRANCH  26  27
ATOM     27  O   UNL     1       1.953  -1.371  -3.504  0.00  0.00    -0.493 OA
ATOM     28  C   UNL     1       2.556  -1.828  -4.716  0.00  0.00    +0.277 C 
ENDBRANCH  26  27
BRANCH  23  29
ATOM     29  C   UNL     1      -3.455  -0.072  -3.713  0.00  0.00    +0.099 C 
ATOM     30  N   UNL     1      -4.559   0.195  -3.759  0.00  0.00    -0.191 NA
ENDBRANCH  23  29
ENDBRANCH  19  21
ENDBRANCH  18  19
ENDBRANCH   1  18
TORSDOF 8
