REMARK  Name = ZINC19642071
REMARK  8 active torsions:
REMARK  status: ('A' for Active; 'I' for Inactive)
REMARK    1  A    between atoms: C_1  and  C_2
REMARK    2  A    between atoms: C_8  and  C_10
REMARK    3  A    between atoms: C_10  and  S_11
REMARK    4  A    between atoms: S_11  and  C_12
REMARK    5  A    between atoms: C_15  and  C_20
REMARK    6  A    between atoms: N_16  and  C_17
REMARK    7  A    between atoms: C_17  and  C_18
REMARK    8  A    between atoms: C_20  and  C_21
REMARK                            x       y       z     vdW  Elec       q    Type
REMARK                         _______ _______ _______ _____ _____    ______ ____
ROOT
ATOM      1  C   UNL     1      -0.526  -7.184  -0.118  0.00  0.00    +0.192 A 
ATOM      2  N   UNL     1       0.683  -7.695  -0.112  0.00  0.00    -0.122 NA
ATOM      3  N   UNL     1       0.614  -8.977  -0.053  0.00  0.00    -0.133 NA
ATOM      4  C   UNL     1      -0.632  -9.358  -0.026  0.00  0.00    +0.135 A 
ATOM      5  N   UNL     1      -1.403  -8.229  -0.067  0.00  0.00    -0.302 N 
ENDROOT
BRANCH   1   6
ATOM      6  S   UNL     1      -0.940  -5.472  -0.188  0.00  0.00    -0.077 S 
BRANCH   6   7
ATOM      7  C   UNL     1       0.719  -4.750  -0.231  0.00  0.00    +0.173 C 
BRANCH   7  15
ATOM      8  C   UNL     1       2.142   2.984  -0.572  0.00  0.00    +0.075 C 
ATOM      9  C   UNL     1       1.806   1.517  -0.506  0.00  0.00    +0.101 A 
ATOM     10  N   UNL     1       0.632   0.918  -0.471  0.00  0.00    -0.145 NA
ATOM     11  N   UNL     1       0.552  -0.340  -0.417  0.00  0.00    -0.126 NA
ATOM     12  C   UNL     1       1.629  -1.108  -0.393  0.00  0.00    +0.188 A 
ATOM     13  S   UNL     1       2.886   0.092  -0.455  0.00  0.00    -0.036 S 
ATOM     14  N   UNL     1       1.728  -2.494  -0.335  0.00  0.00    -0.263 N 
ATOM     15  C   UNL     1       0.612  -3.248  -0.294  0.00  0.00    +0.229 C 
ATOM     16  O   UNL     1      -0.479  -2.718  -0.308  0.00  0.00    -0.275 OA
ATOM     17  H   UNL     1       2.717  -2.974  -0.323  0.00  0.00    +0.157 HD
ENDBRANCH   7  15
ENDBRANCH   6   7
ENDBRANCH   1   6
BRANCH   5  18
ATOM     18  C   UNL     1      -2.866  -8.157  -0.058  0.00  0.00    +0.152 C 
BRANCH  18  19
ATOM     19  C   UNL     1      -3.374  -8.064  -1.474  0.00  0.00    -0.013 C 
ATOM     20  C   UNL     1      -4.224  -8.952  -1.924  0.00  0.00    +0.005 C 
ENDBRANCH  18  19
ENDBRANCH   5  18
BRANCH   4  21
ATOM     21  C   UNL     1      -1.130 -10.779   0.038  0.00  0.00    +0.083 C 
BRANCH  21  22
ATOM     22  C   UNL     1      -1.137 -11.252   1.493  0.00  0.00    -0.022 C 
ATOM     23  C   UNL     1      -2.131 -10.412   2.298  0.00  0.00    +0.011 C 
ATOM     24  C   UNL     1      -2.138 -10.885   3.753  0.00  0.00    -0.010 C 
ATOM     25  C   UNL     1      -2.551 -12.357   3.808  0.00  0.00    +0.007 C 
ATOM     26  C   UNL     1      -1.558 -13.197   3.003  0.00  0.00    -0.010 C 
ATOM     27  C   UNL     1      -1.551 -12.724   1.548  0.00  0.00    +0.011 C 
ATOM     28  C   UNL     1      -0.157 -13.038   3.598  0.00  0.00    +0.007 C 
ATOM     29  C   UNL     1       0.257 -11.566   3.542  0.00  0.00    -0.010 C 
ATOM     30  C   UNL     1      -0.737 -10.726   4.347  0.00  0.00    +0.007 C 
ATOM     31  C   UNL     1       0.264 -11.093   2.087  0.00  0.00    +0.011 C 
ENDBRANCH  21  22
ENDBRANCH   4  21
TORSDOF 7
