REMARK  Name = ZINC59530920
REMARK  11 active torsions:
REMARK  status: ('A' for Active; 'I' for Inactive)
REMARK    1  A    between atoms: C_1  and  C_2
REMARK    2  A    between atoms: C_2  and  C_3
REMARK    3  A    between atoms: C_3  and  C_5
REMARK    4  A    between atoms: C_3  and  O_6
REMARK    5  A    between atoms: O_6  and  C_7
REMARK    6  A    between atoms: C_10  and  C_13
REMARK    7  A    between atoms: C_24  and  C_27
REMARK    8  A    between atoms: C_30  and  C_33
REMARK    9  A    between atoms: C_33  and  C_34
REMARK   10  A    between atoms: C_33  and  C_35
REMARK   11  A    between atoms: C_33  and  C_36
REMARK                            x       y       z     vdW  Elec       q    Type
REMARK                         _______ _______ _______ _____ _____    ______ ____
ROOT
ATOM      1  C   UNL     1       4.769   0.418  -6.138  0.00  0.00    +0.063 C 
ATOM      2  C   UNL     1       5.878  -0.632  -6.229  0.00  0.00    +0.109 C 
ATOM      3  C   UNL     1       6.993  -0.256  -5.287  0.00  0.00    +0.218 C 
ATOM      4  O   UNL     1       7.631  -1.122  -4.728  0.00  0.00    -0.275 OA
ATOM      5  N   UNL     1       7.281   1.038  -5.066  0.00  0.00    -0.289 N 
ATOM      6  C   UNL     1       6.593   2.038  -5.705  0.00  0.00    +0.018 C 
ATOM      7  C   UNL     1       5.376   1.798  -6.238  0.00  0.00    +0.020 C 
ATOM      8  C   UNL     1       4.651   2.808  -6.891  0.00  0.00    +0.162 C 
ATOM      9  O   UNL     1       3.563   2.551  -7.368  0.00  0.00    -0.292 OA
ATOM     10  C   UNL     1       5.200   4.205  -7.010  0.00  0.00    +0.088 C 
ATOM     11  C   UNL     1       6.129   4.476  -5.822  0.00  0.00    +0.032 C 
ATOM     12  C   UNL     1       7.224   3.405  -5.803  0.00  0.00    +0.059 C 
ATOM     13  H   UNL     1       7.989   1.269  -4.444  0.00  0.00    +0.155 HD
ENDROOT
BRANCH   1  17
ATOM     14  C   UNL     1       2.737   0.024  -2.399  0.00  0.00    +0.121 A 
ATOM     15  C   UNL     1       2.038  -0.122  -3.589  0.00  0.00    +0.046 A 
ATOM     16  C   UNL     1       2.697   0.006  -4.796  0.00  0.00    +0.008 A 
ATOM     17  C   UNL     1       4.053   0.279  -4.819  0.00  0.00    -0.039 A 
ATOM     18  C   UNL     1       4.751   0.425  -3.635  0.00  0.00    +0.008 A 
ATOM     19  C   UNL     1       4.095   0.304  -2.425  0.00  0.00    +0.046 A 
BRANCH  14  20
ATOM     20  O   UNL     1       2.090  -0.101  -1.210  0.00  0.00    -0.489 OA
BRANCH  20  21
ATOM     21  C   UNL     1       0.672  -0.270  -1.258  0.00  0.00    +0.170 C 
ATOM     22  C   UNL     1       0.341  -1.749  -1.463  0.00  0.00    +0.052 C 
BRANCH  21  24
ATOM     23  C   UNL     1       0.281   1.719   0.203  0.00  0.00    +0.007 C 
ATOM     24  C   UNL     1       0.057   0.213   0.057  0.00  0.00    +0.041 C 
ENDBRANCH  21  24
ENDBRANCH  20  21
ENDBRANCH  14  20
ENDBRANCH   1  17
BRANCH  11  25
ATOM     25  C   UNL     1       6.754   5.840  -5.969  0.00  0.00    -0.043 A 
ATOM     26  C   UNL     1       7.530   6.129  -7.076  0.00  0.00    +0.004 A 
ATOM     27  C   UNL     1       8.102   7.380  -7.211  0.00  0.00    +0.004 A 
ATOM     28  C   UNL     1       7.899   8.341  -6.239  0.00  0.00    -0.042 A 
ATOM     29  C   UNL     1       7.122   8.053  -5.132  0.00  0.00    +0.004 A 
ATOM     30  C   UNL     1       6.546   6.803  -5.000  0.00  0.00    +0.004 A 
BRANCH  28  31
ATOM     31  C   UNL     1       8.524   9.705  -6.386  0.00  0.00    -0.013 C 
ATOM     32  C   UNL     1       8.016  10.363  -7.670  0.00  0.00    +0.015 C 
ATOM     33  C   UNL     1       8.145  10.572  -5.183  0.00  0.00    +0.015 C 
ATOM     34  C   UNL     1      10.046   9.563  -6.452  0.00  0.00    +0.015 C 
ENDBRANCH  28  31
ENDBRANCH  11  25
TORSDOF 6
