REMARK  Name = ZINC37657936
REMARK  7 active torsions:
REMARK  status: ('A' for Active; 'I' for Inactive)
REMARK    1  A    between atoms: C_1  and  C_2
REMARK    2  A    between atoms: C_2  and  N_3
REMARK    3  A    between atoms: C_4  and  C_6
REMARK    4  A    between atoms: C_6  and  C_8
REMARK    5  A    between atoms: C_6  and  O_9
REMARK    6  A    between atoms: O_9  and  C_10
REMARK    7  A    between atoms: C_13  and  N_20
REMARK                            x       y       z     vdW  Elec       q    Type
REMARK                         _______ _______ _______ _____ _____    ______ ____
ROOT
ATOM      1  C   UNL     1      -4.109  -4.371  -0.629  0.00  0.00    +0.148 A 
ATOM      2  C   UNL     1      -5.137  -3.594  -1.109  0.00  0.00    +0.050 A 
ATOM      3  C   UNL     1      -6.282  -4.175  -1.646  0.00  0.00    +0.027 A 
ATOM      4  C   UNL     1      -6.412  -5.545  -1.711  0.00  0.00    +0.034 A 
ATOM      5  C   UNL     1      -5.373  -6.367  -1.227  0.00  0.00    +0.025 A 
ATOM      6  C   UNL     1      -4.206  -5.775  -0.684  0.00  0.00    +0.114 A 
ATOM      7  N   UNL     1      -3.217  -6.552  -0.229  0.00  0.00    -0.251 NA
ATOM      8  C   UNL     1      -3.300  -7.859  -0.276  0.00  0.00    +0.111 A 
ATOM      9  C   UNL     1      -4.417  -8.503  -0.802  0.00  0.00    +0.020 A 
ATOM     10  C   UNL     1      -5.468  -7.769  -1.274  0.00  0.00    +0.013 A 
ENDROOT
BRANCH   4  11
ATOM     11  N   UNL     1      -7.564  -6.117  -2.252  0.00  0.00    -0.357 N 
ATOM     12  H   UNL     1      -8.277  -5.549  -2.584  0.00  0.00    +0.142 HD
ATOM     13  H   UNL     1      -7.653  -7.082  -2.296  0.00  0.00    +0.142 HD
ENDBRANCH   4  11
BRANCH   1  14
ATOM     14  O   UNL     1      -2.998  -3.784  -0.107  0.00  0.00    -0.478 OA
BRANCH  14  15
ATOM     15  C   UNL     1      -2.913  -2.361  -0.197  0.00  0.00    +0.256 C 
ATOM     16  C   UNL     1      -3.657  -1.730   0.981  0.00  0.00    +0.062 C 
BRANCH  15  18
ATOM     17  N   UNL     1      -1.135  -0.646  -0.334  0.00  0.00    -0.313 N 
ATOM     18  C   UNL     1      -1.466  -1.941  -0.161  0.00  0.00    +0.254 C 
ATOM     19  O   UNL     1      -0.599  -2.768   0.024  0.00  0.00    -0.272 OA
ATOM     20  H   UNL     1      -1.829   0.016  -0.482  0.00  0.00    +0.149 HD
BRANCH  17  22
ATOM     21  C   UNL     1       0.369   1.273  -0.520  0.00  0.00    +0.024 C 
ATOM     22  C   UNL     1       0.271  -0.237  -0.298  0.00  0.00    +0.101 C 
ENDBRANCH  17  22
ENDBRANCH  15  18
ENDBRANCH  14  15
ENDBRANCH   1  14
TORSDOF 5
