REMARK  Name = ZINC65331077
REMARK  8 active torsions:
REMARK  status: ('A' for Active; 'I' for Inactive)
REMARK    1  A    between atoms: C_1  and  C_2
REMARK    2  A    between atoms: C_2  and  C_3
REMARK    3  A    between atoms: N_7  and  C_16
REMARK    4  A    between atoms: C_16  and  C_17
REMARK    5  A    between atoms: N_19  and  C_20
REMARK    6  A    between atoms: C_20  and  C_21
REMARK    7  A    between atoms: C_30  and  C_32
REMARK    8  A    between atoms: C_36  and  C_38
REMARK                            x       y       z     vdW  Elec       q    Type
REMARK                         _______ _______ _______ _____ _____    ______ ____
ROOT
ATOM      1  C   UNL     1       2.076  -4.850  -1.636  0.00  0.00    +0.231 C 
ATOM      2  O   UNL     1       2.586  -4.119  -2.459  0.00  0.00    -0.274 OA
ATOM      3  N   UNL     1       2.071  -6.184  -1.829  0.00  0.00    -0.310 N 
ATOM      4  H   UNL     1       1.664  -6.768  -1.171  0.00  0.00    +0.149 HD
ENDROOT
BRANCH   1   5
ATOM      5  C   UNL     1       1.447  -4.266  -0.397  0.00  0.00    +0.209 C 
BRANCH   5   9
ATOM      6  C   UNL     1       0.709  -0.541  -0.889  0.00  0.00    +0.259 C 
ATOM      7  C   UNL     1       0.625  -2.043  -0.990  0.00  0.00    +0.261 C 
ATOM      8  O   UNL     1      -0.299  -2.563  -1.581  0.00  0.00    -0.271 OA
ATOM      9  N   UNL     1       1.581  -2.808  -0.422  0.00  0.00    -0.256 N 
ATOM     10  C   UNL     1       2.704  -2.189   0.144  0.00  0.00    +0.080 A 
ATOM     11  C   UNL     1       3.586  -2.913   0.930  0.00  0.00    +0.047 A 
ATOM     12  C   UNL     1       4.683  -2.285   1.492  0.00  0.00    +0.043 A 
ATOM     13  C   UNL     1       4.899  -0.936   1.273  0.00  0.00    +0.024 A 
ATOM     14  C   UNL     1       4.025  -0.209   0.486  0.00  0.00    +0.049 A 
ATOM     15  C   UNL     1       2.929  -0.833  -0.085  0.00  0.00    +0.143 A 
ATOM     16  O   UNL     1       2.080  -0.137  -0.886  0.00  0.00    -0.478 OA
ATOM     17 CL   UNL     1       5.790  -3.191   2.477  0.00  0.00    -0.083 Cl
BRANCH   6  19
ATOM     18  C   UNL     1       0.012   1.449   0.452  0.00  0.00    +0.008 C 
ATOM     19  C   UNL     1       0.040  -0.081   0.408  0.00  0.00    +0.051 C 
ENDBRANCH   6  19
ENDBRANCH   5   9
ENDBRANCH   1   5
BRANCH   3  20
ATOM     20  C   UNL     1       2.683  -6.751  -3.034  0.00  0.00    +0.139 C 
BRANCH  20  21
ATOM     21  C   UNL     1       2.545  -8.251  -3.008  0.00  0.00    -0.030 A 
ATOM     22  C   UNL     1       3.526  -9.028  -2.419  0.00  0.00    +0.007 A 
ATOM     23  C   UNL     1       3.403 -10.400  -2.394  0.00  0.00    +0.024 A 
ATOM     24  C   UNL     1       2.287 -11.018  -2.962  0.00  0.00    +0.040 A 
ATOM     25  C   UNL     1       1.309 -10.231  -3.550  0.00  0.00    -0.024 A 
ATOM     26  C   UNL     1       1.434  -8.855  -3.568  0.00  0.00    +0.010 A 
ATOM     27  C   UNL     1       0.220 -11.135  -4.083  0.00  0.00    +0.056 C 
ATOM     28  C   UNL     1       0.690 -12.556  -3.731  0.00  0.00    +0.118 C 
ATOM     29  N   UNL     1       1.971 -12.377  -3.043  0.00  0.00    -0.267 N 
ATOM     30  C   UNL     1       2.734 -13.377  -2.559  0.00  0.00    +0.251 C 
ATOM     31  O   UNL     1       3.831 -13.134  -2.094  0.00  0.00    -0.270 OA
BRANCH  30  32
ATOM     32  C   UNL     1       2.237 -14.769  -2.594  0.00  0.00    +0.037 A 
ATOM     33  C   UNL     1       1.059 -15.076  -3.276  0.00  0.00    +0.013 A 
ATOM     34  C   UNL     1       0.601 -16.376  -3.304  0.00  0.00    +0.001 A 
ATOM     35  C   UNL     1       1.307 -17.376  -2.658  0.00  0.00    +0.003 A 
ATOM     36  C   UNL     1       2.476 -17.079  -1.980  0.00  0.00    -0.050 A 
ATOM     37  C   UNL     1       2.948 -15.783  -1.950  0.00  0.00    +0.016 A 
ATOM     38  C   UNL     1       3.238 -18.174  -1.280  0.00  0.00    +0.044 C 
ENDBRANCH  30  32
ENDBRANCH  20  21
ENDBRANCH   3  20
TORSDOF 6
