REMARK  Name = ZINC09490984
REMARK  11 active torsions:
REMARK  status: ('A' for Active; 'I' for Inactive)
REMARK    1  A    between atoms: C_1  and  C_2
REMARK    2  A    between atoms: C_5  and  S_8
REMARK    3  A    between atoms: S_8  and  N_11
REMARK    4  A    between atoms: N_11  and  C_12
REMARK    5  A    between atoms: C_14  and  S_20
REMARK    6  A    between atoms: C_17  and  O_18
REMARK    7  A    between atoms: O_18  and  C_19
REMARK    8  A    between atoms: S_20  and  N_23
REMARK    9  A    between atoms: N_23  and  C_24
REMARK   10  A    between atoms: C_27  and  O_30
REMARK   11  A    between atoms: O_30  and  C_31
REMARK                            x       y       z     vdW  Elec       q    Type
REMARK                         _______ _______ _______ _____ _____    ______ ____
ROOT
ATOM      1  C   UNL     1       1.402  -1.440   3.738  0.00  0.00    +0.091 A 
ATOM      2  C   UNL     1       0.688  -1.140   2.587  0.00  0.00    +0.057 A 
ATOM      3  C   UNL     1       1.353  -0.973   1.386  0.00  0.00    +0.111 A 
ATOM      4  C   UNL     1       2.727  -1.109   1.328  0.00  0.00    +0.032 A 
ATOM      5  C   UNL     1       3.446  -1.403   2.473  0.00  0.00    +0.049 A 
ATOM      6  C   UNL     1       2.787  -1.572   3.680  0.00  0.00    +0.142 A 
ENDROOT
BRANCH   3   7
ATOM      7  S   UNL     1       0.445  -0.592  -0.075  0.00  0.00    +0.072 S 
ATOM      8  O   UNL     1      -0.906  -0.951   0.181  0.00  0.00    -0.150 OA
ATOM      9  O   UNL     1       1.183  -1.131  -1.164  0.00  0.00    -0.150 OA
BRANCH   7  10
ATOM     10  N   UNL     1       0.472   1.054  -0.254  0.00  0.00    -0.216 N 
ATOM     11  H   UNL     1       0.918   1.452  -1.017  0.00  0.00    +0.174 HD
BRANCH  10  12
ATOM     12  C   UNL     1      -0.145   1.871   0.700  0.00  0.00    +0.048 A 
ATOM     13  C   UNL     1      -1.413   1.555   1.170  0.00  0.00    +0.028 A 
ATOM     14  C   UNL     1      -2.018   2.359   2.116  0.00  0.00    +0.047 A 
ATOM     15  C   UNL     1      -1.365   3.488   2.588  0.00  0.00    +0.120 A 
ATOM     16  C   UNL     1      -0.101   3.807   2.115  0.00  0.00    +0.047 A 
ATOM     17  C   UNL     1       0.508   3.001   1.173  0.00  0.00    +0.028 A 
BRANCH  15  18
ATOM     18  O   UNL     1      -1.965   4.283   3.515  0.00  0.00    -0.495 OA
ATOM     19  C   UNL     1      -3.267   3.894   3.957  0.00  0.00    +0.277 C 
ENDBRANCH  15  18
ENDBRANCH  10  12
ENDBRANCH   7  10
ENDBRANCH   3   7
BRANCH   1  20
ATOM     20  N   UNL     1       0.731  -1.609   4.955  0.00  0.00    -0.213 N 
ATOM     21  H   UNL     1       1.144  -1.314   5.781  0.00  0.00    +0.174 HD
BRANCH  20  22
ATOM     22  S   UNL     1      -0.767  -2.313   4.984  0.00  0.00    +0.072 S 
ATOM     23  O   UNL     1      -1.121  -2.460   6.352  0.00  0.00    -0.150 OA
ATOM     24  O   UNL     1      -1.573  -1.592   4.062  0.00  0.00    -0.150 OA
BRANCH  22  29
ATOM     25  C   UNL     1      -0.162  -7.887   2.752  0.00  0.00    +0.044 C 
ATOM     26  C   UNL     1      -0.314  -6.495   3.310  0.00  0.00    -0.050 A 
ATOM     27  C   UNL     1      -0.165  -6.273   4.666  0.00  0.00    +0.005 A 
ATOM     28  C   UNL     1      -0.304  -4.997   5.177  0.00  0.00    +0.029 A 
ATOM     29  C   UNL     1      -0.590  -3.941   4.332  0.00  0.00    +0.109 A 
ATOM     30  C   UNL     1      -0.744  -4.163   2.976  0.00  0.00    +0.029 A 
ATOM     31  C   UNL     1      -0.601  -5.439   2.464  0.00  0.00    +0.005 A 
ENDBRANCH  22  29
ENDBRANCH  20  22
ENDBRANCH   1  20
BRANCH   6  32
ATOM     32  O   UNL     1       3.492  -1.865   4.805  0.00  0.00    -0.493 OA
ATOM     33  C   UNL     1       4.910  -1.985   4.670  0.00  0.00    +0.277 C 
ENDBRANCH   6  32
TORSDOF 8
