REMARK  Name = ZINC35675086
REMARK  5 active torsions:
REMARK  status: ('A' for Active; 'I' for Inactive)
REMARK    1  A    between atoms: C_1  and  C_2
REMARK    2  A    between atoms: C_9  and  O_12
REMARK    3  A    between atoms: O_12  and  C_13
REMARK    4  A    between atoms: C_16  and  C_20
REMARK    5  A    between atoms: C_18  and  N_19
REMARK                            x       y       z     vdW  Elec       q    Type
REMARK                         _______ _______ _______ _____ _____    ______ ____
ROOT
ATOM      1  O   UNL     1       0.046  -1.980   3.588  0.00  0.00    -0.452 OA
ENDROOT
BRANCH   1  10
ATOM      2  C   UNL     1       0.077   1.535   0.042  0.00  0.00    +0.065 C 
ATOM      3  C   UNL     1       0.074   0.028   0.020  0.00  0.00    +0.039 A 
ATOM      4  C   UNL     1       0.080  -0.632  -1.207  0.00  0.00    +0.023 A 
ATOM      5  C   UNL     1       0.077  -1.997  -1.245  0.00  0.00    +0.012 A 
ATOM      6  C   UNL     1       0.068  -2.696  -0.023  0.00  0.00    +0.004 A 
ATOM      7  C   UNL     1       0.066  -4.100   0.016  0.00  0.00    +0.010 A 
ATOM      8  C   UNL     1       0.057  -4.743   1.217  0.00  0.00    +0.004 A 
ATOM      9  C   UNL     1       0.051  -4.027   2.411  0.00  0.00    +0.048 A 
ATOM     10  C   UNL     1       0.053  -2.661   2.413  0.00  0.00    +0.154 A 
ATOM     11  C   UNL     1       0.062  -1.962   1.188  0.00  0.00    +0.113 A 
ATOM     12  N   UNL     1       0.070  -0.626   1.156  0.00  0.00    -0.248 NA
ENDBRANCH   1  10
BRANCH   1  13
ATOM     13  C   UNL     1      -1.140  -1.493   4.036  0.00  0.00    +0.149 A 
ATOM     14  C   UNL     1      -2.313  -1.796   3.359  0.00  0.00    +0.049 A 
ATOM     15  C   UNL     1      -3.520  -1.305   3.809  0.00  0.00    +0.022 A 
ATOM     16  C   UNL     1      -3.565  -0.498   4.949  0.00  0.00    +0.054 A 
ATOM     17  C   UNL     1      -2.385  -0.192   5.632  0.00  0.00    +0.045 A 
ATOM     18  C   UNL     1      -1.178  -0.693   5.179  0.00  0.00    +0.069 A 
BRANCH  18  19
ATOM     19  N   UNL     1       0.006  -0.393   5.863  0.00  0.00    -0.355 N 
ATOM     20  H   UNL     1       0.853  -0.742   5.542  0.00  0.00    +0.142 HD
ATOM     21  H   UNL     1      -0.020   0.163   6.657  0.00  0.00    +0.142 HD
ENDBRANCH  18  19
BRANCH  16  22
ATOM     22  C   UNL     1      -4.818   0.013   5.417  0.00  0.00    +0.099 C 
ATOM     23  N   UNL     1      -5.812   0.420   5.788  0.00  0.00    -0.191 NA
ENDBRANCH  16  22
ENDBRANCH   1  13
TORSDOF 4
