REMARK  Name = ZINC21256568
REMARK  11 active torsions:
REMARK  status: ('A' for Active; 'I' for Inactive)
REMARK    1  A    between atoms: C_1  and  O_2
REMARK    2  A    between atoms: O_2  and  C_3
REMARK    3  A    between atoms: C_5  and  C_10
REMARK    4  A    between atoms: C_8  and  O_9
REMARK    5  A    between atoms: C_15  and  C_20
REMARK    6  A    between atoms: C_22  and  O_30
REMARK    7  A    between atoms: C_23  and  O_28
REMARK    8  A    between atoms: C_24  and  O_26
REMARK    9  A    between atoms: O_26  and  C_27
REMARK   10  A    between atoms: O_28  and  C_29
REMARK   11  A    between atoms: O_30  and  C_31
REMARK                            x       y       z     vdW  Elec       q    Type
REMARK                         _______ _______ _______ _____ _____    ______ ____
ROOT
ATOM      1  C   UNL     1       2.009  -0.548  -1.337  0.00  0.00    +0.136 C 
ATOM      2  C   UNL     1       2.420   0.885  -1.581  0.00  0.00    +0.036 C 
ATOM      3  C   UNL     1       1.975   1.958  -0.908  0.00  0.00    +0.017 C 
ATOM      4  C   UNL     1       2.439   3.353  -1.296  0.00  0.00    +0.059 C 
ATOM      5  C   UNL     1       3.881   3.299  -1.799  0.00  0.00    +0.032 C 
ATOM      6  C   UNL     1       3.915   2.374  -3.021  0.00  0.00    +0.088 C 
ATOM      7  C   UNL     1       3.362   1.038  -2.625  0.00  0.00    +0.163 C 
ATOM      8  O   UNL     1       3.738   0.048  -3.224  0.00  0.00    -0.292 OA
ATOM      9  N   UNL     1       1.098   1.924   0.128  0.00  0.00    -0.316 N 
ATOM     10  C   UNL     1      -0.091   1.202   0.136  0.00  0.00    +0.052 A 
ATOM     11  C   UNL     1      -1.328   1.816   0.233  0.00  0.00    +0.025 A 
ATOM     12  C   UNL     1      -2.469   1.034   0.298  0.00  0.00    +0.002 A 
ATOM     13  C   UNL     1      -2.372  -0.345   0.267  0.00  0.00    +0.002 A 
ATOM     14  C   UNL     1      -1.137  -0.958   0.151  0.00  0.00    +0.025 A 
ATOM     15  C   UNL     1       0.007  -0.179   0.068  0.00  0.00    +0.049 A 
ATOM     16  N   UNL     1       1.263  -0.753  -0.113  0.00  0.00    -0.331 N 
ATOM     17  H   UNL     1       1.308   2.495   1.045  0.00  0.00    +0.152 HD
ATOM     18  H   UNL     1       1.686  -1.371   0.693  0.00  0.00    +0.147 HD
ENDROOT
BRANCH   1  21
ATOM     19  C   UNL     1       0.845  -2.436  -4.396  0.00  0.00    +0.162 A 
ATOM     20  C   UNL     1       1.624  -2.008  -3.332  0.00  0.00    +0.055 A 
ATOM     21  C   UNL     1       1.163  -1.008  -2.496  0.00  0.00    -0.019 A 
ATOM     22  C   UNL     1      -0.070  -0.426  -2.724  0.00  0.00    +0.009 A 
ATOM     23  C   UNL     1      -0.849  -0.844  -3.787  0.00  0.00    +0.049 A 
ATOM     24  C   UNL     1      -0.395  -1.849  -4.625  0.00  0.00    +0.158 A 
BRANCH  19  26
ATOM     25  C   UNL     1       2.578  -3.978  -4.920  0.00  0.00    +0.277 C 
ATOM     26  O   UNL     1       1.295  -3.422  -5.216  0.00  0.00    -0.491 OA
ENDBRANCH  19  26
BRANCH  24  27
ATOM     27  O   UNL     1      -1.161  -2.261  -5.672  0.00  0.00    -0.503 OA
ATOM     28  H   UNL     1      -2.141  -1.797  -5.852  0.00  0.00    +0.292 HD
ENDBRANCH  24  27
ENDBRANCH   1  21
BRANCH   5  29
ATOM     29  C   UNL     1       4.337   4.681  -2.190  0.00  0.00    -0.036 A 
ATOM     30  C   UNL     1       3.671   5.371  -3.185  0.00  0.00    +0.053 A 
ATOM     31  C   UNL     1       4.084   6.645  -3.545  0.00  0.00    +0.165 A 
ATOM     32  C   UNL     1       5.176   7.223  -2.910  0.00  0.00    +0.204 A 
ATOM     33  C   UNL     1       5.847   6.524  -1.913  0.00  0.00    +0.165 A 
ATOM     34  C   UNL     1       5.424   5.253  -1.556  0.00  0.00    +0.053 A 
BRANCH  33  35
ATOM     35  O   UNL     1       6.917   7.087  -1.289  0.00  0.00    -0.491 OA
ATOM     36  C   UNL     1       7.557   6.310  -0.274  0.00  0.00    +0.277 C 
ENDBRANCH  33  35
BRANCH  32  37
ATOM     37  O   UNL     1       5.588   8.472  -3.262  0.00  0.00    -0.488 OA
ATOM     38  C   UNL     1       6.560   8.564  -4.306  0.00  0.00    +0.277 C 
ENDBRANCH  32  37
BRANCH  31  39
ATOM     39  O   UNL     1       3.424   7.325  -4.520  0.00  0.00    -0.491 OA
ATOM     40  C   UNL     1       2.311   6.668  -5.129  0.00  0.00    +0.277 C 
ENDBRANCH  31  39
ENDBRANCH   5  29
TORSDOF 7
