REMARK  Name = ZINC25413759
REMARK  7 active torsions:
REMARK  status: ('A' for Active; 'I' for Inactive)
REMARK    1  A    between atoms: C_1  and  C_2
REMARK    2  A    between atoms: C_8  and  N_10
REMARK    3  A    between atoms: C_11  and  C_13
REMARK    4  A    between atoms: C_13  and  C_15
REMARK    5  A    between atoms: C_13  and  N_16
REMARK    6  A    between atoms: N_19  and  S_22
REMARK    7  A    between atoms: S_22  and  C_25
REMARK                            x       y       z     vdW  Elec       q    Type
REMARK                         _______ _______ _______ _____ _____    ______ ____
ROOT
ATOM      1  N   UNL     1       6.402  -1.105   3.354  0.00  0.00    +0.389 N 
ATOM      2  C   UNL     1       6.711  -2.006   2.236  0.00  0.00    -0.060 C 
ATOM      3  C   UNL     1       8.193  -1.871   1.870  0.00  0.00    +0.091 C 
ATOM      4  N   UNL     1       8.996  -2.086   3.084  0.00  0.00    -0.180 NA
ATOM      5  C   UNL     1       8.655  -1.316   4.290  0.00  0.00    +0.091 C 
ATOM      6  C   UNL     1       7.155  -1.473   4.560  0.00  0.00    -0.060 C 
ATOM      7  H   UNL     1       6.713  -0.091   3.062  0.00  0.00    -0.081 HD
ENDROOT
BRANCH   4   8
ATOM      8  S   UNL     1      10.250  -3.168   3.092  0.00  0.00    +0.064 S 
ATOM      9  O   UNL     1      10.675  -3.308   1.744  0.00  0.00    -0.153 OA
ATOM     10  O   UNL     1      11.131  -2.760   4.130  0.00  0.00    -0.153 OA
BRANCH   8  11
ATOM     11  C   UNL     1       9.589  -4.728   3.576  0.00  0.00    +0.142 A 
ATOM     12  C   UNL     1       9.554  -5.080   4.914  0.00  0.00    +0.069 A 
ATOM     13  C   UNL     1       9.030  -6.303   5.294  0.00  0.00    +0.022 A 
ATOM     14  C   UNL     1       8.552  -7.177   4.337  0.00  0.00    +0.003 A 
ATOM     15  C   UNL     1       8.592  -6.829   3.000  0.00  0.00    +0.022 A 
ATOM     16  C   UNL     1       9.110  -5.604   2.619  0.00  0.00    +0.069 A 
ATOM     17 CL   UNL     1       9.160  -5.166   0.940  0.00  0.00    -0.081 Cl
ATOM     18 CL   UNL     1      10.161  -3.984   6.116  0.00  0.00    -0.081 Cl
ENDBRANCH   8  11
ENDBRANCH   4   8
BRANCH   1  19
ATOM     19  C   UNL     1       4.958  -1.076   3.623  0.00  0.00    +0.016 C 
ATOM     20  C   UNL     1       4.475  -2.487   3.964  0.00  0.00    -0.004 C 
BRANCH  19  22
ATOM     21  N   UNL     1       2.886  -0.467   2.418  0.00  0.00    -0.314 N 
ATOM     22  C   UNL     1       4.229  -0.577   2.402  0.00  0.00    +0.199 C 
ATOM     23  O   UNL     1       4.851  -0.275   1.406  0.00  0.00    -0.278 OA
ATOM     24  H   UNL     1       2.322  -0.741   3.321  0.00  0.00    +0.149 HD
BRANCH  21  31
ATOM     25  C   UNL     1       0.763  -2.041   1.233  0.00  0.00    +0.009 C 
ATOM     26  C   UNL     1       0.742  -0.511   1.242  0.00  0.00    +0.006 C 
ATOM     27  C   UNL     1       0.002  -0.004   0.002  0.00  0.00    +0.005 C 
ATOM     28  C   UNL     1      -0.019   1.526   0.010  0.00  0.00    +0.000 C 
ATOM     29  C   UNL     1       1.417   2.055  -0.000  0.00  0.00    +0.002 C 
ATOM     30  C   UNL     1       2.157   1.548   1.239  0.00  0.00    +0.022 C 
ATOM     31  C   UNL     1       2.178   0.019   1.231  0.00  0.00    +0.076 C 
ENDBRANCH  21  31
ENDBRANCH  19  22
ENDBRANCH   1  19
TORSDOF 5
