REMARK  Name = ZINC21245828
REMARK  12 active torsions:
REMARK  status: ('A' for Active; 'I' for Inactive)
REMARK    1  A    between atoms: C_1  and  C_2
REMARK    2  A    between atoms: C_2  and  C_3
REMARK    3  A    between atoms: C_2  and  C_4
REMARK    4  A    between atoms: C_4  and  O_5
REMARK    5  A    between atoms: O_5  and  C_6
REMARK    6  A    between atoms: C_9  and  C_12
REMARK    7  A    between atoms: C_17  and  C_27
REMARK    8  A    between atoms: C_30  and  O_35
REMARK    9  A    between atoms: C_31  and  O_33
REMARK   10  A    between atoms: O_33  and  C_34
REMARK   11  A    between atoms: O_35  and  C_36
REMARK   12  A    between atoms: C_36  and  C_38
REMARK                            x       y       z     vdW  Elec       q    Type
REMARK                         _______ _______ _______ _____ _____    ______ ____
ROOT
ATOM      1  C   UNL     1       2.792   4.578   4.218  0.00  0.00    +0.032 C 
ATOM      2  C   UNL     1       4.104   4.199   3.535  0.00  0.00    +0.059 C 
ATOM      3  C   UNL     1       3.837   3.751   2.108  0.00  0.00    +0.017 C 
ATOM      4  C   UNL     1       2.821   4.280   1.405  0.00  0.00    +0.036 C 
ATOM      5  C   UNL     1       2.455   3.936  -0.018  0.00  0.00    +0.136 C 
ATOM      6  N   UNL     1       3.445   3.150  -0.722  0.00  0.00    -0.331 N 
ATOM      7  C   UNL     1       3.753   1.853  -0.314  0.00  0.00    +0.049 A 
ATOM      8  C   UNL     1       3.485   0.757  -1.118  0.00  0.00    +0.025 A 
ATOM      9  C   UNL     1       3.765  -0.515  -0.649  0.00  0.00    +0.002 A 
ATOM     10  C   UNL     1       4.305  -0.694   0.612  0.00  0.00    +0.002 A 
ATOM     11  C   UNL     1       4.591   0.401   1.410  0.00  0.00    +0.025 A 
ATOM     12  C   UNL     1       4.332   1.674   0.933  0.00  0.00    +0.052 A 
ATOM     13  N   UNL     1       4.700   2.818   1.632  0.00  0.00    -0.316 N 
ATOM     14  C   UNL     1       1.978   5.252   1.995  0.00  0.00    +0.163 C 
ATOM     15  O   UNL     1       1.078   5.728   1.331  0.00  0.00    -0.292 OA
ATOM     16  C   UNL     1       2.156   5.715   3.410  0.00  0.00    +0.088 C 
ATOM     17  H   UNL     1       3.967   3.574  -1.593  0.00  0.00    +0.147 HD
ATOM     18  H   UNL     1       5.782   2.939   1.790  0.00  0.00    +0.152 HD
ENDROOT
BRANCH   1  22
ATOM     19  C   UNL     1       3.564   5.895   8.210  0.00  0.00    +0.121 A 
ATOM     20  C   UNL     1       2.747   4.796   7.986  0.00  0.00    +0.046 A 
ATOM     21  C   UNL     1       2.499   4.373   6.695  0.00  0.00    +0.007 A 
ATOM     22  C   UNL     1       3.064   5.043   5.626  0.00  0.00    -0.043 A 
ATOM     23  C   UNL     1       3.884   6.134   5.846  0.00  0.00    +0.007 A 
ATOM     24  C   UNL     1       4.130   6.566   7.135  0.00  0.00    +0.046 A 
BRANCH  19  25
ATOM     25  O   UNL     1       3.810   6.314   9.479  0.00  0.00    -0.492 OA
BRANCH  25  26
ATOM     26  C   UNL     1       4.660   7.452   9.633  0.00  0.00    +0.232 C 
BRANCH  26  28
ATOM     27  C   UNL     1       5.551   6.622  11.815  0.00  0.00    +0.010 C 
ATOM     28  C   UNL     1       4.819   7.772  11.121  0.00  0.00    +0.020 C 
ATOM     29  C   UNL     1       5.626   9.062  11.282  0.00  0.00    +0.010 C 
ENDBRANCH  26  28
ENDBRANCH  25  26
ENDBRANCH  19  25
ENDBRANCH   1  22
BRANCH   5  30
ATOM     30  C   UNL     1       1.158   3.169  -0.005  0.00  0.00    -0.019 A 
ATOM     31  C   UNL     1       1.100   1.922   0.590  0.00  0.00    +0.009 A 
ATOM     32  C   UNL     1      -0.087   1.214   0.604  0.00  0.00    +0.050 A 
ATOM     33  C   UNL     1      -1.222   1.752   0.017  0.00  0.00    +0.173 A 
ATOM     34  C   UNL     1      -1.165   3.009  -0.577  0.00  0.00    +0.163 A 
ATOM     35  C   UNL     1       0.029   3.713  -0.588  0.00  0.00    +0.055 A 
BRANCH  34  36
ATOM     36  O   UNL     1      -2.276   3.542  -1.151  0.00  0.00    -0.491 OA
ATOM     37  C   UNL     1      -2.142   4.834  -1.747  0.00  0.00    +0.277 C 
ENDBRANCH  34  36
BRANCH  33  38
ATOM     38  O   UNL     1      -2.389   1.054   0.025  0.00  0.00    -0.422 OA
BRANCH  38  39
ATOM     39  C   UNL     1      -2.662   0.310  -1.059  0.00  0.00    +0.309 C 
ATOM     40  O   UNL     1      -1.845   0.208  -1.943  0.00  0.00    -0.251 OA
ATOM     41  C   UNL     1      -3.987  -0.398  -1.173  0.00  0.00    +0.136 C 
ENDBRANCH  38  39
ENDBRANCH  33  38
ENDBRANCH   5  30
TORSDOF 8
