REMARK  Name = ZINC08430193
REMARK  10 active torsions:
REMARK  status: ('A' for Active; 'I' for Inactive)
REMARK    1  A    between atoms: C_1  and  C_2
REMARK    2  A    between atoms: C_2  and  O_3
REMARK    3  A    between atoms: O_3  and  C_4
REMARK    4  A    between atoms: C_4  and  C_6
REMARK    5  A    between atoms: C_7  and  N_33
REMARK    6  A    between atoms: C_10  and  C_11
REMARK    7  A    between atoms: N_13  and  C_20
REMARK    8  A    between atoms: C_20  and  C_21
REMARK    9  A    between atoms: C_28  and  C_30
REMARK   10  A    between atoms: N_33  and  C_34
REMARK                            x       y       z     vdW  Elec       q    Type
REMARK                         _______ _______ _______ _____ _____    ______ ____
ROOT
ATOM      1  C   UNL     1       1.052  10.707  -2.200  0.00  0.00    +0.134 C 
ATOM      2  C   UNL     1       2.387  10.299  -2.178  0.00  0.00    +0.088 C 
ATOM      3  S   UNL     1       2.344   8.593  -2.454  0.00  0.00    -0.069 S 
ATOM      4  C   UNL     1       0.588   8.340  -2.609  0.00  0.00    +0.062 C 
ATOM      5  C   UNL     1      -0.087   7.180  -2.839  0.00  0.00    +0.029 C 
ATOM      6  C   UNL     1       0.050   9.695  -2.434  0.00  0.00    +0.209 C 
ATOM      7  O   UNL     1      -1.145   9.944  -2.478  0.00  0.00    -0.286 OA
ENDROOT
BRANCH   5   8
ATOM      8  C   UNL     1       0.650   5.949  -3.121  0.00  0.00    +0.001 A 
ATOM      9  C   UNL     1       1.963   5.846  -3.489  0.00  0.00    +0.095 A 
ATOM     10  N   UNL     1       2.288   4.541  -3.664  0.00  0.00    -0.337 N 
ATOM     11  C   UNL     1       1.196   3.735  -3.415  0.00  0.00    +0.050 A 
ATOM     12  C   UNL     1       0.124   4.572  -3.065  0.00  0.00    +0.007 A 
ATOM     13  C   UNL     1      -1.119   4.024  -2.759  0.00  0.00    +0.010 A 
ATOM     14  C   UNL     1      -1.292   2.657  -2.805  0.00  0.00    +0.001 A 
ATOM     15  C   UNL     1      -0.232   1.829  -3.145  0.00  0.00    +0.002 A 
ATOM     16  C   UNL     1       1.003   2.358  -3.451  0.00  0.00    +0.026 A 
BRANCH  10  17
ATOM     17  C   UNL     1       3.612   4.055  -4.060  0.00  0.00    +0.217 C 
BRANCH  17  18
ATOM     18  C   UNL     1       3.650   3.860  -5.554  0.00  0.00    +0.236 C 
ATOM     19  O   UNL     1       2.667   4.103  -6.222  0.00  0.00    -0.274 OA
ATOM     20  N   UNL     1       4.775   3.416  -6.147  0.00  0.00    -0.297 N 
ATOM     21  C   UNL     1       5.932   3.002  -5.343  0.00  0.00    +0.108 C 
ATOM     22  C   UNL     1       7.168   3.763  -5.820  0.00  0.00    +0.019 C 
ATOM     23  C   UNL     1       7.342   3.554  -7.326  0.00  0.00    +0.003 C 
ATOM     24  C   UNL     1       6.120   4.104  -8.064  0.00  0.00    +0.022 C 
ATOM     25  C   UNL     1       4.870   3.342  -7.612  0.00  0.00    +0.073 C 
ATOM     26  C   UNL     1       3.627   3.977  -8.239  0.00  0.00    +0.028 C 
ENDBRANCH  17  18
ENDBRANCH  10  17
ENDBRANCH   5   8
BRANCH   1  27
ATOM     27  C   UNL     1       0.695  12.065  -2.005  0.00  0.00    +0.345 C 
ATOM     28  O   UNL     1       1.559  12.900  -1.815  0.00  0.00    -0.245 OA
BRANCH  27  29
ATOM     29  O   UNL     1      -0.603  12.432  -2.031  0.00  0.00    -0.461 OA
BRANCH  29  31
ATOM     30  C   UNL     1      -2.403  14.038  -1.891  0.00  0.00    +0.048 C 
ATOM     31  C   UNL     1      -0.891  13.816  -1.828  0.00  0.00    +0.229 C 
ENDBRANCH  29  31
ENDBRANCH  27  29
ENDBRANCH   1  27
BRANCH   2  32
ATOM     32  N   UNL     1       3.493  11.083  -1.980  0.00  0.00    -0.308 N 
ATOM     33  H   UNL     1       3.401  12.047  -1.924  0.00  0.00    +0.153 HD
BRANCH  32  34
ATOM     34  C   UNL     1       4.755  10.493  -1.860  0.00  0.00    +0.032 A 
ATOM     35  C   UNL     1       4.894   9.273  -1.212  0.00  0.00    +0.023 A 
ATOM     36  C   UNL     1       6.141   8.691  -1.098  0.00  0.00    +0.002 A 
ATOM     37  C   UNL     1       7.252   9.327  -1.620  0.00  0.00    +0.000 A 
ATOM     38  C   UNL     1       7.118  10.545  -2.262  0.00  0.00    +0.002 A 
ATOM     39  C   UNL     1       5.873  11.130  -2.383  0.00  0.00    +0.023 A 
ENDBRANCH  32  34
ENDBRANCH   2  32
TORSDOF 8
