REMARK  Name = ZINC40826708
REMARK  11 active torsions:
REMARK  status: ('A' for Active; 'I' for Inactive)
REMARK    1  A    between atoms: C_1  and  C_2
REMARK    2  A    between atoms: C_6  and  C_12
REMARK    3  A    between atoms: C_10  and  C_11
REMARK    4  A    between atoms: C_12  and  C_13
REMARK    5  A    between atoms: N_15  and  N_16
REMARK    6  A    between atoms: C_23  and  C_39
REMARK    7  A    between atoms: C_24  and  C_26
REMARK    8  A    between atoms: N_28  and  C_29
REMARK    9  A    between atoms: C_34  and  C_35
REMARK   10  A    between atoms: C_35  and  O_37
REMARK   11  A    between atoms: O_37  and  C_38
REMARK                            x       y       z     vdW  Elec       q    Type
REMARK                         _______ _______ _______ _____ _____    ______ ____
ROOT
ATOM      1  N   UNL     1       3.067  -6.958  -2.292  0.00  0.00    -0.184 NA
ATOM      2  C   UNL     1       3.314  -7.930  -3.115  0.00  0.00    +0.070 C 
ATOM      3  C   UNL     1       2.217  -8.816  -3.686  0.00  0.00    +0.058 C 
ATOM      4  C   UNL     1       2.711 -10.266  -3.664  0.00  0.00    +0.014 C 
ATOM      5  C   UNL     1       3.913 -10.441  -4.596  0.00  0.00    +0.075 C 
ATOM      6  C   UNL     1       4.964  -9.415  -4.255  0.00  0.00    +0.115 A 
ATOM      7  C   UNL     1       4.684  -8.253  -3.573  0.00  0.00    +0.042 A 
ATOM      8  C   UNL     1       5.884  -7.544  -3.436  0.00  0.00    +0.009 A 
ATOM      9  C   UNL     1       6.846  -8.300  -4.047  0.00  0.00    +0.193 A 
ATOM     10  O   UNL     1       6.267  -9.428  -4.527  0.00  0.00    -0.454 OA
ATOM     11  C   UNL     1       6.076  -6.215  -2.753  0.00  0.00    +0.048 C 
ENDROOT
BRANCH   1  14
ATOM     12  C   UNL     1       1.493  -5.688  -1.036  0.00  0.00    +0.237 C 
ATOM     13  O   UNL     1       2.402  -5.006  -0.612  0.00  0.00    -0.274 OA
ATOM     14  N   UNL     1       1.750  -6.697  -1.891  0.00  0.00    -0.206 N 
ATOM     15  H   UNL     1       1.023  -7.243  -2.230  0.00  0.00    +0.177 HD
BRANCH  12  16
ATOM     16  C   UNL     1       0.076  -5.407  -0.606  0.00  0.00    +0.136 C 
BRANCH  16  22
ATOM     17  C   UNL     1      -0.064   1.452   0.007  0.00  0.00    +0.044 C 
ATOM     18  C   UNL     1      -0.032  -0.054   0.009  0.00  0.00    -0.044 A 
ATOM     19  C   UNL     1      -0.031  -0.743  -1.196  0.00  0.00    +0.004 A 
ATOM     20  C   UNL     1      -0.002  -2.110  -1.212  0.00  0.00    +0.012 A 
ATOM     21  C   UNL     1       0.027  -2.814  -0.009  0.00  0.00    +0.024 A 
ATOM     22  C   UNL     1       0.063  -4.238   0.345  0.00  0.00    +0.007 A 
ATOM     23  C   UNL     1       0.080  -4.290   1.684  0.00  0.00    +0.200 A 
ATOM     24  O   UNL     1       0.059  -3.046   2.196  0.00  0.00    -0.462 OA
ATOM     25  C   UNL     1       0.027  -2.123   1.214  0.00  0.00    +0.138 A 
ATOM     26  C   UNL     1       0.003  -0.734   1.208  0.00  0.00    -0.005 A 
ATOM     27  C   UNL     1       0.008   0.028   2.508  0.00  0.00    +0.048 C 
ENDBRANCH  16  22
ENDBRANCH  12  16
ENDBRANCH   1  14
BRANCH   9  28
ATOM     28  C   UNL     1       8.267  -7.954  -4.154  0.00  0.00    +0.284 C 
ATOM     29  O   UNL     1       8.678  -6.914  -3.674  0.00  0.00    -0.266 OA
ATOM     30  N   UNL     1       9.118  -8.787  -4.785  0.00  0.00    -0.278 N 
ATOM     31  H   UNL     1       8.804  -9.645  -5.110  0.00  0.00    +0.155 HD
BRANCH  30  32
ATOM     32  C   UNL     1      10.446  -8.417  -4.968  0.00  0.00    +0.048 A 
ATOM     33  C   UNL     1      11.103  -7.670  -3.999  0.00  0.00    +0.024 A 
ATOM     34  C   UNL     1      12.421  -7.304  -4.183  0.00  0.00    +0.002 A 
ATOM     35  C   UNL     1      13.099  -7.676  -5.334  0.00  0.00    +0.001 A 
ATOM     36  C   UNL     1      12.464  -8.417  -6.307  0.00  0.00    +0.017 A 
ATOM     37  C   UNL     1      11.131  -8.800  -6.132  0.00  0.00    +0.080 A 
BRANCH  37  38
ATOM     38  C   UNL     1      10.447  -9.597  -7.166  0.00  0.00    +0.341 C 
ATOM     39  O   UNL     1       9.262  -9.843  -7.059  0.00  0.00    -0.245 OA
BRANCH  38  40
ATOM     40  O   UNL     1      11.137 -10.054  -8.230  0.00  0.00    -0.464 OA
ATOM     41  C   UNL     1      10.410 -10.819  -9.194  0.00  0.00    +0.280 C 
ENDBRANCH  38  40
ENDBRANCH  37  38
ENDBRANCH  30  32
ENDBRANCH   9  28
TORSDOF 7
