REMARK  Name = ZINC67373600
REMARK  7 active torsions:
REMARK  status: ('A' for Active; 'I' for Inactive)
REMARK    1  A    between atoms: C_6  and  C_7
REMARK    2  A    between atoms: C_11  and  N_13
REMARK    3  A    between atoms: N_13  and  C_14
REMARK    4  A    between atoms: C_14  and  C_15
REMARK    5  A    between atoms: C_19  and  O_21
REMARK    6  A    between atoms: O_21  and  C_22
REMARK    7  A    between atoms: C_22  and  C_23
REMARK                            x       y       z     vdW  Elec       q    Type
REMARK                         _______ _______ _______ _____ _____    ______ ____
ROOT
ATOM      1  C   UNL     1      -1.261  -0.784   0.010  0.00  0.00    +0.162 A 
ATOM      2  N   UNL     1      -1.202  -2.107   0.008  0.00  0.00    -0.232 NA
ATOM      3  C   UNL     1      -2.307  -2.839   0.016  0.00  0.00    +0.050 A 
ATOM      4  C   UNL     1      -3.534  -2.204   0.026  0.00  0.00    +0.014 A 
ATOM      5  C   UNL     1      -3.565  -0.808   0.028  0.00  0.00    +0.126 A 
ATOM      6  N   UNL     1      -2.418  -0.138   0.025  0.00  0.00    -0.213 NA
ATOM      7  C   UNL     1      -4.644  -3.229   0.033  0.00  0.00    +0.041 C 
ATOM      8  C   UNL     1      -3.977  -4.549  -0.410  0.00  0.00    +0.011 C 
ATOM      9  C   UNL     1      -2.508  -4.338   0.016  0.00  0.00    +0.056 C 
ENDROOT
BRANCH   1  15
ATOM     10  C   UNL     1      -0.017   1.393   0.010  0.00  0.00    +0.031 A 
ATOM     11  C   UNL     1       1.181   2.079   0.002  0.00  0.00    +0.111 A 
ATOM     12  N   UNL     1       2.331   1.433  -0.013  0.00  0.00    -0.263 NA
ATOM     13  C   UNL     1       2.393   0.116  -0.020  0.00  0.00    +0.111 A 
ATOM     14  C   UNL     1       1.242  -0.647  -0.013  0.00  0.00    +0.031 A 
ATOM     15  C   UNL     1       0.002  -0.004   0.002  0.00  0.00    +0.022 A 
ENDBRANCH   1  15
BRANCH   5  16
ATOM     16  N   UNL     1      -4.775  -0.132   0.038  0.00  0.00    -0.325 N 
ATOM     17  H   UNL     1      -5.608  -0.628   0.043  0.00  0.00    +0.148 HD
BRANCH  16  18
ATOM     18  C   UNL     1      -4.795   1.333   0.040  0.00  0.00    +0.138 C 
BRANCH  18  19
ATOM     19  C   UNL     1      -6.222   1.816   0.051  0.00  0.00    -0.024 A 
ATOM     20  C   UNL     1      -6.906   2.039  -1.136  0.00  0.00    +0.025 A 
ATOM     21  C   UNL     1      -8.213   2.481  -1.091  0.00  0.00    +0.115 A 
ATOM     22  N   UNL     1      -8.816   2.692   0.064  0.00  0.00    -0.221 NA
ATOM     23  C   UNL     1      -8.198   2.490   1.216  0.00  0.00    +0.215 A 
ATOM     24  C   UNL     1      -6.884   2.041   1.246  0.00  0.00    +0.072 A 
BRANCH  23  25
ATOM     25  O   UNL     1      -8.856   2.720   2.380  0.00  0.00    -0.476 OA
BRANCH  25  26
ATOM     26  C   UNL     1     -10.207   3.176   2.283  0.00  0.00    +0.234 C 
BRANCH  26  27
ATOM     27  C   UNL     1     -10.779   3.378   3.687  0.00  0.00    +0.027 C 
ATOM     28  C   UNL     1     -11.957   2.496   4.104  0.00  0.00    +0.007 C 
ATOM     29  C   UNL     1     -12.182   3.978   3.799  0.00  0.00    +0.007 C 
ENDBRANCH  26  27
ENDBRANCH  25  26
ENDBRANCH  23  25
ENDBRANCH  18  19
ENDBRANCH  16  18
ENDBRANCH   5  16
TORSDOF 7
