REMARK  Name = ZINC09329001
REMARK  18 active torsions:
REMARK  status: ('A' for Active; 'I' for Inactive)
REMARK    1  A    between atoms: C_1  and  C_2
REMARK    2  A    between atoms: C_2  and  N_72
REMARK    3  A    between atoms: C_3  and  C_4
REMARK    4  A    between atoms: C_3  and  N_72
REMARK    5  A    between atoms: C_5  and  C_6
REMARK    6  A    between atoms: C_5  and  N_72
REMARK    7  A    between atoms: C_6  and  N_7
REMARK    8  A    between atoms: C_8  and  C_27
REMARK    9  A    between atoms: C_11  and  C_12
REMARK   10  A    between atoms: C_11  and  O_22
REMARK   11  A    between atoms: C_15  and  O_18
REMARK   12  A    between atoms: O_18  and  C_19
REMARK   13  A    between atoms: C_19  and  C_20
REMARK   14  A    between atoms: C_19  and  C_21
REMARK   15  A    between atoms: C_31  and  O_35
REMARK   16  A    between atoms: C_32  and  O_33
REMARK   17  A    between atoms: O_33  and  C_34
REMARK   18  A    between atoms: O_35  and  C_36
REMARK                            x       y       z     vdW  Elec       q    Type
REMARK                         _______ _______ _______ _____ _____    ______ ____
ROOT
ATOM      1  N   UNL     1      -1.358   2.769   6.843  0.00  0.00    -0.285 N 
ATOM      2  C   UNL     1      -2.006   2.143   5.687  0.00  0.00    +0.148 C 
ATOM      3  C   UNL     1      -3.104   1.258   6.232  0.00  0.00    +0.071 C 
ATOM      4  C   UNL     1      -3.976   0.474   5.502  0.00  0.00    +0.133 C 
ATOM      5  C   UNL     1      -3.057   1.395   7.628  0.00  0.00    +0.249 C 
ATOM      6  O   UNL     1      -3.788   0.835   8.425  0.00  0.00    -0.282 OA
ATOM      7  C   UNL     1      -1.960   2.342   7.966  0.00  0.00    +0.288 C 
ATOM      8  O   UNL     1      -1.654   2.679   9.091  0.00  0.00    -0.266 OA
ENDROOT
BRANCH   4   9
ATOM      9  C   UNL     1      -4.890  -0.448   6.194  0.00  0.00    +0.017 A 
ATOM     10  C   UNL     1      -4.393  -1.353   7.139  0.00  0.00    +0.015 A 
ATOM     11  C   UNL     1      -5.253  -2.210   7.787  0.00  0.00    +0.046 A 
ATOM     12  C   UNL     1      -6.613  -2.185   7.496  0.00  0.00    +0.121 A 
ATOM     13  C   UNL     1      -7.111  -1.292   6.554  0.00  0.00    +0.046 A 
ATOM     14  C   UNL     1      -6.260  -0.427   5.904  0.00  0.00    +0.015 A 
BRANCH  12  15
ATOM     15  O   UNL     1      -7.456  -3.036   8.134  0.00  0.00    -0.489 OA
BRANCH  15  16
ATOM     16  C   UNL     1      -6.891  -3.872   9.146  0.00  0.00    +0.167 C 
ATOM     17  C   UNL     1      -6.809  -3.095  10.462  0.00  0.00    +0.051 C 
ATOM     18  C   UNL     1      -7.773  -5.107   9.338  0.00  0.00    +0.051 C 
ENDBRANCH  15  16
ENDBRANCH  12  15
ENDBRANCH   4   9
BRANCH   2  19
ATOM     19  C   UNL     1      -1.007   1.314   4.922  0.00  0.00    +0.023 A 
ATOM     20  C   UNL     1      -0.956  -0.055   5.110  0.00  0.00    +0.009 A 
ATOM     21  C   UNL     1      -0.041  -0.818   4.409  0.00  0.00    +0.004 A 
ATOM     22  C   UNL     1       0.824  -0.216   3.513  0.00  0.00    +0.049 A 
ATOM     23  C   UNL     1       0.781   1.155   3.324  0.00  0.00    +0.162 A 
ATOM     24  C   UNL     1      -0.140   1.924   4.030  0.00  0.00    +0.167 A 
BRANCH  24  25
ATOM     25  O   UNL     1      -0.189   3.270   3.844  0.00  0.00    -0.491 OA
ATOM     26  C   UNL     1      -0.974   3.745   2.748  0.00  0.00    +0.277 C 
ENDBRANCH  24  25
BRANCH  23  27
ATOM     27  O   UNL     1       1.635   1.749   2.448  0.00  0.00    -0.491 OA
ATOM     28  C   UNL     1       2.553   0.898   1.759  0.00  0.00    +0.277 C 
ENDBRANCH  23  27
ENDBRANCH   2  19
BRANCH   4  29
ATOM     29  O   UNL     1      -3.990   0.554   4.154  0.00  0.00    -0.506 OA
ATOM     30  H   UNL     1      -4.676  -0.076   3.790  0.00  0.00    +0.292 HD
ENDBRANCH   4  29
BRANCH   1  31
ATOM     31  C   UNL     1      -0.237   3.710   6.784  0.00  0.00    +0.090 C 
BRANCH  31  32
ATOM     32  C   UNL     1      -0.775   5.139   6.687  0.00  0.00    -0.060 C 
BRANCH  32  33
ATOM     33  N   UNL     1       0.362   6.080   6.773  0.00  0.00    +0.380 N 
ATOM     34  H   UNL     1       1.008   5.756   7.503  0.00  0.00    -0.082 HD
BRANCH  33  36
ATOM     35  C   UNL     1       2.371   6.926   5.663  0.00  0.00    -0.017 C 
ATOM     36  C   UNL     1       1.079   6.125   5.482  0.00  0.00    -0.082 C 
ENDBRANCH  33  36
BRANCH  33  37
ATOM     37  C   UNL     1      -0.125   7.430   7.128  0.00  0.00    -0.082 C 
ATOM     38  C   UNL     1      -0.435   7.461   8.626  0.00  0.00    -0.017 C 
ENDBRANCH  33  37
ENDBRANCH  32  33
ENDBRANCH  31  32
ENDBRANCH   1  31
TORSDOF 12
