REMARK  Name = ZINC35069175
REMARK  19 active torsions:
REMARK  status: ('A' for Active; 'I' for Inactive)
REMARK    1  A    between atoms: C_1  and  C_2
REMARK    2  A    between atoms: C_5  and  N_9
REMARK    3  A    between atoms: C_7  and  C_8
REMARK    4  A    between atoms: C_19  and  C_20
REMARK    5  A    between atoms: C_20  and  C_22
REMARK    6  A    between atoms: C_20  and  N_23
REMARK    7  A    between atoms: N_23  and  C_24
REMARK    8  A    between atoms: C_24  and  C_25
REMARK    9  A    between atoms: C_25  and  N_26
REMARK   10  A    between atoms: N_26  and  C_27
REMARK   11  A    between atoms: N_26  and  C_28
REMARK   12  A    between atoms: C_29  and  C_31
REMARK   13  A    between atoms: C_31  and  C_32
REMARK   14  A    between atoms: C_32  and  C_34
REMARK   15  A    between atoms: C_32  and  C_35
REMARK   16  A    between atoms: C_35  and  C_36
REMARK   17  A    between atoms: C_36  and  C_37
REMARK   18  A    between atoms: C_36  and  C_38
REMARK   19  A    between atoms: C_36  and  C_39
REMARK                            x       y       z     vdW  Elec       q    Type
REMARK                         _______ _______ _______ _____ _____    ______ ____
ROOT
ATOM      1  N   UNL     1       0.772  -6.771  -1.104  0.00  0.00    -0.263 N 
ATOM      2  C   UNL     1       1.404  -7.488  -0.146  0.00  0.00    +0.266 A 
ATOM      3  O   UNL     1       0.826  -8.361   0.476  0.00  0.00    -0.267 OA
ATOM      4  C   UNL     1       2.816  -7.173   0.115  0.00  0.00    +0.065 A 
ATOM      5  C   UNL     1       3.557  -7.853   1.080  0.00  0.00    +0.015 A 
ATOM      6  C   UNL     1       4.877  -7.517   1.284  0.00  0.00    +0.001 A 
ATOM      7  C   UNL     1       5.473  -6.509   0.536  0.00  0.00    +0.002 A 
ATOM      8  C   UNL     1       4.759  -5.825  -0.422  0.00  0.00    +0.028 A 
ATOM      9  C   UNL     1       3.419  -6.148  -0.647  0.00  0.00    +0.078 A 
ATOM     10  N   UNL     1       2.679  -5.500  -1.581  0.00  0.00    -0.231 NA
ATOM     11  C   UNL     1       1.435  -5.804  -1.794  0.00  0.00    +0.138 A 
ENDROOT
BRANCH   1  16
ATOM     12  C   UNL     1      -4.680  -7.827  -2.269  0.00  0.00    +0.044 C 
ATOM     13  C   UNL     1      -3.232  -7.547  -1.960  0.00  0.00    -0.047 A 
ATOM     14  C   UNL     1      -2.268  -8.493  -2.254  0.00  0.00    +0.005 A 
ATOM     15  C   UNL     1      -0.940  -8.239  -1.972  0.00  0.00    +0.026 A 
ATOM     16  C   UNL     1      -0.573  -7.032  -1.392  0.00  0.00    +0.051 A 
ATOM     17  C   UNL     1      -1.544  -6.084  -1.097  0.00  0.00    +0.030 A 
ATOM     18  C   UNL     1      -2.870  -6.341  -1.387  0.00  0.00    -0.046 A 
ATOM     19  C   UNL     1      -3.923  -5.310  -1.074  0.00  0.00    +0.044 C 
ENDBRANCH   1  16
BRANCH  11  20
ATOM     20  C   UNL     1       0.684  -5.041  -2.855  0.00  0.00    +0.139 C 
ATOM     21  C   UNL     1       1.455  -3.769  -3.211  0.00  0.00    +0.036 C 
BRANCH  20  22
ATOM     22  N   UNL     1       0.543  -5.877  -4.050  0.00  0.00    -0.293 N 
ATOM     23  C   UNL     1      -0.675  -6.083  -4.588  0.00  0.00    +0.216 C 
ATOM     24  O   UNL     1      -1.644  -5.511  -4.135  0.00  0.00    -0.276 OA
BRANCH  22  25
ATOM     25  C   UNL     1       1.726  -6.489  -4.660  0.00  0.00    +0.090 C 
BRANCH  25  26
ATOM     26  C   UNL     1       1.888  -7.917  -4.137  0.00  0.00    -0.060 C 
BRANCH  26  27
ATOM     27  N   UNL     1       3.130  -8.495  -4.668  0.00  0.00    +0.377 N 
ATOM     28  C   UNL     1       4.282  -7.754  -4.136  0.00  0.00    -0.097 C 
ATOM     29  C   UNL     1       3.227  -9.904  -4.264  0.00  0.00    -0.097 C 
ATOM     30  H   UNL     1       3.126  -8.433  -5.675  0.00  0.00    -0.083 HD
ENDBRANCH  26  27
ENDBRANCH  25  26
ENDBRANCH  22  25
BRANCH  23  31
ATOM     31  C   UNL     1      -0.835  -7.026  -5.753  0.00  0.00    +0.099 C 
BRANCH  31  32
ATOM     32  C   UNL     1      -2.273  -6.959  -6.271  0.00  0.00    -0.005 C 
ATOM     33  C   UNL     1      -3.221  -7.536  -5.218  0.00  0.00    +0.008 C 
BRANCH  32  34
ATOM     34  C   UNL     1      -2.389  -7.772  -7.562  0.00  0.00    +0.010 C 
BRANCH  34  35
ATOM     35  C   UNL     1      -3.451  -7.143  -8.466  0.00  0.00    -0.037 C 
ATOM     36  C   UNL     1      -3.084  -5.685  -8.747  0.00  0.00    +0.010 C 
ATOM     37  C   UNL     1      -3.519  -7.915  -9.785  0.00  0.00    +0.010 C 
ATOM     38  C   UNL     1      -4.813  -7.202  -7.770  0.00  0.00    +0.010 C 
ENDBRANCH  34  35
ENDBRANCH  32  34
ENDBRANCH  31  32
ENDBRANCH  23  31
ENDBRANCH  20  22
ENDBRANCH  11  20
TORSDOF 10
