REMARK  Name = ZINC09629834
REMARK  13 active torsions:
REMARK  status: ('A' for Active; 'I' for Inactive)
REMARK    1  A    between atoms: C_1  and  C_2
REMARK    2  A    between atoms: C_2  and  O_3
REMARK    3  A    between atoms: O_3  and  C_4
REMARK    4  A    between atoms: C_4  and  C_6
REMARK    5  A    between atoms: C_10  and  N_11
REMARK    6  A    between atoms: C_12  and  C_14
REMARK    7  A    between atoms: C_14  and  C_15
REMARK    8  A    between atoms: C_15  and  S_16
REMARK    9  A    between atoms: S_16  and  C_19
REMARK   10  A    between atoms: C_22  and  C_25
REMARK   11  A    between atoms: C_29  and  C_30
REMARK   12  A    between atoms: C_29  and  C_31
REMARK   13  A    between atoms: C_29  and  N_62
REMARK                            x       y       z     vdW  Elec       q    Type
REMARK                         _______ _______ _______ _____ _____    ______ ____
ROOT
ATOM      1  C   UNL     1       3.638   1.751  -0.029  0.00  0.00    +0.091 A 
ATOM      2  C   UNL     1       4.746   0.814  -0.038  0.00  0.00    -0.025 A 
ATOM      3  C   UNL     1       4.398  -0.493  -0.043  0.00  0.00    -0.021 A 
ATOM      4  S   UNL     1       2.630  -0.489  -0.026  0.00  0.00    -0.079 S 
ATOM      5  C   UNL     1       2.353   1.222  -0.014  0.00  0.00    +0.086 A 
ATOM      6  C   UNL     1       5.333  -1.661  -0.060  0.00  0.00    -0.035 C 
ATOM      7  C   UNL     1       7.045  -0.003   0.377  0.00  0.00    -0.073 C 
ATOM      8  C   UNL     1       6.217   1.214  -0.048  0.00  0.00    +0.018 C 
ATOM      9  N   UNL     1       6.673  -1.164  -0.458  0.00  0.00    +0.384 N 
ATOM     10  H   UNL     1       6.643  -0.873  -1.442  0.00  0.00    -0.081 HD
ENDROOT
BRANCH   5  11
ATOM     11  N   UNL     1       1.143   1.898   0.001  0.00  0.00    -0.279 N 
ATOM     12  C   UNL     1      -0.014   1.209   0.009  0.00  0.00    +0.219 C 
ATOM     13  O   UNL     1       0.002  -0.004   0.002  0.00  0.00    -0.275 OA
ATOM     14  H   UNL     1       1.130   2.868   0.007  0.00  0.00    +0.155 HD
BRANCH  12  15
ATOM     15  C   UNL     1      -1.330   1.944   0.019  0.00  0.00    +0.119 C 
BRANCH  15  16
ATOM     16  C   UNL     1      -2.479   0.934   0.019  0.00  0.00    +0.181 C 
BRANCH  16  17
ATOM     17  S   UNL     1      -4.062   1.820   0.031  0.00  0.00    -0.003 S 
ATOM     18  O   UNL     1      -4.237   2.493   1.270  0.00  0.00    -0.169 OA
ATOM     19  O   UNL     1      -4.248   2.507  -1.199  0.00  0.00    -0.169 OA
BRANCH  17  20
ATOM     20  C   UNL     1      -5.288   0.555   0.030  0.00  0.00    +0.088 A 
ATOM     21  C   UNL     1      -5.779   0.069  -1.167  0.00  0.00    +0.027 A 
ATOM     22  C   UNL     1      -6.738  -0.926  -1.168  0.00  0.00    +0.005 A 
ATOM     23  C   UNL     1      -7.213  -1.429   0.029  0.00  0.00    -0.050 A 
ATOM     24  C   UNL     1      -6.726  -0.940   1.226  0.00  0.00    +0.005 A 
ATOM     25  C   UNL     1      -5.764   0.052   1.227  0.00  0.00    +0.027 A 
ATOM     26  C   UNL     1      -8.262  -2.511   0.028  0.00  0.00    +0.044 C 
ENDBRANCH  17  20
ENDBRANCH  16  17
ENDBRANCH  15  16
ENDBRANCH  12  15
ENDBRANCH   5  11
BRANCH   9  27
ATOM     27  C   UNL     1       7.677  -2.239  -0.305  0.00  0.00    -0.074 C 
ATOM     28  C   UNL     1       7.737  -2.713   1.149  0.00  0.00    -0.014 C 
ATOM     29  C   UNL     1       7.291  -3.412  -1.208  0.00  0.00    -0.014 C 
ENDBRANCH   9  27
BRANCH   1  30
ATOM     30  C   UNL     1       3.865   3.197  -0.031  0.00  0.00    +0.342 C 
ATOM     31  O   UNL     1       3.972   3.798   1.021  0.00  0.00    -0.245 OA
BRANCH  30  32
ATOM     32  O   UNL     1       3.955   3.864  -1.200  0.00  0.00    -0.461 OA
BRANCH  32  34
ATOM     33  C   UNL     1       4.254   5.875  -2.541  0.00  0.00    +0.048 C 
ATOM     34  C   UNL     1       4.181   5.296  -1.127  0.00  0.00    +0.229 C 
ENDBRANCH  32  34
ENDBRANCH  30  32
ENDBRANCH   1  30
TORSDOF 9
