REMARK  Name = ZINC08500925
REMARK  11 active torsions:
REMARK  status: ('A' for Active; 'I' for Inactive)
REMARK    1  A    between atoms: C_1  and  C_2
REMARK    2  A    between atoms: C_2  and  C_3
REMARK    3  A    between atoms: C_3  and  C_4
REMARK    4  A    between atoms: C_4  and  C_5
REMARK    5  A    between atoms: C_5  and  C_6
REMARK    6  A    between atoms: C_6  and  C_8
REMARK    7  A    between atoms: C_6  and  N_9
REMARK    8  A    between atoms: C_10  and  C_12
REMARK    9  A    between atoms: C_12  and  N_13
REMARK   10  A    between atoms: C_16  and  C_20
REMARK   11  A    between atoms: C_16  and  C_21
REMARK                            x       y       z     vdW  Elec       q    Type
REMARK                         _______ _______ _______ _____ _____    ______ ____
ROOT
ATOM      1  N   UNL     1      -0.459  -7.660   2.345  0.00  0.00    -0.215 N 
ATOM      2  C   UNL     1      -1.142  -8.808   2.518  0.00  0.00    +0.251 C 
ATOM      3  O   UNL     1      -2.296  -8.928   2.871  0.00  0.00    -0.272 OA
ATOM      4  C   UNL     1      -0.169  -9.919   2.177  0.00  0.00    +0.135 C 
ATOM      5  N   UNL     1       1.065  -9.201   1.819  0.00  0.00    -0.281 N 
ATOM      6  C   UNL     1       0.797  -7.888   1.942  0.00  0.00    +0.310 C 
ATOM      7  O   UNL     1       1.605  -7.009   1.716  0.00  0.00    -0.252 OA
ATOM      8  C   UNL     1       0.065 -10.820   3.392  0.00  0.00    +0.047 C 
ATOM      9  H   UNL     1       1.907  -9.596   1.544  0.00  0.00    +0.152 HD
ENDROOT
BRANCH   4  10
ATOM     10  C   UNL     1      -0.673 -10.725   1.007  0.00  0.00    -0.015 A 
ATOM     11  C   UNL     1      -2.032 -10.852   0.790  0.00  0.00    +0.007 A 
ATOM     12  C   UNL     1      -2.494 -11.591  -0.283  0.00  0.00    +0.020 A 
ATOM     13  C   UNL     1      -1.596 -12.203  -1.139  0.00  0.00    +0.041 A 
ATOM     14  C   UNL     1      -0.236 -12.075  -0.921  0.00  0.00    +0.020 A 
ATOM     15  C   UNL     1       0.225 -11.331   0.149  0.00  0.00    +0.007 A 
ATOM     16 CL   UNL     1      -2.176 -13.131  -2.487  0.00  0.00    -0.084 Cl
ENDBRANCH   4  10
BRANCH   1  17
ATOM     17  C   UNL     1      -1.022  -6.325   2.565  0.00  0.00    +0.213 C 
BRANCH  17  19
ATOM     18  N   UNL     1      -2.225  -4.610   1.250  0.00  0.00    -0.311 N 
ATOM     19  C   UNL     1      -1.641  -5.824   1.286  0.00  0.00    +0.231 C 
ATOM     20  O   UNL     1      -1.615  -6.514   0.289  0.00  0.00    -0.274 OA
ATOM     21  H   UNL     1      -2.246  -4.058   2.048  0.00  0.00    +0.149 HD
BRANCH  18  22
ATOM     22  C   UNL     1      -2.827  -4.123   0.007  0.00  0.00    +0.070 C 
ATOM     23  C   UNL     1      -4.258  -4.652  -0.108  0.00  0.00    +0.028 C 
BRANCH  22  24
ATOM     24  C   UNL     1      -2.848  -2.593   0.015  0.00  0.00    +0.022 C 
BRANCH  24  25
ATOM     25  C   UNL     1      -1.413  -2.063   0.004  0.00  0.00    +0.002 C 
BRANCH  25  26
ATOM     26  C   UNL     1      -1.433  -0.534   0.013  0.00  0.00    -0.000 C 
BRANCH  26  28
ATOM     27  C   UNL     1      -0.019   1.526   0.010  0.00  0.00    +0.004 C 
ATOM     28  C   UNL     1       0.002  -0.004   0.002  0.00  0.00    -0.003 C 
ENDBRANCH  26  28
ENDBRANCH  25  26
ENDBRANCH  24  25
ENDBRANCH  22  24
ENDBRANCH  18  22
ENDBRANCH  17  19
ENDBRANCH   1  17
TORSDOF 8
