REMARK  Name = ZINC10455546
REMARK  8 active torsions:
REMARK  status: ('A' for Active; 'I' for Inactive)
REMARK    1  A    between atoms: C_4  and  N_7
REMARK    2  A    between atoms: C_12  and  C_13
REMARK    3  A    between atoms: C_12  and  N_75
REMARK    4  A    between atoms: C_13  and  N_14
REMARK    5  A    between atoms: C_15  and  C_17
REMARK    6  A    between atoms: C_17  and  C_19
REMARK    7  A    between atoms: N_21  and  C_28
REMARK    8  A    between atoms: C_28  and  C_29
REMARK                            x       y       z     vdW  Elec       q    Type
REMARK                         _______ _______ _______ _____ _____    ______ ____
ROOT
ATOM      1  C   UNL     1      -1.316   1.938   0.019  0.00  0.00    +0.249 C 
ATOM      2  O   UNL     1      -1.333   3.153   0.025  0.00  0.00    -0.282 OA
ENDROOT
BRANCH   1   3
ATOM      3  C   UNL     1      -2.572   1.190   0.021  0.00  0.00    +0.052 A 
ATOM      4  C   UNL     1      -2.720  -0.185   0.014  0.00  0.00    +0.099 A 
ATOM      5  N   UNL     1      -4.029  -0.497   0.019  0.00  0.00    -0.337 N 
ATOM      6  C   UNL     1      -4.805   0.645   0.029  0.00  0.00    +0.050 A 
ATOM      7  C   UNL     1      -3.938   1.750   0.036  0.00  0.00    +0.011 A 
ATOM      8  C   UNL     1      -4.452   3.042   0.040  0.00  0.00    +0.011 A 
ATOM      9  C   UNL     1      -5.818   3.234   0.047  0.00  0.00    +0.001 A 
ATOM     10  C   UNL     1      -6.676   2.145   0.046  0.00  0.00    +0.002 A 
ATOM     11  C   UNL     1      -6.179   0.859   0.037  0.00  0.00    +0.026 A 
BRANCH   5  12
ATOM     12  C   UNL     1      -4.559  -1.863   0.016  0.00  0.00    +0.217 C 
BRANCH  12  13
ATOM     13  C   UNL     1      -4.863  -2.280  -1.400  0.00  0.00    +0.235 C 
ATOM     14  O   UNL     1      -4.658  -1.512  -2.316  0.00  0.00    -0.274 OA
ATOM     15  N   UNL     1      -5.363  -3.507  -1.649  0.00  0.00    -0.300 N 
ATOM     16  C   UNL     1      -5.591  -4.401  -0.536  0.00  0.00    +0.108 C 
ATOM     17  C   UNL     1      -4.320  -5.231  -0.260  0.00  0.00    +0.019 C 
ATOM     18  C   UNL     1      -4.115  -6.220  -1.329  0.00  0.00    +0.002 C 
ATOM     19  C   UNL     1      -3.880  -5.615  -2.709  0.00  0.00    +0.002 C 
ATOM     20  C   UNL     1      -5.210  -5.325  -3.361  0.00  0.00    +0.019 C 
ATOM     21  C   UNL     1      -5.650  -3.884  -3.047  0.00  0.00    +0.108 C 
ENDBRANCH  12  13
ENDBRANCH   5  12
ENDBRANCH   1   3
BRANCH   1  23
ATOM     22  N   UNL     1       1.143   1.899   0.001  0.00  0.00    -0.310 N 
ATOM     23  C   UNL     1      -0.014   1.210   0.009  0.00  0.00    +0.284 C 
ATOM     24  O   UNL     1       0.002  -0.004   0.002  0.00  0.00    -0.267 OA
ATOM     25  H   UNL     1       1.130   2.869   0.007  0.00  0.00    +0.149 HD
BRANCH  22  26
ATOM     26  C   UNL     1       2.422   1.184  -0.015  0.00  0.00    +0.086 C 
BRANCH  26  27
ATOM     27  C   UNL     1       3.571   2.194  -0.020  0.00  0.00    -0.060 C 
BRANCH  27  33
ATOM     28  N   UNL     1       7.477   0.859   0.881  0.00  0.00    -0.333 N 
ATOM     29  C   UNL     1       7.275   1.606  -0.369  0.00  0.00    +0.086 C 
ATOM     30  C   UNL     1       5.970   2.400  -0.280  0.00  0.00    -0.060 C 
ATOM     31  C   UNL     1       5.055   0.730   1.213  0.00  0.00    -0.060 C 
ATOM     32  C   UNL     1       6.360  -0.064   1.125  0.00  0.00    +0.086 C 
ATOM     33  N   UNL     1       4.853   1.459  -0.057  0.00  0.00    +0.383 N 
ATOM     34  H   UNL     1       4.828   0.782  -0.829  0.00  0.00    -0.082 HD
BRANCH  28  38
ATOM     35  C   UNL     1      11.110  -1.174   0.835  0.00  0.00    +0.000 A 
ATOM     36  C   UNL     1      10.282  -1.265   1.939  0.00  0.00    +0.002 A 
ATOM     37  C   UNL     1       9.077  -0.592   1.958  0.00  0.00    +0.023 A 
ATOM     38  C   UNL     1       8.696   0.177   0.866  0.00  0.00    +0.030 A 
ATOM     39  C   UNL     1       9.527   0.262  -0.244  0.00  0.00    +0.023 A 
ATOM     40  C   UNL     1      10.733  -0.410  -0.254  0.00  0.00    +0.002 A 
ENDBRANCH  28  38
ENDBRANCH  27  33
ENDBRANCH  26  27
ENDBRANCH  22  26
ENDBRANCH   1  23
TORSDOF 8
