REMARK  Name = ZINC10086119
REMARK  8 active torsions:
REMARK  status: ('A' for Active; 'I' for Inactive)
REMARK    1  A    between atoms: C_1  and  C_2
REMARK    2  A    between atoms: C_2  and  C_3
REMARK    3  A    between atoms: C_2  and  C_4
REMARK    4  A    between atoms: C_9  and  N_10
REMARK    5  A    between atoms: C_20  and  S_21
REMARK    6  A    between atoms: S_21  and  C_22
REMARK    7  A    between atoms: C_22  and  C_23
REMARK    8  A    between atoms: N_28  and  C_31
REMARK                            x       y       z     vdW  Elec       q    Type
REMARK                         _______ _______ _______ _____ _____    ______ ____
ROOT
ATOM      1  N   UNL     1      -7.335  -4.095   5.602  0.00  0.00    -0.255 N 
ATOM      2  C   UNL     1      -8.145  -3.483   6.497  0.00  0.00    +0.267 A 
ATOM      3  O   UNL     1      -8.815  -4.126   7.284  0.00  0.00    -0.267 OA
ATOM      4  C   UNL     1      -8.183  -2.015   6.487  0.00  0.00    +0.065 A 
ATOM      5  C   UNL     1      -8.985  -1.293   7.370  0.00  0.00    +0.015 A 
ATOM      6  C   UNL     1      -8.983   0.074   7.317  0.00  0.00    +0.001 A 
ATOM      7  C   UNL     1      -8.193   0.748   6.395  0.00  0.00    +0.002 A 
ATOM      8  C   UNL     1      -7.398   0.065   5.518  0.00  0.00    +0.028 A 
ATOM      9  C   UNL     1      -7.378  -1.332   5.547  0.00  0.00    +0.079 A 
ATOM     10  N   UNL     1      -6.601  -2.048   4.700  0.00  0.00    -0.223 NA
ATOM     11  C   UNL     1      -6.587  -3.358   4.725  0.00  0.00    +0.177 A 
ENDROOT
BRANCH   1  17
ATOM     12  C   UNL     1      -8.128  -6.218   4.763  0.00  0.00    -0.021 A 
ATOM     13  C   UNL     1      -8.054  -7.597   4.737  0.00  0.00    +0.006 A 
ATOM     14  C   UNL     1      -7.119  -8.256   5.514  0.00  0.00    +0.000 A 
ATOM     15  C   UNL     1      -6.256  -7.537   6.321  0.00  0.00    +0.002 A 
ATOM     16  C   UNL     1      -6.322  -6.158   6.348  0.00  0.00    +0.026 A 
ATOM     17  C   UNL     1      -7.263  -5.493   5.572  0.00  0.00    +0.055 A 
BRANCH  12  19
ATOM     18  C   UNL     1      -8.904  -5.829   2.441  0.00  0.00    +0.012 C 
ATOM     19  C   UNL     1      -9.146  -5.501   3.915  0.00  0.00    +0.015 C 
ATOM     20  C   UNL     1     -10.552  -5.953   4.314  0.00  0.00    +0.012 C 
ENDBRANCH  12  19
ENDBRANCH   1  17
BRANCH  11  21
ATOM     21  S   UNL     1      -5.552  -4.209   3.582  0.00  0.00    -0.078 S 
BRANCH  21  22
ATOM     22  C   UNL     1      -4.827  -2.801   2.706  0.00  0.00    +0.173 C 
BRANCH  22  23
ATOM     23  C   UNL     1      -3.878  -3.303   1.648  0.00  0.00    +0.226 C 
ATOM     24  O   UNL     1      -3.708  -4.494   1.500  0.00  0.00    -0.275 OA
ATOM     25  N   UNL     1      -3.217  -2.426   0.865  0.00  0.00    -0.298 N 
ATOM     26  C   UNL     1      -2.287  -2.894  -0.173  0.00  0.00    +0.126 C 
ATOM     27  C   UNL     1      -0.954  -2.158   0.000  0.00  0.00    +0.125 C 
ATOM     28  N   UNL     1      -1.196  -0.709   0.010  0.00  0.00    -0.314 N 
ATOM     29  C   UNL     1      -2.030  -0.316   1.153  0.00  0.00    +0.125 C 
ATOM     30  C   UNL     1      -3.407  -0.977   1.028  0.00  0.00    +0.126 C 
BRANCH  28  31
ATOM     31  C   UNL     1       0.002  -0.004   0.002  0.00  0.00    +0.099 A 
ATOM     32  C   UNL     1      -0.017   1.387   0.010  0.00  0.00    +0.042 A 
ATOM     33  C   UNL     1       1.182   2.076   0.002  0.00  0.00    +0.005 A 
ATOM     34  C   UNL     1       2.365   1.348  -0.013  0.00  0.00    +0.018 A 
ATOM     35  C   UNL     1       2.310  -0.031  -0.020  0.00  0.00    +0.084 A 
ATOM     36  N   UNL     1       1.150  -0.741  -0.013  0.00  0.00    -0.350 N 
ATOM     37  H   UNL     1       1.139  -1.768  -0.018  0.00  0.00    +0.166 HD
ENDBRANCH  28  31
ENDBRANCH  22  23
ENDBRANCH  21  22
ENDBRANCH  11  21
TORSDOF 6
