REMARK  Name = ZINC17086036
REMARK  10 active torsions:
REMARK  status: ('A' for Active; 'I' for Inactive)
REMARK    1  A    between atoms: C_1  and  C_2
REMARK    2  A    between atoms: C_2  and  C_3
REMARK    3  A    between atoms: C_2  and  C_4
REMARK    4  A    between atoms: C_2  and  C_5
REMARK    5  A    between atoms: C_17  and  C_20
REMARK    6  A    between atoms: C_23  and  O_26
REMARK    7  A    between atoms: O_26  and  C_27
REMARK    8  A    between atoms: C_27  and  C_29
REMARK    9  A    between atoms: C_32  and  O_35
REMARK   10  A    between atoms: O_35  and  C_36
REMARK                            x       y       z     vdW  Elec       q    Type
REMARK                         _______ _______ _______ _____ _____    ______ ____
ROOT
ATOM      1  C   UNL     1      11.316  -5.886  -6.044  0.00  0.00    -0.000 C 
ATOM      2  C   UNL     1      11.601  -5.399  -7.468  0.00  0.00    +0.009 C 
ATOM      3  C   UNL     1      10.386  -4.646  -8.012  0.00  0.00    +0.037 C 
ATOM      4  C   UNL     1       9.150  -5.524  -7.850  0.00  0.00    -0.023 A 
ATOM      5  C   UNL     1       9.149  -6.566  -6.990  0.00  0.00    -0.004 A 
ATOM      6  S   UNL     1       7.533  -7.281  -7.139  0.00  0.00    -0.078 S 
ATOM      7  C   UNL     1       6.880  -6.223  -8.316  0.00  0.00    +0.080 A 
ATOM      8  C   UNL     1       7.914  -5.315  -8.587  0.00  0.00    +0.068 A 
ATOM      9  C   UNL     1       7.647  -4.247  -9.578  0.00  0.00    +0.248 C 
ATOM     10  O   UNL     1       8.526  -3.492  -9.948  0.00  0.00    -0.270 OA
ATOM     11  N   UNL     1       6.389  -4.148 -10.052  0.00  0.00    -0.289 N 
ATOM     12  C   UNL     1       5.250  -4.857  -9.477  0.00  0.00    +0.190 C 
ATOM     13  N   UNL     1       5.656  -6.166  -8.932  0.00  0.00    -0.316 N 
ATOM     14  C   UNL     1      10.273  -7.011  -6.106  0.00  0.00    +0.046 C 
ATOM     15  H   UNL     1       6.244  -3.488 -10.920  0.00  0.00    +0.151 HD
ATOM     16  H   UNL     1       4.988  -7.034  -9.031  0.00  0.00    +0.149 HD
ENDROOT
BRANCH  12  17
ATOM     17  C   UNL     1       4.657  -4.024  -8.370  0.00  0.00    -0.009 A 
ATOM     18  C   UNL     1       4.752  -2.645  -8.417  0.00  0.00    +0.010 A 
ATOM     19  C   UNL     1       4.211  -1.879  -7.403  0.00  0.00    +0.047 A 
ATOM     20  C   UNL     1       3.570  -2.495  -6.337  0.00  0.00    +0.132 A 
ATOM     21  C   UNL     1       3.481  -3.878  -6.290  0.00  0.00    +0.047 A 
ATOM     22  C   UNL     1       4.020  -4.639  -7.309  0.00  0.00    +0.010 A 
BRANCH  20  23
ATOM     23  O   UNL     1       3.037  -1.743  -5.338  0.00  0.00    -0.422 OA
BRANCH  23  24
ATOM     24  C   UNL     1       1.864  -1.131  -5.593  0.00  0.00    +0.344 C 
ATOM     25  O   UNL     1       1.376  -1.190  -6.704  0.00  0.00    -0.245 OA
BRANCH  24  26
ATOM     26  C   UNL     1       1.172  -0.388  -4.523  0.00  0.00    +0.060 A 
ATOM     27  C   UNL     1      -0.045   0.248  -4.785  0.00  0.00    +0.018 A 
ATOM     28  C   UNL     1      -0.687   0.940  -3.783  0.00  0.00    +0.046 A 
ATOM     29  C   UNL     1      -0.128   1.006  -2.512  0.00  0.00    +0.120 A 
ATOM     30  C   UNL     1       1.085   0.380  -2.249  0.00  0.00    +0.046 A 
ATOM     31  C   UNL     1       1.731  -0.319  -3.244  0.00  0.00    +0.018 A 
BRANCH  29  32
ATOM     32  O   UNL     1      -0.765   1.689  -1.528  0.00  0.00    -0.495 OA
ATOM     33  C   UNL     1      -0.135   1.717  -0.245  0.00  0.00    +0.277 C 
ENDBRANCH  29  32
ENDBRANCH  24  26
ENDBRANCH  23  24
ENDBRANCH  20  23
ENDBRANCH  12  17
BRANCH   1  35
ATOM     34  C   UNL     1      13.649  -5.298  -5.371  0.00  0.00    +0.011 C 
ATOM     35  C   UNL     1      12.606  -6.417  -5.416  0.00  0.00    -0.035 C 
ATOM     36  C   UNL     1      12.318  -6.902  -3.994  0.00  0.00    +0.011 C 
ATOM     37  C   UNL     1      13.141  -7.580  -6.254  0.00  0.00    +0.011 C 
ENDBRANCH   1  35
TORSDOF 6
