REMARK  Name = ZINC20705938
REMARK  5 active torsions:
REMARK  status: ('A' for Active; 'I' for Inactive)
REMARK    1  A    between atoms: C_1  and  N_2
REMARK    2  A    between atoms: N_5  and  S_8
REMARK    3  A    between atoms: S_8  and  C_11
REMARK    4  A    between atoms: C_24  and  C_27
REMARK    5  A    between atoms: C_29  and  N_34
REMARK                            x       y       z     vdW  Elec       q    Type
REMARK                         _______ _______ _______ _____ _____    ______ ____
ROOT
ATOM      1  C   UNL     1       2.633   1.899   0.265  0.00  0.00    +0.106 A 
ATOM      2  C   UNL     1       1.253   1.868   0.340  0.00  0.00    +0.030 A 
ATOM      3  C   UNL     1       0.539   3.049   0.303  0.00  0.00    +0.025 A 
ATOM      4  C   UNL     1       1.207   4.261   0.180  0.00  0.00    +0.031 A 
ATOM      5  C   UNL     1       2.591   4.297   0.102  0.00  0.00    -0.018 A 
ATOM      6  C   UNL     1       3.297   3.103   0.145  0.00  0.00    +0.034 A 
ATOM      7  C   UNL     1       3.352   5.578  -0.026  0.00  0.00    +0.049 C 
ATOM      8  C   UNL     1       3.872   5.773  -1.431  0.00  0.00    -0.023 C 
ATOM      9  C   UNL     1       3.824   7.041  -1.760  0.00  0.00    -0.030 C 
ATOM     10  C   UNL     1       3.268   7.866  -0.616  0.00  0.00    +0.033 C 
ATOM     11  C   UNL     1       2.482   6.823   0.232  0.00  0.00    +0.029 C 
ATOM     12  C   UNL     1       1.102   6.637  -0.405  0.00  0.00    +0.106 C 
ATOM     13  N   UNL     1       0.471   5.444   0.168  0.00  0.00    -0.336 N 
ATOM     14  H   UNL     1      -0.551   5.501   0.571  0.00  0.00    +0.147 HD
ENDROOT
BRANCH  12  15
ATOM     15  C   UNL     1       1.253   6.461  -1.895  0.00  0.00    -0.007 A 
ATOM     16  C   UNL     1       1.500   5.207  -2.421  0.00  0.00    +0.039 A 
ATOM     17  C   UNL     1       1.638   5.046  -3.787  0.00  0.00    +0.127 A 
ATOM     18  C   UNL     1       1.530   6.138  -4.627  0.00  0.00    +0.034 A 
ATOM     19  C   UNL     1       1.283   7.392  -4.102  0.00  0.00    +0.022 A 
ATOM     20  C   UNL     1       1.140   7.554  -2.735  0.00  0.00    +0.046 A 
ATOM     21 CL   UNL     1       0.823   9.128  -2.075  0.00  0.00    -0.083 Cl
BRANCH  17  22
ATOM     22  N   UNL     1       1.903   3.703  -4.350  0.00  0.00    +0.056 N 
ATOM     23  O   UNL     1       1.998   2.740  -3.610  0.00  0.00    -0.126 OA
ATOM     24  O   UNL     1       2.025   3.560  -5.553  0.00  0.00    -0.126 OA
ENDBRANCH  17  22
ENDBRANCH  12  15
BRANCH   1  25
ATOM     25  S   UNL     1       3.549   0.394   0.316  0.00  0.00    +0.061 S 
ATOM     26  O   UNL     1       2.667  -0.632  -0.117  0.00  0.00    -0.153 OA
ATOM     27  O   UNL     1       4.790   0.652  -0.326  0.00  0.00    -0.153 OA
BRANCH  25  32
ATOM     28  C   UNL     1       3.727   1.021   5.993  0.00  0.00    -0.096 C 
ATOM     29  N   UNL     1       3.957   0.425   4.670  0.00  0.00    +0.380 N 
ATOM     30  C   UNL     1       2.687   0.070   4.024  0.00  0.00    -0.062 C 
ATOM     31  C   UNL     1       2.973  -0.709   2.736  0.00  0.00    +0.091 C 
ATOM     32  N   UNL     1       3.893   0.084   1.905  0.00  0.00    -0.180 NA
ATOM     33  C   UNL     1       5.129   0.588   2.523  0.00  0.00    +0.091 C 
ATOM     34  C   UNL     1       4.755   1.320   3.821  0.00  0.00    -0.062 C 
ATOM     35  H   UNL     1       4.532  -0.502   4.811  0.00  0.00    -0.082 HD
ENDBRANCH  25  32
ENDBRANCH   1  25
TORSDOF 4
