REMARK  Name = ZINC46668600
REMARK  7 active torsions:
REMARK  status: ('A' for Active; 'I' for Inactive)
REMARK    1  A    between atoms: C_1  and  C_2
REMARK    2  A    between atoms: C_2  and  C_3
REMARK    3  A    between atoms: C_2  and  N_4
REMARK    4  A    between atoms: C_10  and  C_13
REMARK    5  A    between atoms: N_15  and  C_16
REMARK    6  A    between atoms: C_16  and  C_17
REMARK    7  A    between atoms: C_17  and  N_23
REMARK                            x       y       z     vdW  Elec       q    Type
REMARK                         _______ _______ _______ _____ _____    ______ ____
ROOT
ATOM      1  C   UNL     1       1.779  -4.499   5.627  0.00  0.00    +0.216 C 
ATOM      2  O   UNL     1       2.320  -5.231   4.826  0.00  0.00    -0.276 OA
ATOM      3  N   UNL     1       1.341  -4.992   6.802  0.00  0.00    -0.316 N 
ATOM      4  H   UNL     1       0.908  -4.407   7.443  0.00  0.00    +0.149 HD
ENDROOT
BRANCH   1  11
ATOM      5  N   UNL     1       0.553  -0.064   1.584  0.00  0.00    -0.297 N 
ATOM      6  C   UNL     1      -0.051  -0.257   2.773  0.00  0.00    +0.302 C 
ATOM      7  O   UNL     1      -1.190   0.131   2.946  0.00  0.00    -0.253 OA
ATOM      8  N   UNL     1       0.608  -0.879   3.771  0.00  0.00    -0.286 N 
ATOM      9  C   UNL     1       2.022  -1.248   3.618  0.00  0.00    +0.110 C 
ATOM     10  C   UNL     1       2.178  -2.741   3.924  0.00  0.00    +0.032 C 
ATOM     11  C   UNL     1       1.597  -3.037   5.308  0.00  0.00    +0.078 C 
ATOM     12  C   UNL     1       0.105  -2.695   5.321  0.00  0.00    +0.032 C 
ATOM     13  C   UNL     1      -0.073  -1.196   5.034  0.00  0.00    +0.110 C 
ATOM     14  H   UNL     1       1.485  -0.307   1.468  0.00  0.00    +0.150 HD
BRANCH   5  16
ATOM     15  C   UNL     1      -0.165   2.040   0.564  0.00  0.00    +0.027 C 
ATOM     16  C   UNL     1      -0.197   0.513   0.466  0.00  0.00    +0.068 C 
ATOM     17  C   UNL     1       0.437   0.074  -0.855  0.00  0.00    +0.027 C 
ENDBRANCH   5  16
ENDBRANCH   1  11
BRANCH   3  18
ATOM     18  C   UNL     1       1.518  -6.413   7.112  0.00  0.00    +0.092 C 
BRANCH  18  19
ATOM     19  C   UNL     1       0.828  -6.736   8.439  0.00  0.00    -0.050 C 
ATOM     20  C   UNL     1       1.114  -8.189   8.822  0.00  0.00    -0.010 C 
ATOM     21  C   UNL     1       0.580  -9.119   7.731  0.00  0.00    -0.001 C 
ATOM     22  C   UNL     1      -0.930  -8.918   7.584  0.00  0.00    -0.000 C 
ATOM     23  C   UNL     1      -1.216  -7.465   7.201  0.00  0.00    -0.001 C 
ATOM     24  C   UNL     1      -0.681  -6.535   8.292  0.00  0.00    -0.010 C 
BRANCH  19  25
ATOM     25  N   UNL     1       1.341  -5.843   9.487  0.00  0.00    +0.384 N 
ATOM     26  C   UNL     1       2.797  -6.001   9.593  0.00  0.00    -0.078 C 
ATOM     27  C   UNL     1       3.347  -5.015  10.626  0.00  0.00    -0.019 C 
ATOM     28  C   UNL     1       2.701  -5.296  11.986  0.00  0.00    -0.004 C 
ATOM     29  C   UNL     1       1.179  -5.202  11.846  0.00  0.00    -0.019 C 
ATOM     30  C   UNL     1       0.709  -6.180  10.768  0.00  0.00    -0.078 C 
ATOM     31  H   UNL     1       1.125  -4.887   9.248  0.00  0.00    -0.081 HD
ENDBRANCH  19  25
ENDBRANCH  18  19
ENDBRANCH   3  18
TORSDOF 5
