REMARK  Name = ZINC67540894
REMARK  10 active torsions:
REMARK  status: ('A' for Active; 'I' for Inactive)
REMARK    1  A    between atoms: C_1  and  C_2
REMARK    2  A    between atoms: C_2  and  C_3
REMARK    3  A    between atoms: C_2  and  C_4
REMARK    4  A    between atoms: C_2  and  C_5
REMARK    5  A    between atoms: C_8  and  C_11
REMARK    6  A    between atoms: C_13  and  C_16
REMARK    7  A    between atoms: C_16  and  N_17
REMARK    8  A    between atoms: C_18  and  C_20
REMARK    9  A    between atoms: C_23  and  N_28
REMARK   10  A    between atoms: N_26  and  C_27
REMARK                            x       y       z     vdW  Elec       q    Type
REMARK                         _______ _______ _______ _____ _____    ______ ____
ROOT
ATOM      1  C   UNL     1       2.698  -1.862  -4.737  0.00  0.00    +0.202 A 
ATOM      2  N   UNL     1       3.975  -1.598  -5.067  0.00  0.00    -0.190 NA
ATOM      3  C   UNL     1       4.270  -2.170  -6.200  0.00  0.00    +0.245 A 
ATOM      4  O   UNL     1       3.187  -2.825  -6.639  0.00  0.00    -0.336 OA
ATOM      5  N   UNL     1       2.172  -2.617  -5.669  0.00  0.00    -0.056 NA
ENDROOT
BRANCH   1   9
ATOM      6  C   UNL     1       0.707  -0.490  -1.238  0.00  0.00    -0.042 A 
ATOM      7  C   UNL     1       0.033  -1.285  -2.147  0.00  0.00    +0.005 A 
ATOM      8  C   UNL     1       0.674  -1.733  -3.285  0.00  0.00    +0.012 A 
ATOM      9  C   UNL     1       2.003  -1.383  -3.516  0.00  0.00    +0.022 A 
ATOM     10  C   UNL     1       2.678  -0.582  -2.596  0.00  0.00    +0.012 A 
ATOM     11  C   UNL     1       2.025  -0.135  -1.465  0.00  0.00    +0.005 A 
BRANCH   6  13
ATOM     12  C   UNL     1      -0.019   1.526   0.010  0.00  0.00    +0.015 C 
ATOM     13  C   UNL     1       0.002  -0.004   0.002  0.00  0.00    -0.013 C 
ATOM     14  C   UNL     1       0.742  -0.511   1.242  0.00  0.00    +0.015 C 
ATOM     15  C   UNL     1      -1.433  -0.534   0.013  0.00  0.00    +0.015 C 
ENDBRANCH   6  13
ENDBRANCH   1   9
BRANCH   3  16
ATOM     16  C   UNL     1       5.603  -2.105  -6.898  0.00  0.00    +0.203 C 
BRANCH  16  17
ATOM     17  N   UNL     1       6.446  -3.215  -6.447  0.00  0.00    -0.305 N 
ATOM     18  C   UNL     1       7.692  -3.359  -6.940  0.00  0.00    +0.231 C 
ATOM     19  O   UNL     1       8.115  -2.570  -7.758  0.00  0.00    -0.274 OA
ATOM     20  H   UNL     1       6.107  -3.846  -5.793  0.00  0.00    +0.149 HD
BRANCH  18  21
ATOM     21  C   UNL     1       8.558  -4.501  -6.475  0.00  0.00    +0.141 C 
ATOM     22  C   UNL     1       9.194  -4.157  -5.112  0.00  0.00    +0.013 C 
ATOM     23  C   UNL     1      10.622  -4.751  -5.232  0.00  0.00    -0.059 C 
ATOM     24  C   UNL     1      10.943  -4.495  -6.726  0.00  0.00    +0.069 C 
ATOM     25  N   UNL     1       9.659  -4.717  -7.432  0.00  0.00    -0.296 NA
ATOM     26  C   UNL     1       9.599  -6.067  -8.008  0.00  0.00    +0.105 C 
BRANCH  23  27
ATOM     27  N   UNL     1      11.564  -4.036  -4.361  0.00  0.00    +0.381 N 
ATOM     28  H   UNL     1      11.261  -4.114  -3.401  0.00  0.00    -0.090 HD
ATOM     29  H   UNL     1      12.484  -4.440  -4.457  0.00  0.00    -0.090 HD
ATOM     30  H   UNL     1      11.595  -3.063  -4.625  0.00  0.00    -0.090 HD
ENDBRANCH  23  27
ENDBRANCH  18  21
ENDBRANCH  16  17
ENDBRANCH   3  16
TORSDOF 6
