REMARK  Name = ZINC43286474
REMARK  8 active torsions:
REMARK  status: ('A' for Active; 'I' for Inactive)
REMARK    1  A    between atoms: C_1  and  C_2
REMARK    2  A    between atoms: C_2  and  C_4
REMARK    3  A    between atoms: C_2  and  N_22
REMARK    4  A    between atoms: C_4  and  C_6
REMARK    5  A    between atoms: C_4  and  N_12
REMARK    6  A    between atoms: N_12  and  C_13
REMARK    7  A    between atoms: N_12  and  C_14
REMARK    8  A    between atoms: C_14  and  C_15
REMARK                            x       y       z     vdW  Elec       q    Type
REMARK                         _______ _______ _______ _____ _____    ______ ____
ROOT
ATOM      1  C   UNL     1       1.058  -0.252   1.345  0.00  0.00    +0.079 C 
ENDROOT
BRANCH   1   2
ATOM      2  C   UNL     1       1.346  -1.732   1.337  0.00  0.00    +0.006 A 
ATOM      3  C   UNL     1       2.513  -2.373   1.082  0.00  0.00    +0.028 A 
ATOM      4  C   UNL     1       2.543  -3.754   1.132  0.00  0.00    +0.025 A 
ATOM      5  C   UNL     1       1.405  -4.426   1.435  0.00  0.00    +0.060 A 
ATOM      6  S   UNL     1       0.240  -3.094   1.669  0.00  0.00    -0.099 S 
ATOM      7 BR   UNL     1       4.148  -4.692   0.782  0.00  0.00    -0.050 Br
ENDBRANCH   1   2
BRANCH   1   9
ATOM      8  C   UNL     1       0.035   1.625   0.053  0.00  0.00    -0.012 C 
ATOM      9  C   UNL     1       0.195   0.106   0.134  0.00  0.00    -0.056 C 
BRANCH   9  10
ATOM     10  N   UNL     1      -1.127  -0.518   0.273  0.00  0.00    +0.381 N 
ATOM     11  H   UNL     1      -1.685  -0.309  -0.541  0.00  0.00    -0.090 HD
ATOM     12  H   UNL     1      -1.020  -1.518   0.359  0.00  0.00    -0.090 HD
ATOM     13  H   UNL     1      -1.585  -0.157   1.096  0.00  0.00    -0.090 HD
ENDBRANCH   9  10
ENDBRANCH   1   9
BRANCH   1  14
ATOM     14  N   UNL     1       0.341   0.100   2.578  0.00  0.00    -0.295 NA
ATOM     15  C   UNL     1       0.485   1.531   2.880  0.00  0.00    +0.105 C 
BRANCH  14  16
ATOM     16  C   UNL     1       0.797  -0.724   3.706  0.00  0.00    +0.121 C 
BRANCH  16  17
ATOM     17  C   UNL     1      -0.024  -0.402   4.928  0.00  0.00    -0.019 A 
ATOM     18  C   UNL     1       0.478   0.449   5.894  0.00  0.00    +0.006 A 
ATOM     19  C   UNL     1      -0.275   0.745   7.015  0.00  0.00    +0.000 A 
ATOM     20  C   UNL     1      -1.532   0.190   7.169  0.00  0.00    +0.001 A 
ATOM     21  C   UNL     1      -2.036  -0.661   6.203  0.00  0.00    +0.015 A 
ATOM     22  C   UNL     1      -1.284  -0.953   5.079  0.00  0.00    +0.022 A 
ATOM     23 BR   UNL     1      -1.975  -2.111   3.754  0.00  0.00    -0.050 Br
ENDBRANCH  16  17
ENDBRANCH  14  16
ENDBRANCH   1  14
TORSDOF 6
