REMARK  Name = ZINC22303379
REMARK  8 active torsions:
REMARK  status: ('A' for Active; 'I' for Inactive)
REMARK    1  A    between atoms: C_1  and  C_2
REMARK    2  A    between atoms: C_2  and  C_3
REMARK    3  A    between atoms: C_3  and  N_4
REMARK    4  A    between atoms: C_17  and  S_18
REMARK    5  A    between atoms: S_18  and  C_19
REMARK    6  A    between atoms: C_19  and  C_21
REMARK    7  A    between atoms: C_19  and  C_22
REMARK    8  A    between atoms: N_27  and  C_28
REMARK                            x       y       z     vdW  Elec       q    Type
REMARK                         _______ _______ _______ _____ _____    ______ ____
ROOT
ATOM      1  N   UNL     1      12.257   0.524   1.341  0.00  0.00    -0.277 N 
ATOM      2  C   UNL     1      12.627  -0.744   1.611  0.00  0.00    +0.263 A 
ATOM      3  O   UNL     1      13.804  -1.048   1.659  0.00  0.00    -0.267 OA
ATOM      4  C   UNL     1      11.581  -1.755   1.849  0.00  0.00    +0.064 A 
ATOM      5  C   UNL     1      11.907  -3.081   2.133  0.00  0.00    +0.015 A 
ATOM      6  C   UNL     1      10.900  -3.998   2.349  0.00  0.00    +0.001 A 
ATOM      7  C   UNL     1       9.572  -3.608   2.287  0.00  0.00    +0.002 A 
ATOM      8  C   UNL     1       9.236  -2.298   2.006  0.00  0.00    +0.027 A 
ATOM      9  C   UNL     1      10.236  -1.363   1.785  0.00  0.00    +0.064 A 
ATOM     10  N   UNL     1       9.925  -0.034   1.502  0.00  0.00    -0.256 N 
ATOM     11  C   UNL     1      10.918   0.881   1.286  0.00  0.00    +0.240 A 
ATOM     12  N   UNL     1      10.350   2.041   1.044  0.00  0.00    -0.109 NA
ATOM     13  N   UNL     1       8.962   1.866   1.099  0.00  0.00    -0.120 NA
ATOM     14  C   UNL     1       8.722   0.609   1.383  0.00  0.00    +0.198 A 
ENDROOT
BRANCH   1  15
ATOM     15  C   UNL     1      13.285   1.540   1.103  0.00  0.00    +0.128 C 
BRANCH  15  17
ATOM     16  C   UNL     1      14.740   3.262   2.180  0.00  0.00    +0.005 C 
ATOM     17  C   UNL     1      13.666   2.200   2.429  0.00  0.00    +0.018 C 
ENDBRANCH  15  17
ENDBRANCH   1  15
BRANCH  14  18
ATOM     18  S   UNL     1       7.132  -0.126   1.569  0.00  0.00    -0.073 S 
BRANCH  18  19
ATOM     19  C   UNL     1       5.979   1.246   1.291  0.00  0.00    +0.137 C 
ATOM     20  C   UNL     1       6.147   2.287   2.400  0.00  0.00    +0.029 C 
BRANCH  19  21
ATOM     21  C   UNL     1       4.565   0.725   1.301  0.00  0.00    +0.233 C 
ATOM     22  O   UNL     1       4.300  -0.295   1.901  0.00  0.00    -0.274 OA
ATOM     23  N   UNL     1       3.596   1.392   0.645  0.00  0.00    -0.239 N 
ATOM     24  C   UNL     1       2.331   0.926   0.654  0.00  0.00    +0.306 C 
ATOM     25  O   UNL     1       2.065  -0.097   1.255  0.00  0.00    -0.252 OA
ATOM     26  N   UNL     1       1.362   1.593  -0.002  0.00  0.00    -0.296 N 
ATOM     27  H   UNL     1       3.836   2.317   0.101  0.00  0.00    +0.159 HD
ATOM     28  H   UNL     1       1.602   2.518  -0.546  0.00  0.00    +0.151 HD
BRANCH  26  29
ATOM     29  C   UNL     1      -0.013   1.086   0.008  0.00  0.00    +0.074 C 
ATOM     30  C   UNL     1      -0.729   1.579   1.267  0.00  0.00    +0.022 C 
ATOM     31  C   UNL     1      -2.164   1.050   1.278  0.00  0.00    +0.002 C 
ATOM     32  C   UNL     1      -2.904   1.556   0.038  0.00  0.00    +0.000 C 
ATOM     33  C   UNL     1      -2.188   1.063  -1.221  0.00  0.00    +0.002 C 
ATOM     34  C   UNL     1      -0.753   1.593  -1.232  0.00  0.00    +0.022 C 
ENDBRANCH  26  29
ENDBRANCH  19  21
ENDBRANCH  18  19
ENDBRANCH  14  18
TORSDOF 6
