REMARK  Name = ZINC49821422
REMARK  4 active torsions:
REMARK  status: ('A' for Active; 'I' for Inactive)
REMARK    1  A    between atoms: C_1  and  C_2
REMARK    2  A    between atoms: C_2  and  C_3
REMARK    3  A    between atoms: C_2  and  C_4
REMARK    4  A    between atoms: C_7  and  C_10
REMARK                            x       y       z     vdW  Elec       q    Type
REMARK                         _______ _______ _______ _____ _____    ______ ____
ROOT
ATOM      1  C   UNL     1      -5.401  -1.997   0.043  0.00  0.00    +0.038 A 
ATOM      2  C   UNL     1      -6.460  -1.140  -0.056  0.00  0.00    +0.099 A 
ATOM      3  N   UNL     1      -7.724  -1.644  -0.044  0.00  0.00    -0.312 N 
ATOM      4  C   UNL     1      -7.928  -2.969   0.064  0.00  0.00    +0.348 A 
ATOM      5  N   UNL     1      -6.910  -3.822   0.162  0.00  0.00    -0.178 NA
ATOM      6  C   UNL     1      -5.658  -3.389   0.149  0.00  0.00    +0.131 A 
ATOM      7  N   UNL     1      -4.616  -4.280   0.244  0.00  0.00    -0.342 N 
ATOM      8  O   UNL     1      -9.070  -3.398   0.073  0.00  0.00    -0.245 OA
ATOM      9  H   UNL     1      -3.701  -3.958   0.239  0.00  0.00    +0.144 HD
ATOM     10  H   UNL     1      -8.483  -1.044  -0.113  0.00  0.00    +0.170 HD
ATOM     11  H   UNL     1      -4.795  -5.230   0.317  0.00  0.00    +0.144 HD
ENDROOT
BRANCH   1  15
ATOM     12  C   UNL     1      -1.412  -0.526   0.013  0.00  0.00    -0.045 A 
ATOM     13  C   UNL     1      -2.257  -0.202   1.058  0.00  0.00    +0.004 A 
ATOM     14  C   UNL     1      -3.553  -0.677   1.073  0.00  0.00    +0.009 A 
ATOM     15  C   UNL     1      -4.009  -1.483   0.032  0.00  0.00    -0.013 A 
ATOM     16  C   UNL     1      -3.153  -1.806  -1.019  0.00  0.00    +0.009 A 
ATOM     17  C   UNL     1      -1.861  -1.321  -1.026  0.00  0.00    +0.004 A 
BRANCH  12  19
ATOM     18  C   UNL     1      -0.019   1.526   0.010  0.00  0.00    +0.012 C 
ATOM     19  C   UNL     1       0.002  -0.004   0.002  0.00  0.00    +0.013 C 
ATOM     20  C   UNL     1       0.742  -0.511   1.242  0.00  0.00    +0.012 C 
ENDBRANCH  12  19
ENDBRANCH   1  15
TORSDOF 2
