REMARK  Name = ZINC40688694
REMARK  9 active torsions:
REMARK  status: ('A' for Active; 'I' for Inactive)
REMARK    1  A    between atoms: C_1  and  C_2
REMARK    2  A    between atoms: C_4  and  C_25
REMARK    3  A    between atoms: C_7  and  N_8
REMARK    4  A    between atoms: C_10  and  N_23
REMARK    5  A    between atoms: C_11  and  N_15
REMARK    6  A    between atoms: N_15  and  C_16
REMARK    7  A    between atoms: N_15  and  C_17
REMARK    8  A    between atoms: C_25  and  C_27
REMARK    9  A    between atoms: C_25  and  C_29
REMARK                            x       y       z     vdW  Elec       q    Type
REMARK                         _______ _______ _______ _____ _____    ______ ____
ROOT
ATOM      1  N   UNL     1       0.248  -0.274   2.402  0.00  0.00    -0.299 N 
ATOM      2  C   UNL     1       0.360  -1.067   3.538  0.00  0.00    +0.126 A 
ATOM      3  C   UNL     1       0.282  -0.498   4.811  0.00  0.00    +0.104 A 
ATOM      4  C   UNL     1       0.401  -1.339   5.918  0.00  0.00    +0.151 A 
ATOM      5  N   UNL     1       0.584  -2.643   5.720  0.00  0.00    -0.220 NA
ATOM      6  C   UNL     1       0.652  -3.140   4.502  0.00  0.00    +0.200 A 
ATOM      7  N   UNL     1       0.539  -2.382   3.430  0.00  0.00    -0.333 N 
ATOM      8  H   UNL     1       0.195   0.691   2.487  0.00  0.00    +0.154 HD
ATOM      9  H   UNL     1       0.590  -2.787   2.550  0.00  0.00    +0.168 HD
ENDROOT
BRANCH   1  16
ATOM     10  C   UNL     1      -2.149  -1.582   1.602  0.00  0.00    +0.045 C 
ATOM     11  C   UNL     1      -0.939  -1.517   0.706  0.00  0.00    -0.029 A 
ATOM     12  C   UNL     1      -0.975  -2.097  -0.547  0.00  0.00    +0.011 A 
ATOM     13  C   UNL     1       0.134  -2.038  -1.370  0.00  0.00    -0.008 A 
ATOM     14  C   UNL     1       1.284  -1.396  -0.942  0.00  0.00    +0.047 A 
ATOM     15  C   UNL     1       1.326  -0.813   0.310  0.00  0.00    +0.043 A 
ATOM     16  C   UNL     1       0.211  -0.867   1.137  0.00  0.00    +0.037 A 
ATOM     17 CL   UNL     1       2.674  -1.324  -1.979  0.00  0.00    -0.083 Cl
BRANCH  13  18
ATOM     18  C   UNL     1       0.092  -2.673  -2.736  0.00  0.00    +0.153 C 
BRANCH  18  19
ATOM     19  C   UNL     1      -0.011  -4.169  -2.591  0.00  0.00    -0.026 A 
ATOM     20  C   UNL     1      -1.155  -4.736  -2.062  0.00  0.00    +0.006 A 
ATOM     21  C   UNL     1      -1.250  -6.108  -1.929  0.00  0.00    +0.020 A 
ATOM     22  C   UNL     1      -0.199  -6.915  -2.325  0.00  0.00    +0.041 A 
ATOM     23  C   UNL     1       0.947  -6.348  -2.855  0.00  0.00    +0.020 A 
ATOM     24  C   UNL     1       1.038  -4.976  -2.993  0.00  0.00    +0.006 A 
ATOM     25 CL   UNL     1      -0.317  -8.639  -2.158  0.00  0.00    -0.084 Cl
ENDBRANCH  18  19
BRANCH  18  26
ATOM     26  C   UNL     1      -1.078  -2.170  -3.475  0.00  0.00    +0.075 C 
ATOM     27  N   UNL     1      -1.981  -1.782  -4.045  0.00  0.00    -0.196 NA
ENDBRANCH  18  26
ENDBRANCH  13  18
ENDBRANCH   1  16
BRANCH   3  28
ATOM     28  N   UNL     1       0.089   0.883   4.972  0.00  0.00    -0.353 N 
ATOM     29  H   UNL     1       0.081   1.466   4.197  0.00  0.00    +0.143 HD
ATOM     30  H   UNL     1      -0.036   1.255   5.859  0.00  0.00    +0.143 HD
ENDBRANCH   3  28
BRANCH   4  31
ATOM     31  N   UNL     1       0.331  -0.824   7.208  0.00  0.00    -0.287 N 
ATOM     32  C   UNL     1       1.532  -0.278   7.844  0.00  0.00    +0.137 C 
BRANCH  31  33
ATOM     33  C   UNL     1      -0.885  -0.827   7.896  0.00  0.00    +0.035 A 
ATOM     34  C   UNL     1      -1.997  -1.449   7.343  0.00  0.00    +0.023 A 
ATOM     35  C   UNL     1      -3.197  -1.451   8.026  0.00  0.00    +0.002 A 
ATOM     36  C   UNL     1      -3.293  -0.834   9.260  0.00  0.00    +0.000 A 
ATOM     37  C   UNL     1      -2.188  -0.214   9.814  0.00  0.00    +0.002 A 
ATOM     38  C   UNL     1      -0.983  -0.213   9.139  0.00  0.00    +0.023 A 
ENDBRANCH  31  33
ENDBRANCH   4  31
TORSDOF 7
