REMARK  Name = ZINC38688493
REMARK  10 active torsions:
REMARK  status: ('A' for Active; 'I' for Inactive)
REMARK    1  A    between atoms: C_1  and  C_2
REMARK    2  A    between atoms: C_2  and  C_3
REMARK    3  A    between atoms: C_3  and  O_4
REMARK    4  A    between atoms: O_4  and  C_5
REMARK    5  A    between atoms: C_8  and  C_12
REMARK    6  A    between atoms: C_12  and  O_14
REMARK    7  A    between atoms: O_14  and  C_15
REMARK    8  A    between atoms: C_22  and  N_33
REMARK    9  A    between atoms: C_23  and  C_31
REMARK   10  A    between atoms: C_24  and  C_26
REMARK                            x       y       z     vdW  Elec       q    Type
REMARK                         _______ _______ _______ _____ _____    ______ ____
ROOT
ATOM      1  C   UNL     1      -8.162  -5.552  -1.169  0.00  0.00    +0.135 A 
ATOM      2  C   UNL     1      -8.829  -5.862   0.009  0.00  0.00    +0.047 A 
ATOM      3  C   UNL     1     -10.033  -6.536  -0.037  0.00  0.00    +0.012 A 
ATOM      4  C   UNL     1     -10.579  -6.905  -1.254  0.00  0.00    +0.011 A 
ATOM      5  C   UNL     1      -9.917  -6.599  -2.433  0.00  0.00    +0.138 A 
ATOM      6  C   UNL     1      -8.709  -5.915  -2.388  0.00  0.00    +0.093 A 
ATOM      7  O   UNL     1     -10.436  -6.952  -3.634  0.00  0.00    -0.441 OA
ATOM      8  C   UNL     1     -11.742  -7.248  -3.739  0.00  0.00    +0.199 C 
ATOM      9  C   UNL     1     -12.490  -7.582  -2.661  0.00  0.00    +0.101 C 
ATOM     10  C   UNL     1     -11.893  -7.641  -1.283  0.00  0.00    +0.134 C 
ENDROOT
BRANCH  10  11
ATOM     11  C   UNL     1     -12.842  -7.005  -0.300  0.00  0.00    +0.117 A 
ATOM     12  C   UNL     1     -13.406  -7.617   0.757  0.00  0.00    +0.045 A 
ATOM     13  C   UNL     1     -14.220  -6.657   1.400  0.00  0.00    +0.041 A 
ATOM     14  C   UNL     1     -14.104  -5.515   0.698  0.00  0.00    +0.195 A 
ATOM     15  O   UNL     1     -13.264  -5.731  -0.327  0.00  0.00    -0.467 OA
ENDBRANCH  10  11
BRANCH   8  16
ATOM     16  N   UNL     1     -12.337  -7.211  -4.976  0.00  0.00    -0.328 N 
ATOM     17  H   UNL     1     -11.814  -6.973  -5.758  0.00  0.00    +0.145 HD
ATOM     18  H   UNL     1     -13.279  -7.422  -5.068  0.00  0.00    +0.145 HD
ENDBRANCH   8  16
BRANCH   9  19
ATOM     19  C   UNL     1     -13.879  -7.886  -2.837  0.00  0.00    +0.101 C 
ATOM     20  N   UNL     1     -14.980  -8.127  -2.976  0.00  0.00    -0.191 NA
ENDBRANCH   9  19
BRANCH   1  21
ATOM     21  O   UNL     1      -6.976  -4.888  -1.125  0.00  0.00    -0.422 OA
BRANCH  21  22
ATOM     22  C   UNL     1      -5.873  -5.585  -0.787  0.00  0.00    +0.345 C 
ATOM     23  O   UNL     1      -5.970  -6.748  -0.447  0.00  0.00    -0.245 OA
BRANCH  22  27
ATOM     24  C   UNL     1      -2.061  -3.720  -0.915  0.00  0.00    +0.157 A 
ATOM     25  C   UNL     1      -2.169  -5.050  -0.525  0.00  0.00    +0.085 A 
ATOM     26  C   UNL     1      -3.404  -5.659  -0.482  0.00  0.00    +0.038 A 
ATOM     27  C   UNL     1      -4.550  -4.937  -0.831  0.00  0.00    +0.062 A 
ATOM     28  C   UNL     1      -4.436  -3.600  -1.223  0.00  0.00    +0.038 A 
ATOM     29  C   UNL     1      -3.198  -2.997  -1.259  0.00  0.00    +0.085 A 
ATOM     30 CL   UNL     1      -3.057  -1.335  -1.738  0.00  0.00    -0.080 Cl
ATOM     31 CL   UNL     1      -0.746  -5.944  -0.091  0.00  0.00    -0.080 Cl
BRANCH  24  32
ATOM     32  O   UNL     1      -0.842  -3.123  -0.957  0.00  0.00    -0.489 OA
BRANCH  32  33
ATOM     33  C   UNL     1      -0.395  -2.476   0.236  0.00  0.00    +0.229 C 
BRANCH  33  35
ATOM     34  C   UNL     1       1.466  -1.174   1.277  0.00  0.00    +0.007 C 
ATOM     35  C   UNL     1       0.988  -1.867  -0.001  0.00  0.00    +0.038 C 
ENDBRANCH  33  35
ENDBRANCH  32  33
ENDBRANCH  24  32
ENDBRANCH  22  27
ENDBRANCH  21  22
ENDBRANCH   1  21
TORSDOF 9
