REMARK  Name = ZINC40001713
REMARK  7 active torsions:
REMARK  status: ('A' for Active; 'I' for Inactive)
REMARK    1  A    between atoms: C_1  and  C_2
REMARK    2  A    between atoms: C_6  and  N_12
REMARK    3  A    between atoms: C_9  and  C_11
REMARK    4  A    between atoms: C_13  and  C_15
REMARK    5  A    between atoms: C_15  and  S_16
REMARK    6  A    between atoms: S_16  and  C_17
REMARK    7  A    between atoms: N_22  and  C_23
REMARK                            x       y       z     vdW  Elec       q    Type
REMARK                         _______ _______ _______ _____ _____    ______ ____
ROOT
ATOM      1  N   UNL     1       3.120  -0.129  -3.289  0.00  0.00    -0.285 N 
ATOM      2  C   UNL     1       4.135  -0.407  -4.131  0.00  0.00    +0.225 C 
ATOM      3  O   UNL     1       4.483  -1.556  -4.302  0.00  0.00    -0.275 OA
ATOM      4  H   UNL     1       2.841   0.790  -3.152  0.00  0.00    +0.151 HD
ENDROOT
BRANCH   1   9
ATOM      5  C   UNL     1      -0.019   1.526   0.010  0.00  0.00    +0.030 C 
ATOM      6  C   UNL     1       0.002  -0.004   0.002  0.00  0.00    +0.099 C 
ATOM      7  C   UNL     1       0.712  -0.492  -1.232  0.00  0.00    -0.011 C 
ATOM      8  C   UNL     1       2.029  -0.763  -1.215  0.00  0.00    +0.065 C 
ATOM      9  C   UNL     1       2.437  -1.214  -2.581  0.00  0.00    +0.243 C 
ATOM     10  O   UNL     1       1.211  -1.562  -3.261  0.00  0.00    -0.347 OA
ATOM     11  C   UNL     1       0.198  -0.762  -2.613  0.00  0.00    +0.146 C 
ATOM     12  C   UNL     1       0.002   0.554  -3.369  0.00  0.00    +0.043 C 
ATOM     13  C   UNL     1       2.797  -0.603   0.029  0.00  0.00    +0.258 C 
ATOM     14  O   UNL     1       4.009  -0.695   0.056  0.00  0.00    -0.269 OA
ATOM     15  N   UNL     1       2.069  -0.345   1.144  0.00  0.00    -0.247 N 
ATOM     16  N   UNL     1       0.718  -0.493   1.188  0.00  0.00    -0.233 NA
ATOM     17  H   UNL     1       2.530  -0.044   1.943  0.00  0.00    +0.169 HD
ATOM     18  H   UNL     1       0.334  -0.094   2.031  0.00  0.00    +0.145 HD
ENDBRANCH   1   9
BRANCH   2  19
ATOM     19  C   UNL     1       4.838   0.710  -4.859  0.00  0.00    +0.168 C 
BRANCH  19  20
ATOM     20  S   UNL     1       6.147   0.018  -5.907  0.00  0.00    -0.106 S 
BRANCH  20  21
ATOM     21  C   UNL     1       6.885   1.471  -6.703  0.00  0.00    +0.252 C 
ATOM     22  N   UNL     1       7.385   2.396  -5.684  0.00  0.00    -0.258 NA
ATOM     23  C   UNL     1       6.841   3.533  -5.785  0.00  0.00    +0.037 C 
ATOM     24  C   UNL     1       5.899   3.558  -6.974  0.00  0.00    +0.120 C 
ATOM     25  N   UNL     1       5.863   2.185  -7.488  0.00  0.00    -0.292 N 
ATOM     26  C   UNL     1       4.531   4.010  -6.460  0.00  0.00    +0.028 C 
ATOM     27  C   UNL     1       4.704   5.335  -5.711  0.00  0.00    +0.003 C 
ATOM     28  C   UNL     1       5.560   5.148  -4.460  0.00  0.00    +0.006 C 
ATOM     29  C   UNL     1       6.983   4.722  -4.855  0.00  0.00    +0.052 C 
BRANCH  25  30
ATOM     30  C   UNL     1       5.044   1.668  -8.495  0.00  0.00    +0.032 A 
ATOM     31  C   UNL     1       4.131   2.492  -9.140  0.00  0.00    +0.023 A 
ATOM     32  C   UNL     1       3.322   1.978 -10.135  0.00  0.00    +0.002 A 
ATOM     33  C   UNL     1       3.421   0.645 -10.489  0.00  0.00    +0.000 A 
ATOM     34  C   UNL     1       4.329  -0.178  -9.848  0.00  0.00    +0.002 A 
ATOM     35  C   UNL     1       5.144   0.331  -8.856  0.00  0.00    +0.023 A 
ENDBRANCH  25  30
ENDBRANCH  20  21
ENDBRANCH  19  20
ENDBRANCH   2  19
TORSDOF 5
