REMARK  Name = ZINC35747721
REMARK  13 active torsions:
REMARK  status: ('A' for Active; 'I' for Inactive)
REMARK    1  A    between atoms: C_1  and  C_2
REMARK    2  A    between atoms: C_5  and  C_9
REMARK    3  A    between atoms: C_6  and  C_8
REMARK    4  A    between atoms: C_18  and  C_20
REMARK    5  A    between atoms: C_20  and  N_21
REMARK    6  A    between atoms: N_21  and  C_22
REMARK    7  A    between atoms: N_21  and  C_25
REMARK    8  A    between atoms: C_22  and  C_23
REMARK    9  A    between atoms: C_25  and  C_26
REMARK   10  A    between atoms: C_26  and  C_28
REMARK   11  A    between atoms: C_26  and  O_36
REMARK   12  A    between atoms: C_28  and  O_29
REMARK   13  A    between atoms: O_29  and  C_30
REMARK                            x       y       z     vdW  Elec       q    Type
REMARK                         _______ _______ _______ _____ _____    ______ ____
ROOT
ATOM      1  C   UNL     1       0.490  -4.597  -0.190  0.00  0.00    +0.004 A 
ATOM      2  C   UNL     1       1.580  -5.347  -0.482  0.00  0.00    +0.056 A 
ATOM      3  S   UNL     1       1.041  -7.011  -0.138  0.00  0.00    -0.076 S 
ATOM      4  C   UNL     1      -0.619  -6.664   0.385  0.00  0.00    +0.116 A 
ATOM      5  C   UNL     1      -0.714  -5.266   0.287  0.00  0.00    +0.080 A 
ATOM      6  C   UNL     1      -1.975  -4.703   0.662  0.00  0.00    +0.260 A 
ATOM      7  O   UNL     1      -2.156  -3.499   0.605  0.00  0.00    -0.267 OA
ATOM      8  N   UNL     1      -2.958  -5.523   1.077  0.00  0.00    -0.312 N 
ATOM      9  H   UNL     1      -3.815  -5.147   1.332  0.00  0.00    +0.170 HD
ATOM     10  C   UNL     1      -2.775  -6.866   1.145  0.00  0.00    +0.094 A 
ATOM     11  N   UNL     1      -1.639  -7.411   0.800  0.00  0.00    -0.229 NA
ENDROOT
BRANCH   1  16
ATOM     12  C   UNL     1       0.620   1.128  -0.794  0.00  0.00    +0.044 C 
ATOM     13  C   UNL     1       0.586  -0.371  -0.635  0.00  0.00    -0.050 A 
ATOM     14  C   UNL     1       0.701  -1.184  -1.749  0.00  0.00    +0.004 A 
ATOM     15  C   UNL     1       0.671  -2.556  -1.610  0.00  0.00    +0.009 A 
ATOM     16  C   UNL     1       0.524  -3.123  -0.345  0.00  0.00    -0.014 A 
ATOM     17  C   UNL     1       0.409  -2.299   0.773  0.00  0.00    -0.042 A 
ATOM     18  C   UNL     1       0.446  -0.927   0.623  0.00  0.00    +0.007 A 
ATOM     19  C   UNL     1       0.249  -2.904   2.144  0.00  0.00    +0.044 C 
ENDBRANCH   1  16
BRANCH  10  20
ATOM     20  C   UNL     1      -3.905  -7.745   1.615  0.00  0.00    -0.003 C 
BRANCH  20  21
ATOM     21  N   UNL     1      -3.471  -9.149   1.604  0.00  0.00    +0.388 N 
ATOM     22  H   UNL     1      -3.131  -9.388   0.685  0.00  0.00    -0.081 HD
BRANCH  21  23
ATOM     23  C   UNL     1      -2.396  -9.337   2.588  0.00  0.00    -0.051 C 
BRANCH  23  24
ATOM     24  C   UNL     1      -1.850 -10.737   2.474  0.00  0.00    -0.053 C 
ATOM     25  C   UNL     1      -0.571 -10.926   2.263  0.00  0.00    +0.002 C 
ENDBRANCH  23  24
ENDBRANCH  21  23
BRANCH  21  26
ATOM     26  C   UNL     1      -4.606 -10.015   1.947  0.00  0.00    -0.043 C 
BRANCH  26  27
ATOM     27  C   UNL     1      -5.664  -9.931   0.845  0.00  0.00    +0.135 C 
BRANCH  27  28
ATOM     28  O   UNL     1      -5.097 -10.364  -0.394  0.00  0.00    -0.390 OA
ATOM     29  H   UNL     1      -4.840 -11.296  -0.404  0.00  0.00    +0.210 HD
ENDBRANCH  27  28
BRANCH  27  30
ATOM     30  C   UNL     1      -6.849 -10.829   1.205  0.00  0.00    +0.258 C 
BRANCH  30  31
ATOM     31  O   UNL     1      -7.885 -10.662   0.235  0.00  0.00    -0.489 OA
BRANCH  31  32
ATOM     32  C   UNL     1      -9.017 -11.393   0.409  0.00  0.00    +0.121 A 
ATOM     33  C   UNL     1      -9.130 -12.250   1.494  0.00  0.00    +0.045 A 
ATOM     34  C   UNL     1     -10.282 -12.993   1.669  0.00  0.00    +0.004 A 
ATOM     35  C   UNL     1     -11.321 -12.883   0.764  0.00  0.00    +0.000 A 
ATOM     36  C   UNL     1     -11.211 -12.029  -0.319  0.00  0.00    +0.004 A 
ATOM     37  C   UNL     1     -10.064 -11.280  -0.495  0.00  0.00    +0.045 A 
ENDBRANCH  31  32
ENDBRANCH  30  31
ENDBRANCH  27  30
ENDBRANCH  26  27
ENDBRANCH  21  26
ENDBRANCH  20  21
ENDBRANCH  10  20
TORSDOF 11
