REMARK  Name = ZINC32594519
REMARK  4 active torsions:
REMARK  status: ('A' for Active; 'I' for Inactive)
REMARK    1  A    between atoms: C_1  and  C_2
REMARK    2  A    between atoms: C_5  and  S_8
REMARK    3  A    between atoms: S_8  and  C_9
REMARK    4  A    between atoms: C_24  and  C_26
REMARK                            x       y       z     vdW  Elec       q    Type
REMARK                         _______ _______ _______ _____ _____    ______ ____
ROOT
ATOM      1  C   UNL     1      -1.071  -2.547  -0.074  0.00  0.00    +0.089 C 
ATOM      2  C   UNL     1      -0.351  -2.860  -1.393  0.00  0.00    +0.094 C 
ATOM      3  S   UNL     1       0.613  -4.369  -1.143  0.00  0.00    -0.086 S 
ATOM      4  C   UNL     1      -0.603  -5.411  -0.398  0.00  0.00    +0.175 A 
ATOM      5  N   UNL     1      -0.321  -6.713  -0.396  0.00  0.00    -0.184 NA
ATOM      6  C   UNL     1      -1.121  -7.633   0.143  0.00  0.00    +0.285 A 
ATOM      7  O   UNL     1      -0.839  -8.820   0.097  0.00  0.00    -0.265 OA
ATOM      8  C   UNL     1      -2.353  -7.172   0.795  0.00  0.00    +0.103 A 
ATOM      9  C   UNL     1      -3.404  -7.801   1.490  0.00  0.00    +0.149 A 
ATOM     10  N   UNL     1      -4.249  -6.879   1.862  0.00  0.00    -0.180 NA
ATOM     11  N   UNL     1      -3.788  -5.628   1.428  0.00  0.00    -0.261 N 
ATOM     12  H   UNL     1      -4.369  -4.721   1.648  0.00  0.00    +0.190 HD
ATOM     13  C   UNL     1      -2.625  -5.811   0.773  0.00  0.00    +0.144 A 
ATOM     14  N   UNL     1      -1.752  -4.937   0.139  0.00  0.00    -0.296 N 
ATOM     15  C   UNL     1      -2.200  -3.548   0.101  0.00  0.00    +0.135 C 
ENDROOT
BRANCH  15  16
ATOM     16  C   UNL     1      -2.922  -3.239   1.387  0.00  0.00    -0.024 A 
ATOM     17  C   UNL     1      -4.194  -2.700   1.354  0.00  0.00    +0.006 A 
ATOM     18  C   UNL     1      -4.858  -2.421   2.534  0.00  0.00    +0.000 A 
ATOM     19  C   UNL     1      -4.246  -2.672   3.747  0.00  0.00    +0.000 A 
ATOM     20  C   UNL     1      -2.971  -3.207   3.781  0.00  0.00    +0.000 A 
ATOM     21  C   UNL     1      -2.309  -3.490   2.601  0.00  0.00    +0.006 A 
ENDBRANCH  15  16
BRANCH   1  22
ATOM     22  S   UNL     1      -1.749  -0.866  -0.132  0.00  0.00    -0.119 S 
BRANCH  22  27
ATOM     23  C   UNL     1       3.136   2.667  -0.437  0.00  0.00    +0.044 C 
ATOM     24  C   UNL     1       1.917   1.785  -0.360  0.00  0.00    -0.050 A 
ATOM     25  C   UNL     1       0.655   2.352  -0.350  0.00  0.00    +0.004 A 
ATOM     26  C   UNL     1      -0.465   1.547  -0.280  0.00  0.00    +0.015 A 
ATOM     27  C   UNL     1      -0.323   0.166  -0.221  0.00  0.00    +0.008 A 
ATOM     28  C   UNL     1       0.946  -0.400  -0.232  0.00  0.00    +0.015 A 
ATOM     29  C   UNL     1       2.062   0.411  -0.301  0.00  0.00    +0.004 A 
ENDBRANCH  22  27
ENDBRANCH   1  22
TORSDOF 3
