REMARK  Name = ZINC22933392
REMARK  10 active torsions:
REMARK  status: ('A' for Active; 'I' for Inactive)
REMARK    1  A    between atoms: C_1  and  C_2
REMARK    2  A    between atoms: C_6  and  C_29
REMARK    3  A    between atoms: C_7  and  C_11
REMARK    4  A    between atoms: C_11  and  C_12
REMARK    5  A    between atoms: N_14  and  C_15
REMARK    6  A    between atoms: C_15  and  C_16
REMARK    7  A    between atoms: C_16  and  N_22
REMARK    8  A    between atoms: N_25  and  C_28
REMARK    9  A    between atoms: C_30  and  O_32
REMARK   10  A    between atoms: O_32  and  C_33
REMARK                            x       y       z     vdW  Elec       q    Type
REMARK                         _______ _______ _______ _____ _____    ______ ____
ROOT
ATOM      1  C   UNL     1      -1.298  -6.871  -1.610  0.00  0.00    +0.218 C 
ATOM      2  O   UNL     1      -2.220  -6.091  -1.722  0.00  0.00    -0.275 OA
ATOM      3  N   UNL     1      -1.518  -8.195  -1.728  0.00  0.00    -0.313 N 
ATOM      4  H   UNL     1      -0.780  -8.819  -1.638  0.00  0.00    +0.149 HD
ENDROOT
BRANCH   1   5
ATOM      5  C   UNL     1       0.093  -6.359  -1.339  0.00  0.00    +0.138 C 
BRANCH   5  12
ATOM      6  C   UNL     1      -0.142   1.498   0.015  0.00  0.00    +0.044 C 
ATOM      7  C   UNL     1      -0.125  -0.008   0.004  0.00  0.00    -0.043 A 
ATOM      8  C   UNL     1       0.015  -0.680  -1.195  0.00  0.00    +0.050 A 
ATOM      9  C   UNL     1       0.033  -2.067  -1.218  0.00  0.00    +0.143 A 
ATOM     10  C   UNL     1      -0.093  -2.781  -0.012  0.00  0.00    +0.062 A 
ATOM     11  C   UNL     1      -0.073  -4.244  -0.048  0.00  0.00    -0.026 A 
ATOM     12  C   UNL     1       0.067  -4.855  -1.253  0.00  0.00    +0.049 A 
ATOM     13  C   UNL     1       0.188  -4.077  -2.423  0.00  0.00    +0.341 A 
ATOM     14  O   UNL     1       0.312  -4.637  -3.497  0.00  0.00    -0.245 OA
ATOM     15  O   UNL     1       0.169  -2.736  -2.383  0.00  0.00    -0.422 OA
ATOM     16  C   UNL     1      -0.204  -5.050   1.219  0.00  0.00    +0.045 C 
ATOM     17  C   UNL     1      -0.235  -2.087   1.200  0.00  0.00    +0.131 A 
ATOM     18  C   UNL     1      -0.243  -0.704   1.195  0.00  0.00    +0.049 A 
BRANCH  17  19
ATOM     19  O   UNL     1      -0.357  -2.769   2.367  0.00  0.00    -0.494 OA
ATOM     20  C   UNL     1      -0.498  -1.993   3.559  0.00  0.00    +0.277 C 
ENDBRANCH  17  19
ENDBRANCH   5  12
ENDBRANCH   1   5
BRANCH   3  21
ATOM     21  C   UNL     1      -2.870  -8.693  -1.991  0.00  0.00    +0.126 C 
BRANCH  21  22
ATOM     22  C   UNL     1      -2.843 -10.220  -2.079  0.00  0.00    +0.037 C 
ATOM     23  C   UNL     1      -4.256 -10.740  -2.354  0.00  0.00    +0.024 C 
ATOM     24  C   UNL     1      -4.763 -10.162  -3.676  0.00  0.00    +0.002 C 
ATOM     25  C   UNL     1      -3.832 -10.592  -4.812  0.00  0.00    +0.000 C 
ATOM     26  C   UNL     1      -2.419 -10.072  -4.537  0.00  0.00    +0.002 C 
ATOM     27  C   UNL     1      -1.912 -10.650  -3.214  0.00  0.00    +0.024 C 
BRANCH  22  28
ATOM     28  N   UNL     1      -2.356 -10.775  -0.809  0.00  0.00    -0.299 NA
ATOM     29  C   UNL     1      -2.233 -12.238  -0.886  0.00  0.00    +0.066 C 
ATOM     30  C   UNL     1      -1.668 -12.769   0.433  0.00  0.00    -0.064 C 
ATOM     31  N   UNL     1      -2.562 -12.393   1.536  0.00  0.00    +0.379 N 
ATOM     32  C   UNL     1      -2.655 -10.929   1.616  0.00  0.00    -0.064 C 
ATOM     33  C   UNL     1      -3.228 -10.382   0.307  0.00  0.00    +0.066 C 
ATOM     34  C   UNL     1      -2.028 -12.919   2.800  0.00  0.00    -0.096 C 
ATOM     35  H   UNL     1      -3.479 -12.780   1.373  0.00  0.00    -0.082 HD
ENDBRANCH  22  28
ENDBRANCH  21  22
ENDBRANCH   3  21
TORSDOF 6
