REMARK  Name = ZINC36367235
REMARK  4 active torsions:
REMARK  status: ('A' for Active; 'I' for Inactive)
REMARK    1  A    between atoms: C_1  and  N_2
REMARK    2  A    between atoms: C_13  and  O_30
REMARK    3  A    between atoms: C_18  and  C_27
REMARK    4  A    between atoms: C_19  and  C_20
REMARK                            x       y       z     vdW  Elec       q    Type
REMARK                         _______ _______ _______ _____ _____    ______ ____
ROOT
ATOM      1  C   UNL     1      -0.018   1.461   0.010  0.00  0.00    +0.138 C 
ATOM      2  N   UNL     1       0.002  -0.004   0.002  0.00  0.00    -0.273 N 
ATOM      3  C   UNL     1      -1.135  -0.793   0.003  0.00  0.00    +0.041 A 
ATOM      4  C   UNL     1      -2.478  -0.412   0.013  0.00  0.00    +0.025 A 
ATOM      5  C   UNL     1      -3.425  -1.423   0.011  0.00  0.00    +0.022 A 
ATOM      6  C   UNL     1      -3.068  -2.758   0.001  0.00  0.00    +0.041 A 
ATOM      7  C   UNL     1      -1.734  -3.151  -0.009  0.00  0.00    +0.026 A 
ATOM      8  C   UNL     1      -0.786  -2.150  -0.008  0.00  0.00    -0.004 A 
ATOM      9  C   UNL     1       0.708  -2.196  -0.016  0.00  0.00    +0.115 C 
ATOM     10  C   UNL     1       1.131  -0.743  -0.013  0.00  0.00    +0.236 C 
ATOM     11  O   UNL     1       2.269  -0.323  -0.021  0.00  0.00    -0.274 OA
ATOM     12  C   UNL     1       1.230  -2.887  -1.278  0.00  0.00    +0.121 C 
ATOM     13  C   UNL     1       1.236  -4.378  -1.110  0.00  0.00    +0.189 C 
ATOM     14  N   UNL     1       1.419  -4.989   0.013  0.00  0.00    -0.216 NA
ATOM     15  C   UNL     1       1.596  -4.256   1.182  0.00  0.00    +0.087 A 
ATOM     16  C   UNL     1       1.250  -2.912   1.179  0.00  0.00    +0.036 A 
ATOM     17  S   UNL     1       1.566  -2.352   2.712  0.00  0.00    -0.082 S 
ATOM     18  C   UNL     1       2.191  -3.855   3.443  0.00  0.00    +0.110 A 
ATOM     19  C   UNL     1       2.102  -4.763   2.384  0.00  0.00    +0.029 A 
ATOM     20 CL   UNL     1      -4.311  -3.970   0.000  0.00  0.00    -0.084 Cl
ENDROOT
BRANCH  19  21
ATOM     21  C   UNL     1       2.519  -6.176   2.525  0.00  0.00    -0.014 A 
ATOM     22  C   UNL     1       1.577  -7.199   2.412  0.00  0.00    +0.010 A 
ATOM     23  C   UNL     1       1.972  -8.514   2.545  0.00  0.00    +0.020 A 
ATOM     24  C   UNL     1       3.301  -8.819   2.789  0.00  0.00    +0.041 A 
ATOM     25  C   UNL     1       4.240  -7.808   2.902  0.00  0.00    +0.020 A 
ATOM     26  C   UNL     1       3.858  -6.490   2.764  0.00  0.00    +0.010 A 
ATOM     27 CL   UNL     1       3.791 -10.476   2.955  0.00  0.00    -0.084 Cl
ENDBRANCH  19  21
BRANCH  18  28
ATOM     28  C   UNL     1       2.657  -4.072   4.760  0.00  0.00    +0.394 C 
ATOM     29  O   UNL     1       2.662  -3.151   5.568  0.00  0.00    -0.240 OA
ATOM     30  O   UNL     1       3.055  -5.182   5.094  0.00  0.00    -0.240 OA
ENDBRANCH  18  28
BRANCH  13  31
ATOM     31  O   UNL     1       1.036  -5.135  -2.211  0.00  0.00    -0.495 OA
ATOM     32  H   UNL     1       1.051  -6.087  -2.042  0.00  0.00    +0.293 HD
ENDBRANCH  13  31
TORSDOF 3
