REMARK  Name = ZINC20560198
REMARK  9 active torsions:
REMARK  status: ('A' for Active; 'I' for Inactive)
REMARK    1  A    between atoms: C_1  and  C_2
REMARK    2  A    between atoms: C_2  and  O_3
REMARK    3  A    between atoms: O_3  and  C_4
REMARK    4  A    between atoms: C_4  and  C_6
REMARK    5  A    between atoms: C_7  and  C_21
REMARK    6  A    between atoms: C_12  and  C_14
REMARK    7  A    between atoms: C_17  and  C_20
REMARK    8  A    between atoms: C_21  and  N_22
REMARK    9  A    between atoms: N_25  and  C_28
REMARK                            x       y       z     vdW  Elec       q    Type
REMARK                         _______ _______ _______ _____ _____    ______ ____
ROOT
ATOM      1  C   UNL     1       4.401   1.116   3.487  0.00  0.00    +0.079 C 
ATOM      2  C   UNL     1       4.243   0.202   2.506  0.00  0.00    +0.038 C 
ATOM      3  N   UNL     1       5.202   0.021   1.550  0.00  0.00    -0.271 N 
ATOM      4  C   UNL     1       6.349   0.711   1.508  0.00  0.00    +0.304 C 
ATOM      5  O   UNL     1       7.142   0.479   0.617  0.00  0.00    -0.252 OA
ATOM      6  N   UNL     1       6.652   1.653   2.422  0.00  0.00    -0.288 N 
ATOM      7  C   UNL     1       5.683   1.925   3.497  0.00  0.00    +0.144 C 
ATOM      8  H   UNL     1       5.053  -0.726   0.756  0.00  0.00    +0.156 HD
ATOM      9  H   UNL     1       7.597   2.214   2.379  0.00  0.00    +0.151 HD
ENDROOT
BRANCH   7  10
ATOM     10  C   UNL     1       5.306   3.382   3.426  0.00  0.00    -0.022 A 
ATOM     11  C   UNL     1       5.121   3.989   2.197  0.00  0.00    +0.006 A 
ATOM     12  C   UNL     1       4.771   5.325   2.132  0.00  0.00    +0.004 A 
ATOM     13  C   UNL     1       4.616   6.056   3.295  0.00  0.00    -0.050 A 
ATOM     14  C   UNL     1       4.806   5.451   4.523  0.00  0.00    +0.004 A 
ATOM     15  C   UNL     1       5.151   4.114   4.588  0.00  0.00    +0.006 A 
ATOM     16  C   UNL     1       4.240   7.514   3.223  0.00  0.00    +0.044 C 
ENDBRANCH   7  10
BRANCH   1  17
ATOM     17  C   UNL     1       3.407   1.308   4.474  0.00  0.00    +0.339 C 
ATOM     18  O   UNL     1       2.623   2.234   4.376  0.00  0.00    -0.245 OA
BRANCH  17  19
ATOM     19  O   UNL     1       3.327   0.465   5.525  0.00  0.00    -0.462 OA
BRANCH  19  21
ATOM     20  C   UNL     1       2.365  -0.332   7.593  0.00  0.00    +0.048 C 
ATOM     21  C   UNL     1       2.299   0.719   6.484  0.00  0.00    +0.229 C 
ENDBRANCH  19  21
ENDBRANCH  17  19
ENDBRANCH   1  17
BRANCH   2  22
ATOM     22  C   UNL     1       2.986  -0.628   2.461  0.00  0.00    +0.136 C 
BRANCH  22  23
ATOM     23  N   UNL     1       2.235  -0.313   1.239  0.00  0.00    -0.294 NA
ATOM     24  C   UNL     1       0.897  -0.920   1.272  0.00  0.00    +0.103 C 
ATOM     25  C   UNL     1       0.178  -0.637  -0.049  0.00  0.00    +0.120 C 
ATOM     26  N   UNL     1       0.089   0.816  -0.253  0.00  0.00    -0.327 N 
ATOM     27  C   UNL     1       1.427   1.423  -0.287  0.00  0.00    +0.120 C 
ATOM     28  C   UNL     1       2.146   1.139   1.034  0.00  0.00    +0.103 C 
BRANCH  26  29
ATOM     29  C   UNL     1      -0.626   1.115  -1.416  0.00  0.00    +0.030 A 
ATOM     30  C   UNL     1      -1.135   0.090  -2.203  0.00  0.00    +0.024 A 
ATOM     31  C   UNL     1      -1.847   0.389  -3.348  0.00  0.00    +0.022 A 
ATOM     32  C   UNL     1      -2.042   1.708  -3.719  0.00  0.00    +0.041 A 
ATOM     33  C   UNL     1      -1.531   2.731  -2.940  0.00  0.00    +0.022 A 
ATOM     34  C   UNL     1      -0.824   2.438  -1.790  0.00  0.00    +0.024 A 
ATOM     35 CL   UNL     1      -2.930   2.080  -5.163  0.00  0.00    -0.084 Cl
ENDBRANCH  26  29
ENDBRANCH  22  23
ENDBRANCH   2  22
TORSDOF 7
