REMARK  Name = ZINC36028925
REMARK  9 active torsions:
REMARK  status: ('A' for Active; 'I' for Inactive)
REMARK    1  A    between atoms: C_1  and  C_2
REMARK    2  A    between atoms: C_2  and  C_3
REMARK    3  A    between atoms: C_3  and  C_5
REMARK    4  A    between atoms: C_3  and  C_6
REMARK    5  A    between atoms: N_10  and  C_24
REMARK    6  A    between atoms: N_20  and  C_21
REMARK    7  A    between atoms: C_21  and  C_22
REMARK    8  A    between atoms: C_21  and  C_23
REMARK    9  A    between atoms: C_24  and  C_25
REMARK                            x       y       z     vdW  Elec       q    Type
REMARK                         _______ _______ _______ _____ _____    ______ ____
ROOT
ATOM      1  C   UNL     1      -2.548  -2.560   0.001  0.00  0.00    +0.022 C 
ATOM      2  C   UNL     1      -1.510  -2.889   1.052  0.00  0.00    +0.201 C 
ATOM      3  O   UNL     1      -0.335  -2.592   1.005  0.00  0.00    -0.277 OA
ATOM      4  N   UNL     1      -2.113  -3.567   2.051  0.00  0.00    -0.309 N 
ATOM      5  C   UNL     1      -3.535  -3.734   1.740  0.00  0.00    +0.006 C 
ATOM      6  N   UNL     1      -3.852  -2.751   0.680  0.00  0.00    +0.401 N 
ATOM      7  C   UNL     1      -4.383  -3.451   2.978  0.00  0.00    +0.025 C 
ATOM      8  C   UNL     1      -4.022  -4.452   4.081  0.00  0.00    +0.109 C 
ATOM      9  N   UNL     1      -4.154  -5.814   3.546  0.00  0.00    -0.286 N 
ATOM     10  C   UNL     1      -3.434  -6.162   2.314  0.00  0.00    +0.109 C 
ATOM     11  C   UNL     1      -3.801  -5.148   1.225  0.00  0.00    +0.025 C 
ATOM     12  C   UNL     1      -4.921  -6.726   4.174  0.00  0.00    +0.302 C 
ATOM     13  O   UNL     1      -5.587  -6.401   5.138  0.00  0.00    -0.253 OA
ATOM     14  N   UNL     1      -4.949  -8.000   3.735  0.00  0.00    -0.297 N 
ATOM     15  H   UNL     1      -4.174  -1.884   1.084  0.00  0.00    -0.082 HD
ATOM     16  H   UNL     1      -4.361  -8.278   3.015  0.00  0.00    +0.150 HD
ATOM     17  H   UNL     1      -4.537  -3.124   0.039  0.00  0.00    -0.082 HD
ENDROOT
BRANCH  14  18
ATOM     18  C   UNL     1      -5.867  -8.965   4.344  0.00  0.00    +0.068 C 
ATOM     19  C   UNL     1      -7.238  -8.859   3.674  0.00  0.00    +0.027 C 
ATOM     20  C   UNL     1      -5.317 -10.381   4.158  0.00  0.00    +0.027 C 
ENDBRANCH  14  18
BRANCH   1  21
ATOM     21  C   UNL     1      -2.396  -1.110  -0.463  0.00  0.00    -0.020 C 
ATOM     22  C   UNL     1      -3.500  -0.778  -1.469  0.00  0.00    +0.006 C 
BRANCH  21  24
ATOM     23  C   UNL     1      -0.827   0.548  -1.477  0.00  0.00    +0.004 C 
ATOM     24  C   UNL     1      -1.029  -0.927  -1.126  0.00  0.00    -0.001 C 
ENDBRANCH  21  24
ENDBRANCH   1  21
BRANCH   4  25
ATOM     25  C   UNL     1      -1.448  -4.060   3.259  0.00  0.00    +0.141 C 
BRANCH  25  26
ATOM     26  C   UNL     1      -1.242  -2.918   4.221  0.00  0.00    -0.026 A 
ATOM     27  C   UNL     1       0.031  -2.430   4.450  0.00  0.00    +0.009 A 
ATOM     28  C   UNL     1       0.224  -1.382   5.331  0.00  0.00    +0.050 A 
ATOM     29  C   UNL     1      -0.858  -0.819   5.987  0.00  0.00    +0.166 A 
ATOM     30  C   UNL     1      -2.141  -1.311   5.756  0.00  0.00    +0.167 A 
ATOM     31  C   UNL     1      -2.328  -2.357   4.868  0.00  0.00    +0.054 A 
ATOM     32  O   UNL     1      -3.025  -0.597   6.513  0.00  0.00    -0.453 OA
ATOM     33  C   UNL     1      -2.228   0.063   7.514  0.00  0.00    +0.466 C 
ATOM     34  O   UNL     1      -0.939   0.203   6.888  0.00  0.00    -0.453 OA
ENDBRANCH  25  26
ENDBRANCH   4  25
TORSDOF 5
