REMARK  Name = ZINC24022873
REMARK  7 active torsions:
REMARK  status: ('A' for Active; 'I' for Inactive)
REMARK    1  A    between atoms: C_1  and  C_2
REMARK    2  A    between atoms: C_2  and  N_3
REMARK    3  A    between atoms: C_4  and  C_27
REMARK    4  A    between atoms: C_7  and  C_10
REMARK    5  A    between atoms: C_10  and  C_12
REMARK    6  A    between atoms: C_10  and  N_19
REMARK    7  A    between atoms: C_22  and  C_25
REMARK                            x       y       z     vdW  Elec       q    Type
REMARK                         _______ _______ _______ _____ _____    ______ ____
ROOT
ATOM      1  C   UNL     1       2.595   3.719  -0.155  0.00  0.00    +0.002 C 
ENDROOT
BRANCH   1   6
ATOM      2  N   UNL     1       2.418   5.558  -3.428  0.00  0.00    -0.313 N 
ATOM      3  C   UNL     1       3.484   5.049  -4.100  0.00  0.00    +0.023 A 
ATOM      4  C   UNL     1       4.279   4.116  -3.534  0.00  0.00    +0.072 A 
ATOM      5  C   UNL     1       4.008   3.664  -2.227  0.00  0.00    +0.188 A 
ATOM      6  C   UNL     1       2.918   4.182  -1.552  0.00  0.00    +0.054 A 
ATOM      7  C   UNL     1       2.123   5.147  -2.180  0.00  0.00    +0.257 A 
ATOM      8  O   UNL     1       1.160   5.618  -1.596  0.00  0.00    -0.267 OA
ATOM      9  O   UNL     1       4.800   2.733  -1.643  0.00  0.00    -0.287 OA
ATOM     10  C   UNL     1       3.783   5.533  -5.495  0.00  0.00    +0.064 C 
BRANCH   2  12
ATOM     11  C   UNL     1       0.478   5.878  -4.882  0.00  0.00    +0.027 C 
ATOM     12  C   UNL     1       1.576   6.569  -4.072  0.00  0.00    +0.122 C 
ENDBRANCH   2  12
ENDBRANCH   1   6
BRANCH   1  13
ATOM     13  N   UNL     1       2.464   4.884   0.730  0.00  0.00    +0.387 N 
ATOM     14  C   UNL     1       2.077   4.475   2.086  0.00  0.00    -0.077 C 
ATOM     15  C   UNL     1       1.809   5.717   2.938  0.00  0.00    -0.015 C 
ATOM     16  C   UNL     1       3.073   6.580   2.987  0.00  0.00    -0.018 C 
ATOM     17  C   UNL     1       3.482   6.952   1.559  0.00  0.00    -0.015 C 
ATOM     18  C   UNL     1       3.702   5.674   0.747  0.00  0.00    -0.077 C 
ATOM     19  C   UNL     1       2.793   7.853   3.787  0.00  0.00    +0.007 C 
ATOM     20  H   UNL     1       1.663   5.524   0.332  0.00  0.00    -0.080 HD
ENDBRANCH   1  13
BRANCH   1  21
ATOM     21  C   UNL     1       1.299   2.950  -0.168  0.00  0.00    -0.054 A 
ATOM     22  C   UNL     1       1.313   1.573  -0.299  0.00  0.00    +0.002 A 
ATOM     23  C   UNL     1       0.125   0.867  -0.311  0.00  0.00    +0.003 A 
ATOM     24  C   UNL     1      -1.079   1.537  -0.198  0.00  0.00    +0.038 A 
ATOM     25  C   UNL     1      -1.094   2.914  -0.062  0.00  0.00    +0.124 A 
ATOM     26  C   UNL     1       0.097   3.621  -0.049  0.00  0.00    +0.040 A 
ATOM     27  F   UNL     1      -2.270   3.569   0.054  0.00  0.00    -0.205 F 
ENDBRANCH   1  21
TORSDOF 4
