REMARK  Name = ZINC04514119
REMARK  7 active torsions:
REMARK  status: ('A' for Active; 'I' for Inactive)
REMARK    1  A    between atoms: C_1  and  C_2
REMARK    2  A    between atoms: C_2  and  C_3
REMARK    3  A    between atoms: C_3  and  C_20
REMARK    4  A    between atoms: N_6  and  C_10
REMARK    5  A    between atoms: C_10  and  C_11
REMARK    6  A    between atoms: N_16  and  C_17
REMARK    7  A    between atoms: C_17  and  C_18
REMARK                            x       y       z     vdW  Elec       q    Type
REMARK                         _______ _______ _______ _____ _____    ______ ____
ROOT
ATOM      1  C   UNL     1       2.490   1.046  -0.015  0.00  0.00    +0.138 C 
ATOM      2  C   UNL     1       2.960   0.764   1.398  0.00  0.00    +0.251 C 
ATOM      3  O   UNL     1       3.225   1.577   2.258  0.00  0.00    -0.272 OA
ATOM      4  N   UNL     1       3.021  -0.578   1.500  0.00  0.00    -0.215 N 
ATOM      5  C   UNL     1       2.658  -1.177   0.360  0.00  0.00    +0.310 C 
ATOM      6  O   UNL     1       2.634  -2.383   0.208  0.00  0.00    -0.252 OA
ATOM      7  N   UNL     1       2.325  -0.295  -0.600  0.00  0.00    -0.281 N 
ATOM      8  H   UNL     1       2.033  -0.503  -1.501  0.00  0.00    +0.152 HD
ENDROOT
BRANCH   1   9
ATOM      9  C   UNL     1       1.175   1.783   0.000  0.00  0.00    -0.015 A 
ATOM     10  C   UNL     1      -0.013   1.076   0.008  0.00  0.00    +0.009 A 
ATOM     11  C   UNL     1      -1.219   1.750   0.017  0.00  0.00    +0.039 A 
ATOM     12  C   UNL     1      -1.237   3.135   0.029  0.00  0.00    +0.123 A 
ATOM     13  C   UNL     1      -0.047   3.842   0.022  0.00  0.00    +0.039 A 
ATOM     14  C   UNL     1       1.158   3.165   0.007  0.00  0.00    +0.009 A 
ATOM     15  F   UNL     1      -2.416   3.795   0.043  0.00  0.00    -0.205 F 
ENDBRANCH   1   9
BRANCH   1  17
ATOM     16  C   UNL     1       4.830   1.024  -0.891  0.00  0.00    +0.007 C 
ATOM     17  C   UNL     1       3.544   1.846  -0.783  0.00  0.00    +0.037 C 
ENDBRANCH   1  17
BRANCH   4  18
ATOM     18  C   UNL     1       3.433  -1.294   2.710  0.00  0.00    +0.214 C 
BRANCH  18  19
ATOM     19  C   UNL     1       2.225  -1.567   3.569  0.00  0.00    +0.238 C 
ATOM     20  O   UNL     1       1.128  -1.200   3.207  0.00  0.00    -0.274 OA
ATOM     21  N   UNL     1       2.365  -2.218   4.741  0.00  0.00    -0.239 N 
ATOM     22  C   UNL     1       1.284  -2.462   5.509  0.00  0.00    +0.306 C 
ATOM     23  O   UNL     1       0.185  -2.094   5.145  0.00  0.00    -0.252 OA
ATOM     24  N   UNL     1       1.424  -3.114   6.680  0.00  0.00    -0.296 N 
ATOM     25  H   UNL     1       3.243  -2.512   5.031  0.00  0.00    +0.159 HD
ATOM     26  H   UNL     1       2.302  -3.408   6.971  0.00  0.00    +0.151 HD
BRANCH  24  27
ATOM     27  C   UNL     1       0.250  -3.379   7.515  0.00  0.00    +0.132 C 
BRANCH  27  28
ATOM     28  C   UNL     1       0.674  -4.115   8.760  0.00  0.00    -0.016 C 
ATOM     29  C   UNL     1       0.367  -3.637   9.940  0.00  0.00    +0.005 C 
ENDBRANCH  27  28
ENDBRANCH  24  27
ENDBRANCH  18  19
ENDBRANCH   4  18
TORSDOF 6
