REMARK  Name = ZINC35992249
REMARK  13 active torsions:
REMARK  status: ('A' for Active; 'I' for Inactive)
REMARK    1  A    between atoms: C_1  and  C_2
REMARK    2  A    between atoms: C_2  and  C_3
REMARK    3  A    between atoms: C_3  and  N_4
REMARK    4  A    between atoms: N_10  and  C_15
REMARK    5  A    between atoms: C_12  and  C_14
REMARK    6  A    between atoms: C_15  and  C_16
REMARK    7  A    between atoms: C_17  and  C_35
REMARK    8  A    between atoms: C_18  and  C_25
REMARK    9  A    between atoms: N_23  and  C_24
REMARK   10  A    between atoms: C_28  and  C_31
REMARK   11  A    between atoms: C_35  and  O_37
REMARK   12  A    between atoms: O_37  and  C_38
REMARK   13  A    between atoms: C_38  and  C_39
REMARK                            x       y       z     vdW  Elec       q    Type
REMARK                         _______ _______ _______ _____ _____    ______ ____
ROOT
ATOM      1  C   UNL     1      -1.435  -8.549  -1.881  0.00  0.00    +0.041 C 
ATOM      2  C   UNL     1      -1.832  -9.814  -1.625  0.00  0.00    +0.080 C 
ATOM      3  C   UNL     1      -0.761 -10.877  -1.495  0.00  0.00    +0.144 C 
ATOM      4  N   UNL     1       0.636 -10.441  -1.659  0.00  0.00    -0.288 N 
ATOM      5  C   UNL     1       0.875  -9.139  -1.912  0.00  0.00    +0.307 C 
ATOM      6  O   UNL     1       2.025  -8.768  -2.050  0.00  0.00    -0.252 OA
ATOM      7  N   UNL     1      -0.112  -8.241  -2.023  0.00  0.00    -0.260 N 
ATOM      8  C   UNL     1       0.248  -6.849  -2.306  0.00  0.00    +0.139 C 
ATOM      9  H   UNL     1       1.366 -11.075  -1.587  0.00  0.00    +0.151 HD
ENDROOT
BRANCH   3  10
ATOM     10  C   UNL     1      -0.893 -11.506  -0.131  0.00  0.00    -0.022 A 
ATOM     11  C   UNL     1      -0.377 -10.864   0.979  0.00  0.00    +0.006 A 
ATOM     12  C   UNL     1      -0.498 -11.440   2.229  0.00  0.00    +0.013 A 
ATOM     13  C   UNL     1      -1.136 -12.658   2.370  0.00  0.00    +0.055 A 
ATOM     14  C   UNL     1      -1.653 -13.300   1.260  0.00  0.00    +0.013 A 
ATOM     15  C   UNL     1      -1.536 -12.721   0.010  0.00  0.00    +0.006 A 
BRANCH  13  16
ATOM     16  C   UNL     1      -1.267 -13.287   3.733  0.00  0.00    +0.417 C 
ATOM     17  F   UNL     1      -2.457 -12.859   4.332  0.00  0.00    -0.166 F 
ATOM     18  F   UNL     1      -1.285 -14.680   3.605  0.00  0.00    -0.166 F 
ATOM     19  F   UNL     1      -0.182 -12.905   4.529  0.00  0.00    -0.166 F 
ENDBRANCH  13  16
ENDBRANCH   3  10
BRANCH   2  20
ATOM     20  C   UNL     1      -3.203 -10.135  -1.483  0.00  0.00    +0.339 C 
ATOM     21  O   UNL     1      -4.048  -9.273  -1.629  0.00  0.00    -0.245 OA
BRANCH  20  22
ATOM     22  O   UNL     1      -3.572 -11.398  -1.185  0.00  0.00    -0.462 OA
BRANCH  22  23
ATOM     23  C   UNL     1      -4.973 -11.652  -1.057  0.00  0.00    +0.229 C 
ATOM     24  C   UNL     1      -5.195 -13.127  -0.720  0.00  0.00    +0.048 C 
ENDBRANCH  22  23
ENDBRANCH  20  22
ENDBRANCH   2  20
BRANCH   1  25
ATOM     25  C   UNL     1      -2.468  -7.461  -2.018  0.00  0.00    +0.136 C 
BRANCH  25  32
ATOM     26  N   UNL     1      -2.694  -3.697   2.821  0.00  0.00    -0.299 N 
ATOM     27  C   UNL     1      -3.736  -4.245   2.165  0.00  0.00    +0.303 C 
ATOM     28  O   UNL     1      -4.829  -3.716   2.210  0.00  0.00    -0.253 OA
ATOM     29  N   UNL     1      -3.565  -5.380   1.458  0.00  0.00    -0.280 N 
ATOM     30  C   UNL     1      -2.284  -6.102   1.488  0.00  0.00    +0.125 C 
ATOM     31  C   UNL     1      -1.837  -6.362   0.045  0.00  0.00    +0.104 C 
ATOM     32  N   UNL     1      -2.917  -7.041  -0.684  0.00  0.00    -0.294 NA
ATOM     33  C   UNL     1      -4.114  -6.194  -0.773  0.00  0.00    +0.107 C 
ATOM     34  C   UNL     1      -4.656  -5.931   0.641  0.00  0.00    +0.088 C 
ATOM     35  C   UNL     1      -5.807  -4.925   0.573  0.00  0.00    +0.029 C 
ATOM     36  H   UNL     1      -1.840  -4.156   2.846  0.00  0.00    +0.150 HD
BRANCH  26  37
ATOM     37  C   UNL     1      -2.851  -2.407   3.497  0.00  0.00    +0.105 C 
BRANCH  37  39
ATOM     38  C   UNL     1      -1.693  -0.666   4.865  0.00  0.00    +0.005 C 
ATOM     39  C   UNL     1      -1.529  -2.013   4.159  0.00  0.00    +0.015 C 
ENDBRANCH  37  39
ENDBRANCH  26  37
ENDBRANCH  25  32
ENDBRANCH   1  25
TORSDOF 9
