REMARK  Name = ZINC06443052
REMARK  12 active torsions:
REMARK  status: ('A' for Active; 'I' for Inactive)
REMARK    1  A    between atoms: C_1  and  C_2
REMARK    2  A    between atoms: C_6  and  N_9
REMARK    3  A    between atoms: C_7  and  C_8
REMARK    4  A    between atoms: C_14  and  C_16
REMARK    5  A    between atoms: C_14  and  C_30
REMARK    6  A    between atoms: C_14  and  N_74
REMARK    7  A    between atoms: C_19  and  C_29
REMARK    8  A    between atoms: C_22  and  C_28
REMARK    9  A    between atoms: N_34  and  C_35
REMARK   10  A    between atoms: C_35  and  C_36
REMARK   11  A    between atoms: C_35  and  C_37
REMARK   12  A    between atoms: C_35  and  C_38
REMARK                            x       y       z     vdW  Elec       q    Type
REMARK                         _______ _______ _______ _____ _____    ______ ____
ROOT
ATOM      1  C   UNL     1       0.000   1.054  -0.086  0.00  0.00    +0.039 C 
ENDROOT
BRANCH   1   2
ATOM      2  C   UNL     1      -0.829   1.728   0.977  0.00  0.00    +0.011 A 
ATOM      3  C   UNL     1      -1.330   1.000   2.006  0.00  0.00    +0.018 A 
ATOM      4  C   UNL     1      -2.128   1.685   3.024  0.00  0.00    +0.002 A 
ATOM      5  C   UNL     1      -2.667   0.989   4.111  0.00  0.00    -0.041 A 
ATOM      6  C   UNL     1      -3.411   1.657   5.042  0.00  0.00    +0.004 A 
ATOM      7  C   UNL     1      -3.637   3.021   4.919  0.00  0.00    +0.005 A 
ATOM      8  C   UNL     1      -3.116   3.727   3.856  0.00  0.00    -0.026 A 
ATOM      9  C   UNL     1      -2.356   3.069   2.896  0.00  0.00    +0.052 A 
ATOM     10  N   UNL     1      -1.822   3.750   1.823  0.00  0.00    -0.322 N 
ATOM     11  H   UNL     1      -1.980   4.704   1.736  0.00  0.00    +0.169 HD
ATOM     12  C   UNL     1      -1.087   3.113   0.895  0.00  0.00    +0.251 A 
ATOM     13  O   UNL     1      -0.631   3.748  -0.041  0.00  0.00    -0.268 OA
ATOM     14  C   UNL     1      -3.371   5.208   3.734  0.00  0.00    +0.046 C 
ATOM     15  C   UNL     1      -2.429  -0.492   4.254  0.00  0.00    +0.044 C 
ENDBRANCH   1   2
BRANCH   1  21
ATOM     16  N   UNL     1      -1.802   0.610  -3.881  0.00  0.00    -0.333 N 
ATOM     17  C   UNL     1      -0.398   1.042  -3.831  0.00  0.00    +0.086 C 
ATOM     18  C   UNL     1       0.198   0.677  -2.470  0.00  0.00    -0.058 C 
ATOM     19  C   UNL     1      -1.990   0.887  -1.456  0.00  0.00    -0.058 C 
ATOM     20  C   UNL     1      -2.586   1.253  -2.817  0.00  0.00    +0.086 C 
ATOM     21  N   UNL     1      -0.586   1.347  -1.411  0.00  0.00    +0.391 N 
ATOM     22  H   UNL     1      -0.562   2.362  -1.569  0.00  0.00    -0.080 HD
BRANCH  16  28
ATOM     23  C   UNL     1      -3.951  -1.067  -7.970  0.00  0.00    +0.044 C 
ATOM     24  C   UNL     1      -3.409   0.068  -7.141  0.00  0.00    -0.046 A 
ATOM     25  C   UNL     1      -3.464   1.363  -7.623  0.00  0.00    +0.004 A 
ATOM     26  C   UNL     1      -2.968   2.408  -6.866  0.00  0.00    +0.002 A 
ATOM     27  C   UNL     1      -2.416   2.162  -5.624  0.00  0.00    +0.023 A 
ATOM     28  C   UNL     1      -2.359   0.863  -5.136  0.00  0.00    +0.033 A 
ATOM     29  C   UNL     1      -2.853  -0.186  -5.902  0.00  0.00    -0.027 A 
ATOM     30  C   UNL     1      -2.788  -1.598  -5.380  0.00  0.00    +0.046 C 
ENDBRANCH  16  28
ENDBRANCH   1  21
BRANCH   1  31
ATOM     31  C   UNL     1       1.406   1.594  -0.043  0.00  0.00    +0.143 A 
ATOM     32  N   UNL     1       1.794   2.797  -0.389  0.00  0.00    -0.115 NA
ATOM     33  N   UNL     1       3.067   2.873  -0.207  0.00  0.00    -0.023 NA
ATOM     34  N   UNL     1       3.503   1.746   0.237  0.00  0.00    -0.043 NA
ATOM     35  N   UNL     1       2.510   0.932   0.352  0.00  0.00    -0.225 N 
BRANCH  35  36
ATOM     36  C   UNL     1       2.570  -0.454   0.825  0.00  0.00    +0.059 C 
ATOM     37  C   UNL     1       2.128  -1.395  -0.297  0.00  0.00    +0.036 C 
ATOM     38  C   UNL     1       4.005  -0.789   1.237  0.00  0.00    +0.036 C 
ATOM     39  C   UNL     1       1.641  -0.623   2.029  0.00  0.00    +0.036 C 
ENDBRANCH  35  36
ENDBRANCH   1  31
TORSDOF 5
