REMARK  Name = ZINC61952162
REMARK  5 active torsions:
REMARK  status: ('A' for Active; 'I' for Inactive)
REMARK    1  A    between atoms: C_1  and  N_2
REMARK    2  A    between atoms: N_2  and  C_3
REMARK    3  A    between atoms: C_6  and  C_9
REMARK    4  A    between atoms: N_10  and  O_11
REMARK    5  A    between atoms: C_13  and  C_15
REMARK                            x       y       z     vdW  Elec       q    Type
REMARK                         _______ _______ _______ _____ _____    ______ ____
ROOT
ATOM      1  C   UNL     1       0.483  -0.992   1.012  0.00  0.00    +0.036 A 
ATOM      2  C   UNL     1       0.293  -2.366   0.918  0.00  0.00    +0.024 A 
ATOM      3  C   UNL     1       0.438  -3.161   2.034  0.00  0.00    +0.013 A 
ATOM      4  C   UNL     1       0.778  -2.585   3.260  0.00  0.00    +0.018 A 
ATOM      5  C   UNL     1       0.970  -1.206   3.350  0.00  0.00    +0.013 A 
ATOM      6  C   UNL     1       0.828  -0.417   2.230  0.00  0.00    +0.024 A 
ENDROOT
BRANCH   4   7
ATOM      7  C   UNL     1       0.935  -3.436   4.460  0.00  0.00    +0.162 C 
ATOM      8  N   UNL     1       0.756  -4.722   4.374  0.00  0.00    -0.072 NA
ATOM      9  N   UNL     1       1.273  -2.863   5.675  0.00  0.00    -0.340 N 
ATOM     10  H   UNL     1       1.406  -1.905   5.739  0.00  0.00    +0.144 HD
ATOM     11  H   UNL     1       1.375  -3.421   6.462  0.00  0.00    +0.144 HD
BRANCH   8  12
ATOM     12  O   UNL     1       0.906  -5.536   5.523  0.00  0.00    -0.408 OA
ATOM     13  H   UNL     1       0.753  -6.477   5.361  0.00  0.00    +0.328 HD
ENDBRANCH   8  12
ENDBRANCH   4   7
BRANCH   1  15
ATOM     14  C   UNL     1       0.683   1.232  -0.062  0.00  0.00    +0.138 C 
ATOM     15  N   UNL     1       0.335  -0.189  -0.121  0.00  0.00    -0.274 N 
ATOM     16  C   UNL     1      -0.130  -0.722  -1.269  0.00  0.00    +0.223 C 
ATOM     17  O   UNL     1      -0.526  -1.868  -1.288  0.00  0.00    -0.275 OA
BRANCH  16  18
ATOM     18  C   UNL     1      -0.155   0.105  -2.528  0.00  0.00    +0.076 C 
ATOM     19  C   UNL     1      -1.435   0.965  -2.569  0.00  0.00    +0.013 C 
ATOM     20  C   UNL     1      -1.845   0.966  -4.063  0.00  0.00    +0.001 C 
ATOM     21  C   UNL     1      -1.510  -0.479  -4.509  0.00  0.00    +0.001 C 
ATOM     22  C   UNL     1      -0.203  -0.813  -3.762  0.00  0.00    +0.013 C 
ENDBRANCH  16  18
ENDBRANCH   1  15
TORSDOF 4
