REMARK  Name = ZINC08685168
REMARK  8 active torsions:
REMARK  status: ('A' for Active; 'I' for Inactive)
REMARK    1  A    between atoms: C_4  and  N_7
REMARK    2  A    between atoms: C_8  and  C_10
REMARK    3  A    between atoms: C_10  and  S_11
REMARK    4  A    between atoms: S_11  and  C_12
REMARK    5  A    between atoms: C_15  and  C_23
REMARK    6  A    between atoms: N_16  and  C_17
REMARK    7  A    between atoms: C_23  and  N_24
REMARK    8  A    between atoms: C_25  and  C_27
REMARK                            x       y       z     vdW  Elec       q    Type
REMARK                         _______ _______ _______ _____ _____    ______ ____
ROOT
ATOM      1  C   UNL     1       6.276  -5.205   0.371  0.00  0.00    +0.197 A 
ATOM      2  N   UNL     1       7.412  -4.547   0.370  0.00  0.00    -0.122 NA
ATOM      3  N   UNL     1       8.394  -5.371   0.460  0.00  0.00    -0.132 NA
ATOM      4  C   UNL     1       7.950  -6.595   0.522  0.00  0.00    +0.156 A 
ATOM      5  N   UNL     1       6.582  -6.534   0.474  0.00  0.00    -0.273 N 
ENDROOT
BRANCH   5   6
ATOM      6  C   UNL     1       5.684  -7.610   0.518  0.00  0.00    +0.050 A 
ATOM      7  C   UNL     1       5.586  -8.388   1.664  0.00  0.00    +0.026 A 
ATOM      8  C   UNL     1       4.700  -9.446   1.704  0.00  0.00    +0.002 A 
ATOM      9  C   UNL     1       3.911  -9.732   0.605  0.00  0.00    +0.000 A 
ATOM     10  C   UNL     1       4.006  -8.959  -0.537  0.00  0.00    +0.002 A 
ATOM     11  C   UNL     1       4.886  -7.895  -0.582  0.00  0.00    +0.026 A 
ENDBRANCH   5   6
BRANCH   1  12
ATOM     12  S   UNL     1       4.661  -4.506   0.267  0.00  0.00    -0.076 S 
BRANCH  12  13
ATOM     13  C   UNL     1       4.962  -2.721   0.153  0.00  0.00    +0.173 C 
BRANCH  13  15
ATOM     14  N   UNL     1       3.622  -0.651  -0.037  0.00  0.00    -0.285 N 
ATOM     15  C   UNL     1       3.645  -1.995   0.057  0.00  0.00    +0.227 C 
ATOM     16  O   UNL     1       2.606  -2.620   0.064  0.00  0.00    -0.275 OA
ATOM     17  H   UNL     1       4.452  -0.156  -0.121  0.00  0.00    +0.155 HD
BRANCH  14  21
ATOM     18  C   UNL     1      -0.015   1.381   0.029  0.00  0.00    +0.000 A 
ATOM     19  C   UNL     1       0.140   0.218   0.763  0.00  0.00    +0.002 A 
ATOM     20  C   UNL     1       1.344  -0.457   0.743  0.00  0.00    +0.023 A 
ATOM     21  C   UNL     1       2.400   0.031  -0.015  0.00  0.00    +0.033 A 
ATOM     22  C   UNL     1       2.241   1.198  -0.751  0.00  0.00    +0.023 A 
ATOM     23  C   UNL     1       1.034   1.870  -0.727  0.00  0.00    +0.002 A 
ENDBRANCH  14  21
ENDBRANCH  13  15
ENDBRANCH  12  13
ENDBRANCH   1  12
BRANCH   4  24
ATOM     24  C   UNL     1       8.785  -7.844   0.633  0.00  0.00    +0.181 C 
BRANCH  24  25
ATOM     25  N   UNL     1       9.005  -8.161   2.046  0.00  0.00    -0.308 N 
ATOM     26  C   UNL     1       9.730  -9.244   2.390  0.00  0.00    +0.220 C 
ATOM     27  O   UNL     1      10.201  -9.956   1.528  0.00  0.00    -0.275 OA
ATOM     28  H   UNL     1       8.628  -7.591   2.735  0.00  0.00    +0.149 HD
BRANCH  26  29
ATOM     29  C   UNL     1       9.956  -9.569   3.844  0.00  0.00    +0.048 C 
ATOM     30  C   UNL     1      10.686  -8.406   4.519  0.00  0.00    +0.019 C 
ATOM     31  C   UNL     1      10.916  -8.737   5.995  0.00  0.00    -0.009 C 
ATOM     32  C   UNL     1      11.764 -10.005   6.108  0.00  0.00    +0.007 C 
ATOM     33  C   UNL     1      11.034 -11.168   5.432  0.00  0.00    -0.009 C 
ATOM     34  C   UNL     1      10.804 -10.838   3.956  0.00  0.00    +0.019 C 
ATOM     35  C   UNL     1       9.686 -11.393   6.120  0.00  0.00    +0.007 C 
ATOM     36  C   UNL     1       8.838 -10.124   6.008  0.00  0.00    -0.009 C 
ATOM     37  C   UNL     1       9.568  -8.962   6.683  0.00  0.00    +0.007 C 
ATOM     38  C   UNL     1       8.608  -9.794   4.532  0.00  0.00    +0.019 C 
ENDBRANCH  26  29
ENDBRANCH  24  25
ENDBRANCH   4  24
TORSDOF 8
