REMARK  Name = ZINC43746796
REMARK  5 active torsions:
REMARK  status: ('A' for Active; 'I' for Inactive)
REMARK    1  A    between atoms: C_1  and  C_2
REMARK    2  A    between atoms: C_4  and  O_38
REMARK    3  A    between atoms: C_6  and  C_37
REMARK    4  A    between atoms: C_7  and  C_13
REMARK    5  A    between atoms: C_13  and  C_14
REMARK                            x       y       z     vdW  Elec       q    Type
REMARK                         _______ _______ _______ _____ _____    ______ ____
ROOT
ATOM      1  C   UNL     1       1.484  -6.852   1.534  0.00  0.00    +0.221 C 
ATOM      2  O   UNL     1       2.208  -6.051   2.087  0.00  0.00    -0.275 OA
ATOM      3  N   UNL     1       1.738  -8.172   1.635  0.00  0.00    -0.294 N 
ATOM      4  C   UNL     1       0.685  -9.166   1.379  0.00  0.00    +0.109 C 
ATOM      5  C   UNL     1       1.153 -10.134   0.290  0.00  0.00    +0.023 C 
ATOM      6  C   UNL     1       2.460 -10.809   0.721  0.00  0.00    +0.034 C 
ATOM      7  C   UNL     1       3.477  -9.722   1.022  0.00  0.00    -0.053 C 
ATOM      8  C   UNL     1       4.631  -9.754   0.428  0.00  0.00    -0.024 C 
ATOM      9  C   UNL     1       5.689  -8.704   0.631  0.00  0.00    -0.002 C 
ATOM     10  C   UNL     1       5.515  -8.083   2.022  0.00  0.00    +0.010 C 
ATOM     11  C   UNL     1       4.085  -7.540   2.113  0.00  0.00    -0.002 C 
ATOM     12  C   UNL     1       3.075  -8.659   2.000  0.00  0.00    +0.103 C 
ATOM     13  C   UNL     1       3.854  -6.554   0.968  0.00  0.00    -0.073 C 
ATOM     14  N   UNL     1       5.104  -6.357   0.220  0.00  0.00    +0.382 N 
ATOM     15  C   UNL     1       5.524  -7.622  -0.444  0.00  0.00    -0.062 C 
ATOM     16  C   UNL     1       6.866  -7.434  -1.159  0.00  0.00    -0.015 C 
ATOM     17  C   UNL     1       6.726  -6.348  -2.229  0.00  0.00    -0.003 C 
ATOM     18  C   UNL     1       6.240  -5.056  -1.565  0.00  0.00    -0.019 C 
ATOM     19  C   UNL     1       4.891  -5.314  -0.793  0.00  0.00    -0.078 C 
ATOM     20  H   UNL     1       5.831  -6.064   0.854  0.00  0.00    -0.081 HD
ENDROOT
BRANCH   1  21
ATOM     21  C   UNL     1       0.301  -6.372   0.733  0.00  0.00    +0.138 C 
BRANCH  21  28
ATOM     22  C   UNL     1       0.448   1.585   0.187  0.00  0.00    +0.044 C 
ATOM     23  C   UNL     1       0.545   0.085   0.078  0.00  0.00    -0.043 A 
ATOM     24  C   UNL     1       1.194  -0.481  -1.007  0.00  0.00    +0.049 A 
ATOM     25  C   UNL     1       1.290  -1.857  -1.121  0.00  0.00    +0.128 A 
ATOM     26  C   UNL     1       0.726  -2.673  -0.129  0.00  0.00    +0.062 A 
ATOM     27  C   UNL     1       0.808  -4.132  -0.215  0.00  0.00    -0.026 A 
ATOM     28  C   UNL     1       0.242  -4.866   0.778  0.00  0.00    +0.049 A 
ATOM     29  C   UNL     1      -0.401  -4.216   1.851  0.00  0.00    +0.341 A 
ATOM     30  O   UNL     1      -0.904  -4.885   2.736  0.00  0.00    -0.245 OA
ATOM     31  O   UNL     1      -0.473  -2.877   1.923  0.00  0.00    -0.422 OA
ATOM     32  C   UNL     1       0.069  -2.090   0.969  0.00  0.00    +0.143 A 
ATOM     33  C   UNL     1      -0.009  -0.708   1.062  0.00  0.00    +0.050 A 
ATOM     34  C   UNL     1       1.502  -4.801  -1.373  0.00  0.00    +0.045 C 
BRANCH  25  35
ATOM     35  O   UNL     1       1.925  -2.412  -2.185  0.00  0.00    -0.506 OA
ATOM     36  H   UNL     1       2.871  -2.556  -2.046  0.00  0.00    +0.292 HD
ENDBRANCH  25  35
ENDBRANCH  21  28
ENDBRANCH   1  21
TORSDOF 3
