REMARK  Name = ZINC59423752
REMARK  10 active torsions:
REMARK  status: ('A' for Active; 'I' for Inactive)
REMARK    1  A    between atoms: C_1  and  C_2
REMARK    2  A    between atoms: C_4  and  C_22
REMARK    3  A    between atoms: C_6  and  N_8
REMARK    4  A    between atoms: N_8  and  C_9
REMARK    5  A    between atoms: N_8  and  C_10
REMARK    6  A    between atoms: C_10  and  C_11
REMARK    7  A    between atoms: N_13  and  C_14
REMARK    8  A    between atoms: C_15  and  C_21
REMARK    9  A    between atoms: N_17  and  C_20
REMARK   10  A    between atoms: C_18  and  C_19
REMARK                            x       y       z     vdW  Elec       q    Type
REMARK                         _______ _______ _______ _____ _____    ______ ____
ROOT
ATOM      1  C   UNL     1      -1.103  -2.016   4.775  0.00  0.00    +0.235 C 
ATOM      2  O   UNL     1      -1.776  -3.017   4.900  0.00  0.00    -0.274 OA
ATOM      3  N   UNL     1      -1.605  -0.817   5.130  0.00  0.00    -0.281 N 
ATOM      4  H   UNL     1      -1.047  -0.025   5.086  0.00  0.00    +0.155 HD
ENDROOT
BRANCH   3   5
ATOM      5  C   UNL     1      -2.940  -0.714   5.564  0.00  0.00    +0.077 A 
ATOM      6  C   UNL     1      -4.081  -1.022   4.809  0.00  0.00    +0.081 A 
ATOM      7  N   UNL     1      -5.136  -0.802   5.549  0.00  0.00    -0.175 NA
ATOM      8  N   UNL     1      -4.709  -0.345   6.802  0.00  0.00    -0.270 N 
ATOM      9  C   UNL     1      -3.352  -0.304   6.791  0.00  0.00    +0.057 A 
ATOM     10  C   UNL     1      -2.465   0.123   7.932  0.00  0.00    +0.067 C 
ATOM     11  C   UNL     1      -5.574   0.018   7.928  0.00  0.00    +0.172 C 
ATOM     12  C   UNL     1      -4.088  -1.521   3.387  0.00  0.00    +0.069 C 
ENDBRANCH   3   5
BRANCH   1  13
ATOM     13  C   UNL     1       0.296  -2.114   4.223  0.00  0.00    +0.200 C 
BRANCH  13  14
ATOM     14  N   UNL     1       0.604  -3.513   3.916  0.00  0.00    -0.324 N 
ATOM     15  C   UNL     1       1.210  -4.370   4.937  0.00  0.00    +0.130 C 
BRANCH  14  21
ATOM     16  C   UNL     1      -1.161  -2.851  -0.623  0.00  0.00    +0.044 C 
ATOM     17  C   UNL     1      -0.537  -3.731   0.429  0.00  0.00    -0.048 A 
ATOM     18  C   UNL     1      -0.246  -5.052   0.141  0.00  0.00    +0.006 A 
ATOM     19  C   UNL     1       0.327  -5.863   1.104  0.00  0.00    -0.048 A 
ATOM     20  C   UNL     1       0.610  -5.356   2.357  0.00  0.00    +0.026 A 
ATOM     21  C   UNL     1       0.319  -4.029   2.650  0.00  0.00    +0.030 A 
ATOM     22  C   UNL     1      -0.252  -3.216   1.679  0.00  0.00    +0.026 A 
ATOM     23  C   UNL     1       0.642  -7.302   0.786  0.00  0.00    +0.044 C 
ENDBRANCH  14  21
ENDBRANCH  13  14
ENDBRANCH   1  13
TORSDOF 4
