REMARK  Name = ZINC40325164
REMARK  12 active torsions:
REMARK  status: ('A' for Active; 'I' for Inactive)
REMARK    1  A    between atoms: C_1  and  C_2
REMARK    2  A    between atoms: C_2  and  S_3
REMARK    3  A    between atoms: S_3  and  C_6
REMARK    4  A    between atoms: C_9  and  C_12
REMARK    5  A    between atoms: C_14  and  C_17
REMARK    6  A    between atoms: N_19  and  C_20
REMARK    7  A    between atoms: C_20  and  C_21
REMARK    8  A    between atoms: C_21  and  C_23
REMARK    9  A    between atoms: C_21  and  N_30
REMARK   10  A    between atoms: C_26  and  C_29
REMARK   11  A    between atoms: N_30  and  C_31
REMARK   12  A    between atoms: N_30  and  C_32
REMARK                            x       y       z     vdW  Elec       q    Type
REMARK                         _______ _______ _______ _____ _____    ______ ____
ROOT
ATOM      1  C   UNL     1      -0.486  -9.940  -1.671  0.00  0.00    +0.266 C 
ATOM      2  O   UNL     1      -1.428  -9.786  -2.422  0.00  0.00    -0.268 OA
ATOM      3  N   UNL     1      -0.135 -11.180  -1.277  0.00  0.00    -0.311 N 
ATOM      4  H   UNL     1       0.617 -11.304  -0.677  0.00  0.00    +0.149 HD
ENDROOT
BRANCH   1   7
ATOM      5  C   UNL     1       0.940  -6.646  -0.874  0.00  0.00    +0.168 A 
ATOM      6  C   UNL     1       0.022  -7.416  -1.517  0.00  0.00    +0.086 A 
ATOM      7  C   UNL     1       0.278  -8.764  -1.187  0.00  0.00    +0.168 A 
ATOM      8  N   UNL     1       1.310  -8.794  -0.378  0.00  0.00    -0.073 NA
ATOM      9  O   UNL     1       1.746  -7.464  -0.172  0.00  0.00    -0.354 OA
BRANCH   5  13
ATOM     10  C   UNL     1       1.225  -2.413  -1.063  0.00  0.00    +0.088 A 
ATOM     11  C   UNL     1       2.125  -3.130  -0.296  0.00  0.00    +0.027 A 
ATOM     12  C   UNL     1       2.038  -4.505  -0.230  0.00  0.00    +0.013 A 
ATOM     13  C   UNL     1       1.039  -5.173  -0.939  0.00  0.00    +0.020 A 
ATOM     14  C   UNL     1       0.133  -4.443  -1.711  0.00  0.00    +0.013 A 
ATOM     15  C   UNL     1       0.228  -3.068  -1.765  0.00  0.00    +0.027 A 
BRANCH  10  16
ATOM     16  S   UNL     1       1.343  -0.656  -1.142  0.00  0.00    -0.003 S 
ATOM     17  O   UNL     1       0.756  -0.309  -2.388  0.00  0.00    -0.169 OA
ATOM     18  O   UNL     1       2.711  -0.373  -0.881  0.00  0.00    -0.169 OA
BRANCH  16  20
ATOM     19  C   UNL     1       0.339   1.472   0.253  0.00  0.00    +0.028 C 
ATOM     20  C   UNL     1       0.310  -0.058   0.224  0.00  0.00    +0.168 C 
ENDBRANCH  16  20
ENDBRANCH  10  16
ENDBRANCH   5  13
ENDBRANCH   1   7
BRANCH   3  21
ATOM     21  C   UNL     1      -0.889 -12.342  -1.755  0.00  0.00    +0.094 C 
BRANCH  21  22
ATOM     22  C   UNL     1      -0.222 -13.624  -1.254  0.00  0.00    -0.021 C 
BRANCH  22  23
ATOM     23  C   UNL     1      -0.297 -13.675   0.250  0.00  0.00    -0.059 A 
ATOM     24  C   UNL     1      -1.461 -14.087   0.871  0.00  0.00    +0.002 A 
ATOM     25  C   UNL     1      -1.530 -14.134   2.251  0.00  0.00    +0.003 A 
ATOM     26  C   UNL     1      -0.434 -13.770   3.010  0.00  0.00    -0.050 A 
ATOM     27  C   UNL     1       0.731 -13.359   2.389  0.00  0.00    +0.003 A 
ATOM     28  C   UNL     1       0.801 -13.316   1.010  0.00  0.00    +0.002 A 
ATOM     29  C   UNL     1      -0.509 -13.820   4.514  0.00  0.00    +0.044 C 
ENDBRANCH  22  23
BRANCH  22  30
ATOM     30  N   UNL     1      -0.915 -14.790  -1.819  0.00  0.00    +0.382 N 
ATOM     31  C   UNL     1      -0.841 -14.741  -3.285  0.00  0.00    -0.096 C 
ATOM     32  C   UNL     1      -0.275 -16.021  -1.337  0.00  0.00    -0.096 C 
ATOM     33  H   UNL     1      -1.882 -14.778  -1.530  0.00  0.00    -0.082 HD
ENDBRANCH  22  30
ENDBRANCH  21  22
ENDBRANCH   3  21
TORSDOF 8
