REMARK  Name = ZINC08742767
REMARK  6 active torsions:
REMARK  status: ('A' for Active; 'I' for Inactive)
REMARK    1  A    between atoms: C_9  and  C_11
REMARK    2  A    between atoms: C_12  and  O_27
REMARK    3  A    between atoms: C_14  and  S_26
REMARK    4  A    between atoms: N_15  and  C_18
REMARK    5  A    between atoms: C_18  and  C_19
REMARK    6  A    between atoms: C_19  and  C_20
REMARK                            x       y       z     vdW  Elec       q    Type
REMARK                         _______ _______ _______ _____ _____    ______ ____
ROOT
ATOM      1  C   UNL     1      -0.934   7.020  -5.416  0.00  0.00    +0.069 A 
ATOM      2  C   UNL     1      -1.108   6.297  -6.584  0.00  0.00    +0.222 A 
ATOM      3  N   UNL     1      -0.955   4.970  -6.572  0.00  0.00    -0.189 NA
ATOM      4  C   UNL     1      -0.633   4.329  -5.466  0.00  0.00    +0.172 A 
ATOM      5  N   UNL     1      -0.456   4.993  -4.290  0.00  0.00    -0.287 N 
ATOM      6  C   UNL     1      -0.598   6.334  -4.243  0.00  0.00    +0.260 A 
ATOM      7  O   UNL     1      -0.437   6.939  -3.195  0.00  0.00    -0.267 OA
ENDROOT
BRANCH   1  16
ATOM      8  C   UNL     1       2.698  10.303  -4.609  0.00  0.00    +0.000 A 
ATOM      9  C   UNL     1       2.594   9.227  -5.471  0.00  0.00    +0.000 A 
ATOM     10  C   UNL     1       1.359   8.661  -5.717  0.00  0.00    +0.002 A 
ATOM     11  C   UNL     1       0.221   9.166  -5.105  0.00  0.00    -0.054 A 
ATOM     12  C   UNL     1       0.327  10.237  -4.244  0.00  0.00    -0.047 A 
ATOM     13  C   UNL     1       1.567  10.806  -3.998  0.00  0.00    +0.004 A 
ATOM     14  C   UNL     1      -0.880  10.817  -3.550  0.00  0.00    +0.016 C 
ATOM     15  C   UNL     1      -2.157  10.349  -4.248  0.00  0.00    -0.077 C 
ATOM     16  C   UNL     1      -1.104   8.517  -5.408  0.00  0.00    +0.001 C 
ATOM     17  N   UNL     1      -2.102   8.883  -4.393  0.00  0.00    +0.387 N 
ATOM     18  H   UNL     1      -3.024   8.534  -4.682  0.00  0.00    -0.085 HD
ATOM     19  H   UNL     1      -1.843   8.461  -3.494  0.00  0.00    -0.085 HD
ENDBRANCH   1  16
BRANCH   4  20
ATOM     20  S   UNL     1      -0.436   2.579  -5.508  0.00  0.00    -0.105 S 
ATOM     21  H   UNL     1      -0.703   2.335  -6.871  0.00  0.00    +0.110 HD
ENDBRANCH   4  20
BRANCH   2  22
ATOM     22  O   UNL     1      -1.434   6.932  -7.734  0.00  0.00    -0.492 OA
ATOM     23  H   UNL     1      -1.534   6.343  -8.494  0.00  0.00    +0.294 HD
ENDBRANCH   2  22
BRANCH   5  24
ATOM     24  C   UNL     1      -0.104   4.251  -3.077  0.00  0.00    +0.131 C 
BRANCH  24  25
ATOM     25  C   UNL     1      -1.382   3.833  -2.347  0.00  0.00    +0.052 C 
BRANCH  25  26
ATOM     26  C   UNL     1      -1.020   3.070  -1.099  0.00  0.00    -0.072 C 
ATOM     27  C   UNL     1      -0.952   3.725   0.015  0.00  0.00    -0.028 C 
ATOM     28  C   UNL     1      -0.595   3.106   1.335  0.00  0.00    +0.027 C 
ATOM     29  C   UNL     1      -0.739   1.585   1.264  0.00  0.00    +0.004 C 
ATOM     30  C   UNL     1      -0.013   1.086   0.008  0.00  0.00    +0.005 C 
ATOM     31  C   UNL     1      -0.761   1.597  -1.225  0.00  0.00    +0.030 C 
ENDBRANCH  25  26
ENDBRANCH  24  25
ENDBRANCH   5  24
TORSDOF 6
