REMARK  Name = ZINC15775138
REMARK  9 active torsions:
REMARK  status: ('A' for Active; 'I' for Inactive)
REMARK    1  A    between atoms: C_1  and  C_2
REMARK    2  A    between atoms: C_7  and  C_8
REMARK    3  A    between atoms: C_10  and  C_14
REMARK    4  A    between atoms: C_11  and  C_13
REMARK    5  A    between atoms: C_14  and  C_15
REMARK    6  A    between atoms: C_16  and  C_34
REMARK    7  A    between atoms: N_18  and  C_21
REMARK    8  A    between atoms: C_19  and  C_20
REMARK    9  A    between atoms: C_21  and  C_22
REMARK                            x       y       z     vdW  Elec       q    Type
REMARK                         _______ _______ _______ _____ _____    ______ ____
ROOT
ATOM      1  C   UNL     1       2.771   3.650   3.584  0.00  0.00    +0.002 A 
ATOM      2  C   UNL     1       2.917   4.665   4.534  0.00  0.00    +0.064 A 
ATOM      3  N   UNL     1       3.745   5.558   4.054  0.00  0.00    -0.176 NA
ATOM      4  N   UNL     1       4.153   5.137   2.782  0.00  0.00    -0.259 N 
ATOM      5  C   UNL     1       3.545   3.961   2.519  0.00  0.00    +0.040 A 
ATOM      6  C   UNL     1       3.699   3.143   1.262  0.00  0.00    +0.065 C 
ATOM      7  C   UNL     1       2.237   4.723   5.878  0.00  0.00    +0.068 C 
ENDROOT
BRANCH   1   8
ATOM      8  C   UNL     1       1.908   2.422   3.724  0.00  0.00    +0.097 C 
BRANCH   8  11
ATOM      9  C   UNL     1      -0.981   2.860   1.595  0.00  0.00    +0.228 A 
ATOM     10  N   UNL     1       0.284   2.563   1.776  0.00  0.00    -0.213 NA
ATOM     11  C   UNL     1       0.568   2.673   3.082  0.00  0.00    +0.087 A 
ATOM     12  C   UNL     1      -0.557   3.048   3.718  0.00  0.00    +0.126 A 
ATOM     13  O   UNL     1      -1.525   3.158   2.787  0.00  0.00    -0.440 OA
ATOM     14  C   UNL     1      -0.708   3.292   5.198  0.00  0.00    +0.088 C 
BRANCH   9  21
ATOM     15  C   UNL     1      -3.550   1.547   1.370  0.00  0.00    +0.044 C 
ATOM     16  C   UNL     1      -2.930   2.230   0.178  0.00  0.00    -0.038 A 
ATOM     17  C   UNL     1      -3.588   2.233  -1.036  0.00  0.00    +0.004 A 
ATOM     18  C   UNL     1      -3.021   2.859  -2.131  0.00  0.00    +0.000 A 
ATOM     19  C   UNL     1      -1.792   3.486  -2.018  0.00  0.00    +0.001 A 
ATOM     20  C   UNL     1      -1.126   3.493  -0.810  0.00  0.00    +0.013 A 
ATOM     21  C   UNL     1      -1.691   2.859   0.298  0.00  0.00    +0.040 A 
ENDBRANCH   9  21
ENDBRANCH   8  11
ENDBRANCH   1   8
BRANCH   4  22
ATOM     22  C   UNL     1       5.080   5.845   1.896  0.00  0.00    +0.239 C 
BRANCH  22  23
ATOM     23  C   UNL     1       6.489   5.387   2.173  0.00  0.00    +0.240 C 
ATOM     24  O   UNL     1       6.698   4.551   3.026  0.00  0.00    -0.273 OA
ATOM     25  N   UNL     1       7.516   5.906   1.472  0.00  0.00    -0.263 N 
ATOM     26  C   UNL     1       8.811   5.485   1.727  0.00  0.00    +0.165 A 
ATOM     27  N   UNL     1       9.929   5.869   1.156  0.00  0.00    -0.225 NA
ATOM     28  C   UNL     1      11.133   5.369   1.508  0.00  0.00    +0.080 A 
ATOM     29  C   UNL     1      12.403   5.694   0.978  0.00  0.00    +0.029 A 
ATOM     30  C   UNL     1      13.537   5.089   1.453  0.00  0.00    +0.002 A 
ATOM     31  C   UNL     1      13.482   4.141   2.465  0.00  0.00    +0.001 A 
ATOM     32  C   UNL     1      12.257   3.798   3.007  0.00  0.00    +0.017 A 
ATOM     33  C   UNL     1      11.117   4.399   2.537  0.00  0.00    +0.041 A 
ATOM     34  S   UNL     1       9.386   4.287   2.922  0.00  0.00    -0.052 S 
ATOM     35  H   UNL     1       7.349   6.575   0.790  0.00  0.00    +0.157 HD
ENDBRANCH  22  23
ENDBRANCH   4  22
TORSDOF 5
