REMARK  Name = ZINC66255526
REMARK  6 active torsions:
REMARK  status: ('A' for Active; 'I' for Inactive)
REMARK    1  A    between atoms: C_1  and  C_2
REMARK    2  A    between atoms: C_9  and  N_12
REMARK    3  A    between atoms: C_13  and  C_14
REMARK    4  A    between atoms: C_18  and  O_21
REMARK    5  A    between atoms: C_19  and  O_20
REMARK    6  A    between atoms: O_21  and  C_22
REMARK                            x       y       z     vdW  Elec       q    Type
REMARK                         _______ _______ _______ _____ _____    ______ ____
ROOT
ATOM      1  N   UNL     1       0.047  -2.023   3.643  0.00  0.00    -0.253 NA
ATOM      2  C   UNL     1      -0.038  -2.676   4.769  0.00  0.00    +0.123 C 
ENDROOT
BRANCH   1  11
ATOM      3  C   UNL     1       3.893  -0.140   0.943  0.00  0.00    +0.065 C 
ATOM      4  C   UNL     1       2.860  -1.206   0.684  0.00  0.00    +0.039 A 
ATOM      5  C   UNL     1       2.874  -1.884  -0.532  0.00  0.00    +0.023 A 
ATOM      6  C   UNL     1       1.945  -2.854  -0.783  0.00  0.00    +0.012 A 
ATOM      7  C   UNL     1       0.992  -3.134   0.214  0.00  0.00    +0.002 A 
ATOM      8  C   UNL     1       0.007  -4.117   0.029  0.00  0.00    +0.010 A 
ATOM      9  C   UNL     1      -0.907  -4.375   1.005  0.00  0.00    +0.003 A 
ATOM     10  C   UNL     1      -0.903  -3.686   2.209  0.00  0.00    +0.030 A 
ATOM     11  C   UNL     1       0.044  -2.701   2.459  0.00  0.00    +0.090 A 
ATOM     12  C   UNL     1       1.037  -2.405   1.427  0.00  0.00    +0.097 A 
ATOM     13  N   UNL     1       1.972  -1.474   1.613  0.00  0.00    -0.250 NA
ENDBRANCH   1  11
BRANCH   2  14
ATOM     14  C   UNL     1      -0.154  -1.942   6.038  0.00  0.00    +0.038 A 
ATOM     15  C   UNL     1      -0.239  -2.639   7.249  0.00  0.00    +0.013 A 
ATOM     16  C   UNL     1      -0.347  -1.947   8.435  0.00  0.00    +0.004 A 
ATOM     17  C   UNL     1      -0.373  -0.562   8.437  0.00  0.00    +0.049 A 
ATOM     18  C   UNL     1      -0.290   0.142   7.247  0.00  0.00    +0.162 A 
ATOM     19  C   UNL     1      -0.173  -0.541   6.042  0.00  0.00    +0.167 A 
BRANCH  19  20
ATOM     20  O   UNL     1      -0.086   0.147   4.874  0.00  0.00    -0.503 OA
ATOM     21  H   UNL     1      -0.940   0.334   4.462  0.00  0.00    +0.292 HD
ENDBRANCH  19  20
BRANCH  18  22
ATOM     22  O   UNL     1      -0.317   1.502   7.259  0.00  0.00    -0.491 OA
ATOM     23  C   UNL     1      -0.432   2.138   8.533  0.00  0.00    +0.277 C 
ENDBRANCH  18  22
ENDBRANCH   2  14
TORSDOF 4
