REMARK  Name = ZINC04456007
REMARK  4 active torsions:
REMARK  status: ('A' for Active; 'I' for Inactive)
REMARK    1  A    between atoms: C_1  and  C_2
REMARK    2  A    between atoms: C_7  and  C_8
REMARK    3  A    between atoms: C_10  and  C_19
REMARK    4  A    between atoms: C_22  and  N_25
REMARK                            x       y       z     vdW  Elec       q    Type
REMARK                         _______ _______ _______ _____ _____    ______ ____
ROOT
ATOM      1  C   UNL     1       8.096   2.638  -2.163  0.00  0.00    +0.044 C 
ATOM      2  C   UNL     1       7.106   1.956  -1.254  0.00  0.00    -0.046 A 
ATOM      3  C   UNL     1       7.556   1.140  -0.233  0.00  0.00    +0.004 A 
ATOM      4  C   UNL     1       6.644   0.513   0.594  0.00  0.00    +0.006 A 
ATOM      5  C   UNL     1       5.290   0.696   0.408  0.00  0.00    -0.019 A 
ATOM      6  C   UNL     1       4.821   1.526  -0.614  0.00  0.00    +0.035 A 
ATOM      7  C   UNL     1       5.756   2.148  -1.445  0.00  0.00    -0.026 A 
ATOM      8  C   UNL     1       5.281   3.038  -2.564  0.00  0.00    +0.046 C 
ATOM      9  N   UNL     1       3.455   1.763  -0.866  0.00  0.00    -0.336 N 
ATOM     10  C   UNL     1       2.490   1.048  -0.016  0.00  0.00    +0.105 C 
ATOM     11  C   UNL     1       3.075   1.004   1.381  0.00  0.00    +0.029 C 
ATOM     12  C   UNL     1       4.288   0.029   1.269  0.00  0.00    +0.049 C 
ATOM     13  C   UNL     1       4.574  -0.314   2.684  0.00  0.00    -0.023 C 
ATOM     14  C   UNL     1       3.444  -0.222   3.377  0.00  0.00    -0.030 C 
ATOM     15  C   UNL     1       2.306   0.235   2.461  0.00  0.00    +0.033 C 
ATOM     16  H   UNL     1       3.229   1.651  -1.843  0.00  0.00    +0.147 HD
ENDROOT
BRANCH  10  17
ATOM     17  C   UNL     1       1.175   1.783   0.000  0.00  0.00    -0.027 A 
ATOM     18  C   UNL     1      -0.013   1.076   0.008  0.00  0.00    +0.008 A 
ATOM     19  C   UNL     1      -1.219   1.751   0.017  0.00  0.00    +0.033 A 
ATOM     20  C   UNL     1      -1.238   3.133   0.029  0.00  0.00    +0.126 A 
ATOM     21  C   UNL     1      -0.050   3.840   0.022  0.00  0.00    +0.033 A 
ATOM     22  C   UNL     1       1.156   3.165   0.008  0.00  0.00    +0.008 A 
BRANCH  20  23
ATOM     23  N   UNL     1      -2.529   3.855   0.044  0.00  0.00    +0.056 N 
ATOM     24  O   UNL     1      -2.546   5.073   0.050  0.00  0.00    -0.126 OA
ATOM     25  O   UNL     1      -3.576   3.232   0.050  0.00  0.00    -0.126 OA
ENDBRANCH  20  23
ENDBRANCH  10  17
TORSDOF 2
