REMARK  Name = ZINC16027445
REMARK  7 active torsions:
REMARK  status: ('A' for Active; 'I' for Inactive)
REMARK    1  A    between atoms: C_1  and  C_2
REMARK    2  A    between atoms: C_2  and  C_3
REMARK    3  A    between atoms: C_2  and  C_4
REMARK    4  A    between atoms: C_7  and  S_10
REMARK    5  A    between atoms: S_10  and  N_13
REMARK    6  A    between atoms: C_16  and  C_19
REMARK    7  A    between atoms: N_21  and  C_22
REMARK                            x       y       z     vdW  Elec       q    Type
REMARK                         _______ _______ _______ _____ _____    ______ ____
ROOT
ATOM      1  N   UNL     1       1.139   4.298   1.587  0.00  0.00    -0.177 NA
ATOM      2  C   UNL     1      -0.120   4.505   2.315  0.00  0.00    +0.110 C 
ATOM      3  C   UNL     1      -0.077   3.681   3.611  0.00  0.00    +0.030 C 
ATOM      4  C   UNL     1       1.177   4.055   4.405  0.00  0.00    +0.078 C 
ATOM      5  C   UNL     1       2.423   3.723   3.581  0.00  0.00    +0.030 C 
ATOM      6  C   UNL     1       2.408   4.543   2.287  0.00  0.00    +0.110 C 
ENDROOT
BRANCH   4   7
ATOM      7  C   UNL     1       1.205   3.276   5.694  0.00  0.00    +0.220 C 
ATOM      8  O   UNL     1       2.131   2.529   5.931  0.00  0.00    -0.275 OA
ATOM      9  N   UNL     1       0.202   3.409   6.585  0.00  0.00    -0.284 N 
ATOM     10  H   UNL     1      -0.496   4.065   6.434  0.00  0.00    +0.155 HD
BRANCH   9  11
ATOM     11  C   UNL     1       0.169   2.602   7.728  0.00  0.00    +0.047 A 
ATOM     12  C   UNL     1       0.805   1.368   7.726  0.00  0.00    +0.024 A 
ATOM     13  C   UNL     1       0.771   0.573   8.855  0.00  0.00    +0.002 A 
ATOM     14  C   UNL     1       0.103   1.005   9.987  0.00  0.00    +0.001 A 
ATOM     15  C   UNL     1      -0.531   2.234   9.992  0.00  0.00    +0.017 A 
ATOM     16  C   UNL     1      -0.496   3.036   8.867  0.00  0.00    +0.039 A 
ATOM     17 BR   UNL     1      -1.357   4.719   8.878  0.00  0.00    -0.048 Br
ENDBRANCH   9  11
ENDBRANCH   4   7
BRANCH   1  18
ATOM     18  S   UNL     1       1.129   3.806   0.006  0.00  0.00    +0.061 S 
ATOM     19  O   UNL     1       2.360   4.233  -0.560  0.00  0.00    -0.153 OA
ATOM     20  O   UNL     1      -0.130   4.190  -0.530  0.00  0.00    -0.153 OA
BRANCH  18  24
ATOM     21  C   UNL     1       1.206  -0.720   0.012  0.00  0.00    -0.045 A 
ATOM     22  C   UNL     1      -0.002  -0.049   0.026  0.00  0.00    +0.006 A 
ATOM     23  C   UNL     1      -0.026   1.333   0.024  0.00  0.00    +0.029 A 
ATOM     24  C   UNL     1       1.159   2.044   0.009  0.00  0.00    +0.105 A 
ATOM     25  C   UNL     1       2.368   1.374  -0.006  0.00  0.00    +0.029 A 
ATOM     26  C   UNL     1       2.392  -0.008  -0.004  0.00  0.00    +0.006 A 
BRANCH  21  28
ATOM     27  C   UNL     1       1.947  -2.727  -1.242  0.00  0.00    +0.012 C 
ATOM     28  C   UNL     1       1.232  -2.227   0.015  0.00  0.00    +0.013 C 
ATOM     29  C   UNL     1       1.978  -2.721   1.256  0.00  0.00    +0.012 C 
ENDBRANCH  21  28
ENDBRANCH  18  24
ENDBRANCH   1  18
TORSDOF 5
