REMARK  Name = ZINC67414529
REMARK  10 active torsions:
REMARK  status: ('A' for Active; 'I' for Inactive)
REMARK    1  A    between atoms: C_1  and  C_2
REMARK    2  A    between atoms: C_2  and  C_3
REMARK    3  A    between atoms: C_3  and  C_5
REMARK    4  A    between atoms: C_3  and  N_15
REMARK    5  A    between atoms: N_18  and  C_19
REMARK    6  A    between atoms: C_19  and  C_20
REMARK    7  A    between atoms: C_20  and  C_22
REMARK    8  A    between atoms: C_20  and  C_23
REMARK    9  A    between atoms: C_23  and  N_24
REMARK   10  A    between atoms: C_28  and  C_29
REMARK                            x       y       z     vdW  Elec       q    Type
REMARK                         _______ _______ _______ _____ _____    ______ ____
ROOT
ATOM      1  N   UNL     1       2.332  -0.297  -1.096  0.00  0.00    -0.290 N 
ATOM      2  C   UNL     1       2.611   0.968  -1.466  0.00  0.00    +0.300 C 
ATOM      3  O   UNL     1       1.707   1.745  -1.704  0.00  0.00    -0.253 OA
ATOM      4  N   UNL     1       3.893   1.371  -1.573  0.00  0.00    -0.299 N 
ATOM      5  H   UNL     1       3.053  -0.918  -0.906  0.00  0.00    +0.151 HD
ATOM      6  H   UNL     1       4.614   0.751  -1.383  0.00  0.00    +0.150 HD
ENDROOT
BRANCH   1   7
ATOM      7  C   UNL     1       0.939  -0.736  -0.980  0.00  0.00    +0.140 C 
BRANCH   7   8
ATOM      8  C   UNL     1       0.865  -2.230  -1.166  0.00  0.00    +0.129 A 
ATOM      9  N   UNL     1       0.241  -2.856  -2.200  0.00  0.00    -0.340 N 
ATOM     10  H   UNL     1      -0.227  -2.428  -2.934  0.00  0.00    +0.167 HD
ATOM     11  C   UNL     1       0.397  -4.215  -2.011  0.00  0.00    +0.066 A 
ATOM     12  C   UNL     1      -0.008  -5.342  -2.714  0.00  0.00    +0.028 A 
ATOM     13  C   UNL     1       0.320  -6.595  -2.243  0.00  0.00    +0.002 A 
ATOM     14  C   UNL     1       1.051  -6.737  -1.071  0.00  0.00    +0.002 A 
ATOM     15  C   UNL     1       1.458  -5.640  -0.367  0.00  0.00    +0.030 A 
ATOM     16  C   UNL     1       1.137  -4.359  -0.826  0.00  0.00    +0.089 A 
ATOM     17  N   UNL     1       1.394  -3.108  -0.365  0.00  0.00    -0.231 NA
ENDBRANCH   7   8
BRANCH   7  19
ATOM     18  C   UNL     1       0.359   1.155   0.547  0.00  0.00    +0.006 C 
ATOM     19  C   UNL     1       0.401  -0.368   0.404  0.00  0.00    +0.027 C 
ENDBRANCH   7  19
ENDBRANCH   1   7
BRANCH   4  20
ATOM     20  C   UNL     1       4.196   2.747  -1.975  0.00  0.00    +0.110 C 
BRANCH  20  21
ATOM     21  C   UNL     1       5.713   2.942  -2.018  0.00  0.00    +0.023 C 
ATOM     22  C   UNL     1       6.311   2.058  -3.114  0.00  0.00    +0.011 C 
BRANCH  21  23
ATOM     23  C   UNL     1       6.030   4.409  -2.316  0.00  0.00    +0.127 C 
BRANCH  23  24
ATOM     24  N   UNL     1       7.477   4.622  -2.236  0.00  0.00    -0.336 N 
ATOM     25  C   UNL     1       8.348   4.692  -3.291  0.00  0.00    +0.104 A 
ATOM     26  C   UNL     1       9.573   4.897  -2.771  0.00  0.00    +0.101 A 
ATOM     27  N   UNL     1       9.454   4.951  -1.436  0.00  0.00    -0.350 N 
ATOM     28  C   UNL     1       8.201   4.792  -1.109  0.00  0.00    +0.084 A 
ATOM     29  C   UNL     1       7.653   4.795   0.295  0.00  0.00    +0.084 C 
ATOM     30  H   UNL     1      10.184   5.090  -0.813  0.00  0.00    +0.166 HD
ENDBRANCH  23  24
ENDBRANCH  21  23
ENDBRANCH  20  21
ENDBRANCH   4  20
TORSDOF 7
