REMARK  Name = ZINC16663137
REMARK  8 active torsions:
REMARK  status: ('A' for Active; 'I' for Inactive)
REMARK    1  A    between atoms: C_1  and  C_2
REMARK    2  A    between atoms: C_5  and  N_9
REMARK    3  A    between atoms: C_7  and  C_8
REMARK    4  A    between atoms: N_9  and  S_10
REMARK    5  A    between atoms: S_10  and  C_13
REMARK    6  A    between atoms: C_16  and  N_20
REMARK    7  A    between atoms: C_18  and  C_19
REMARK    8  A    between atoms: C_23  and  C_29
REMARK                            x       y       z     vdW  Elec       q    Type
REMARK                         _______ _______ _______ _____ _____    ______ ____
ROOT
ATOM      1  C   UNL     1       1.653  -4.805  -0.570  0.00  0.00    +0.111 A 
ATOM      2  C   UNL     1       2.771  -4.135  -0.107  0.00  0.00    +0.031 A 
ATOM      3  C   UNL     1       2.736  -2.764   0.059  0.00  0.00    +0.027 A 
ATOM      4  C   UNL     1       1.573  -2.061  -0.226  0.00  0.00    +0.060 A 
ATOM      5  C   UNL     1       0.452  -2.737  -0.690  0.00  0.00    +0.030 A 
ATOM      6  C   UNL     1       0.495  -4.107  -0.861  0.00  0.00    -0.022 A 
ATOM      7  C   UNL     1      -0.720  -4.841  -1.365  0.00  0.00    +0.046 C 
ENDROOT
BRANCH   4   8
ATOM      8  N   UNL     1       1.532  -0.673  -0.052  0.00  0.00    -0.144 N 
ATOM      9  C   UNL     1       0.432   0.063   0.168  0.00  0.00    +0.243 C 
ATOM     10  O   UNL     1      -0.656  -0.462   0.265  0.00  0.00    -0.273 OA
ATOM     11  C   UNL     1       0.580   1.550   0.291  0.00  0.00    +0.097 C 
ATOM     12  C   UNL     1       2.063   1.876   0.609  0.00  0.00    +0.201 C 
ATOM     13  S   UNL     1       2.847   0.363  -0.082  0.00  0.00    +0.053 S 
ATOM     14  O   UNL     1       3.788  -0.184   0.832  0.00  0.00    -0.155 OA
ATOM     15  O   UNL     1       3.167   0.538  -1.456  0.00  0.00    -0.155 OA
ATOM     16  C   UNL     1      -0.314   2.064   1.422  0.00  0.00    +0.019 C 
ENDBRANCH   4   8
BRANCH   1  17
ATOM     17  S   UNL     1       1.703  -6.553  -0.788  0.00  0.00    +0.073 S 
ATOM     18  O   UNL     1       1.197  -6.815  -2.089  0.00  0.00    -0.150 OA
ATOM     19  O   UNL     1       2.995  -6.976  -0.373  0.00  0.00    -0.150 OA
BRANCH  17  20
ATOM     20  N   UNL     1       0.624  -7.211   0.281  0.00  0.00    -0.216 N 
ATOM     21  H   UNL     1      -0.132  -7.724  -0.046  0.00  0.00    +0.174 HD
BRANCH  20  26
ATOM     22  C   UNL     1       1.341  -6.468   5.857  0.00  0.00    +0.044 C 
ATOM     23  C   UNL     1       1.151  -6.665   4.375  0.00  0.00    -0.047 A 
ATOM     24  C   UNL     1       2.223  -7.036   3.585  0.00  0.00    +0.005 A 
ATOM     25  C   UNL     1       2.051  -7.223   2.228  0.00  0.00    +0.025 A 
ATOM     26  C   UNL     1       0.800  -7.028   1.655  0.00  0.00    +0.048 A 
ATOM     27  C   UNL     1      -0.275  -6.655   2.451  0.00  0.00    +0.028 A 
ATOM     28  C   UNL     1      -0.097  -6.475   3.809  0.00  0.00    -0.046 A 
ATOM     29  C   UNL     1      -1.262  -6.072   4.674  0.00  0.00    +0.044 C 
ENDBRANCH  20  26
ENDBRANCH  17  20
ENDBRANCH   1  17
TORSDOF 4
