REMARK  Name = ZINC12414327
REMARK  7 active torsions:
REMARK  status: ('A' for Active; 'I' for Inactive)
REMARK    1  A    between atoms: C_1  and  O_2
REMARK    2  A    between atoms: O_2  and  C_3
REMARK    3  A    between atoms: C_3  and  C_5
REMARK    4  A    between atoms: C_6  and  S_15
REMARK    5  A    between atoms: S_15  and  N_18
REMARK    6  A    between atoms: C_21  and  C_24
REMARK    7  A    between atoms: C_21  and  N_58
REMARK                            x       y       z     vdW  Elec       q    Type
REMARK                         _______ _______ _______ _____ _____    ______ ____
ROOT
ATOM      1  N   UNL     1      -5.693  -3.794   1.765  0.00  0.00    -0.177 NA
ATOM      2  C   UNL     1      -5.308  -3.740   0.348  0.00  0.00    +0.108 C 
ATOM      3  C   UNL     1      -4.754  -2.346   0.041  0.00  0.00    +0.014 C 
ATOM      4  C   UNL     1      -5.782  -1.290   0.453  0.00  0.00    +0.015 C 
ATOM      5  C   UNL     1      -6.038  -1.386   1.959  0.00  0.00    +0.014 C 
ATOM      6  C   UNL     1      -6.608  -2.770   2.288  0.00  0.00    +0.108 C 
ENDROOT
BRANCH   4  12
ATOM      7  C   UNL     1      -6.251   1.085   0.461  0.00  0.00    -0.077 C 
ATOM      8  C   UNL     1      -5.743   2.446  -0.021  0.00  0.00    -0.019 C 
ATOM      9  C   UNL     1      -4.403   2.753   0.653  0.00  0.00    -0.004 C 
ATOM     10  C   UNL     1      -3.410   1.633   0.331  0.00  0.00    -0.019 C 
ATOM     11  C   UNL     1      -3.986   0.296   0.803  0.00  0.00    -0.077 C 
ATOM     12  N   UNL     1      -5.262   0.048   0.100  0.00  0.00    +0.389 N 
ATOM     13  H   UNL     1      -5.097   0.084  -0.913  0.00  0.00    -0.080 HD
ENDBRANCH   4  12
BRANCH   4  14
ATOM     14  C   UNL     1      -7.070  -1.525  -0.292  0.00  0.00    +0.200 C 
ATOM     15  O   UNL     1      -7.983  -2.116   0.247  0.00  0.00    -0.278 OA
ATOM     16  N   UNL     1      -7.209  -1.080  -1.556  0.00  0.00    -0.330 N 
ATOM     17  H   UNL     1      -6.457  -0.671  -2.011  0.00  0.00    +0.145 HD
ATOM     18  H   UNL     1      -8.061  -1.169  -2.011  0.00  0.00    +0.145 HD
ENDBRANCH   4  14
BRANCH   1  19
ATOM     19  S   UNL     1      -5.108  -4.987   2.753  0.00  0.00    +0.063 S 
ATOM     20  O   UNL     1      -6.035  -5.120   3.822  0.00  0.00    -0.153 OA
ATOM     21  O   UNL     1      -4.756  -6.076   1.911  0.00  0.00    -0.153 OA
BRANCH  19  23
ATOM     22  C   UNL     1      -2.412  -4.743   2.915  0.00  0.00    +0.124 A 
ATOM     23  C   UNL     1      -3.608  -4.390   3.459  0.00  0.00    +0.137 A 
ATOM     24  C   UNL     1      -3.646  -3.544   4.581  0.00  0.00    +0.052 A 
ATOM     25  C   UNL     1      -4.785  -3.073   5.289  0.00  0.00    +0.133 A 
ATOM     26  C   UNL     1      -4.640  -2.252   6.376  0.00  0.00    +0.039 A 
ATOM     27  C   UNL     1      -3.386  -1.858   6.825  0.00  0.00    +0.004 A 
ATOM     28  C   UNL     1      -2.257  -2.300   6.166  0.00  0.00    +0.016 A 
ATOM     29  C   UNL     1      -2.385  -3.127   5.070  0.00  0.00    +0.025 A 
ATOM     30  S   UNL     1      -1.236  -3.905   3.963  0.00  0.00    -0.080 S 
ATOM     31  F   UNL     1      -6.022  -3.435   4.883  0.00  0.00    -0.205 F 
BRANCH  22  32
ATOM     32  C   UNL     1      -2.153  -5.601   1.753  0.00  0.00    +0.348 C 
ATOM     33  O   UNL     1      -2.842  -5.499   0.756  0.00  0.00    -0.244 OA
BRANCH  32  35
ATOM     34  C   UNL     1      -0.953  -7.318   0.606  0.00  0.00    +0.280 C 
ATOM     35  O   UNL     1      -1.151  -6.503   1.791  0.00  0.00    -0.464 OA
ENDBRANCH  32  35
ENDBRANCH  22  32
ENDBRANCH  19  23
ENDBRANCH   1  19
TORSDOF 6
