REMARK  Name = ZINC59310316
REMARK  7 active torsions:
REMARK  status: ('A' for Active; 'I' for Inactive)
REMARK    1  A    between atoms: C_1  and  C_2
REMARK    2  A    between atoms: C_7  and  N_8
REMARK    3  A    between atoms: C_9  and  C_11
REMARK    4  A    between atoms: C_11  and  S_12
REMARK    5  A    between atoms: S_12  and  C_13
REMARK    6  A    between atoms: N_18  and  N_19
REMARK    7  A    between atoms: C_20  and  C_21
REMARK                            x       y       z     vdW  Elec       q    Type
REMARK                         _______ _______ _______ _____ _____    ______ ____
ROOT
ATOM      1  C   UNL     1      -0.440  -0.114   7.683  0.00  0.00    +0.211 A 
ATOM      2  N   UNL     1      -0.515  -0.554   8.944  0.00  0.00    -0.186 NA
ATOM      3  C   UNL     1      -0.577   0.470   9.768  0.00  0.00    +0.232 A 
ATOM      4  N   UNL     1      -0.542   1.601   9.031  0.00  0.00    -0.245 N 
ATOM      5  N   UNL     1      -0.449   1.198   7.689  0.00  0.00    -0.144 NA
ATOM      6  N   UNL     1      -0.664   0.400  11.147  0.00  0.00    -0.205 N 
ATOM      7  H   UNL     1      -0.706   1.215  11.672  0.00  0.00    +0.177 HD
ATOM      8  H   UNL     1      -0.573   2.511   9.364  0.00  0.00    +0.192 HD
ENDROOT
BRANCH   6   9
ATOM      9  N   UNL     1      -0.692  -0.847  11.785  0.00  0.00    -0.188 NA
ATOM     10  C   UNL     1      -0.772  -0.911  13.061  0.00  0.00    +0.139 C 
BRANCH  10  11
ATOM     11  C   UNL     1      -0.801  -2.223  13.732  0.00  0.00    +0.002 A 
ATOM     12  C   UNL     1      -1.020  -2.303  15.187  0.00  0.00    +0.010 A 
ATOM     13  C   UNL     1      -1.048  -3.470  15.797  0.00  0.00    +0.009 A 
ATOM     14  C   UNL     1      -0.859  -4.706  15.018  0.00  0.00    -0.017 A 
ATOM     15  C   UNL     1      -0.886  -6.026  15.669  0.00  0.00    +0.009 A 
ATOM     16  C   UNL     1      -0.715  -7.121  14.954  0.00  0.00    +0.009 A 
ATOM     17  C   UNL     1      -0.496  -7.027  13.500  0.00  0.00    -0.017 A 
ATOM     18  C   UNL     1      -0.304  -8.236  12.682  0.00  0.00    +0.008 A 
ATOM     19  C   UNL     1      -0.111  -8.121  11.384  0.00  0.00    +0.001 A 
ATOM     20  C   UNL     1      -0.086  -6.794  10.743  0.00  0.00    +0.008 A 
ATOM     21  C   UNL     1      -0.258  -5.712  11.472  0.00  0.00    -0.017 A 
ATOM     22  C   UNL     1      -0.473  -5.848  12.924  0.00  0.00    -0.002 A 
ATOM     23  C   UNL     1      -0.664  -4.626  13.723  0.00  0.00    -0.002 A 
ATOM     24  C   UNL     1      -0.636  -3.324  13.032  0.00  0.00    -0.008 A 
ATOM     25  C   UNL     1      -0.420  -3.283  11.579  0.00  0.00    +0.010 A 
ATOM     26  C   UNL     1      -0.240  -4.372  10.868  0.00  0.00    +0.009 A 
ENDBRANCH  10  11
ENDBRANCH   6   9
BRANCH   1  27
ATOM     27  S   UNL     1      -0.338  -1.130   6.248  0.00  0.00    -0.075 S 
BRANCH  27  28
ATOM     28  C   UNL     1      -0.256   0.055   4.876  0.00  0.00    +0.173 C 
BRANCH  28  30
ATOM     29  N   UNL     1      -0.092  -0.015   2.409  0.00  0.00    -0.285 N 
ATOM     30  C   UNL     1      -0.165  -0.693   3.571  0.00  0.00    +0.227 C 
ATOM     31  O   UNL     1      -0.156  -1.906   3.567  0.00  0.00    -0.275 OA
ATOM     32  H   UNL     1      -0.030   0.953   2.416  0.00  0.00    +0.155 HD
BRANCH  29  39
ATOM     33  C   UNL     1      -1.407   1.192   0.194  0.00  0.00    +0.046 C 
ATOM     34  C   UNL     1      -0.738  -0.153   0.086  0.00  0.00    -0.027 A 
ATOM     35  C   UNL     1      -0.747  -0.835  -1.116  0.00  0.00    +0.043 A 
ATOM     36  C   UNL     1      -0.132  -2.072  -1.216  0.00  0.00    +0.124 A 
ATOM     37  C   UNL     1       0.492  -2.628  -0.112  0.00  0.00    +0.040 A 
ATOM     38  C   UNL     1       0.503  -1.950   1.091  0.00  0.00    +0.026 A 
ATOM     39  C   UNL     1      -0.108  -0.707   1.192  0.00  0.00    +0.037 A 
ATOM     40  F   UNL     1      -0.142  -2.737  -2.392  0.00  0.00    -0.205 F 
ENDBRANCH  29  39
ENDBRANCH  28  30
ENDBRANCH  27  28
ENDBRANCH   1  27
TORSDOF 6
