REMARK  Name = ZINC13065445
REMARK  10 active torsions:
REMARK  status: ('A' for Active; 'I' for Inactive)
REMARK    1  A    between atoms: C_1  and  C_2
REMARK    2  A    between atoms: C_2  and  O_3
REMARK    3  A    between atoms: O_3  and  C_4
REMARK    4  A    between atoms: C_11  and  C_16
REMARK    5  A    between atoms: C_16  and  N_67
REMARK    6  A    between atoms: C_17  and  C_18
REMARK    7  A    between atoms: C_17  and  N_67
REMARK    8  A    between atoms: C_25  and  C_26
REMARK    9  A    between atoms: C_25  and  N_67
REMARK   10  A    between atoms: N_30  and  C_31
REMARK                            x       y       z     vdW  Elec       q    Type
REMARK                         _______ _______ _______ _____ _____    ______ ____
ROOT
ATOM      1  N   UNL     1      -0.660  -3.004  -1.709  0.00  0.00    +0.390 N 
ATOM      2  H   UNL     1      -0.099  -3.006  -0.849  0.00  0.00    -0.080 HD
ENDROOT
BRANCH   1   3
ATOM      3  C   UNL     1       0.229  -3.249  -2.864  0.00  0.00    -0.036 C 
BRANCH   3  11
ATOM      4  C   UNL     1       6.052  -1.998  -1.146  0.00  0.00    +0.121 A 
ATOM      5  C   UNL     1       6.065  -0.684  -1.607  0.00  0.00    +0.047 A 
ATOM      6  C   UNL     1       4.953  -0.141  -2.212  0.00  0.00    +0.030 A 
ATOM      7  C   UNL     1       3.803  -0.907  -2.366  0.00  0.00    +0.049 A 
ATOM      8  C   UNL     1       3.785  -2.236  -1.902  0.00  0.00    +0.002 A 
ATOM      9  C   UNL     1       4.921  -2.776  -1.290  0.00  0.00    +0.055 A 
ATOM     10  C   UNL     1       2.568  -3.032  -2.072  0.00  0.00    +0.017 A 
ATOM     11  C   UNL     1       1.497  -2.457  -2.674  0.00  0.00    +0.001 A 
ATOM     12  C   UNL     1       1.567  -1.123  -3.127  0.00  0.00    +0.251 A 
ATOM     13  O   UNL     1       0.595  -0.627  -3.670  0.00  0.00    -0.268 OA
ATOM     14  N   UNL     1       2.678  -0.382  -2.970  0.00  0.00    -0.322 N 
ATOM     15  H   UNL     1       2.691   0.534  -3.289  0.00  0.00    +0.169 HD
BRANCH   4  16
ATOM     16  O   UNL     1       7.159  -2.518  -0.551  0.00  0.00    -0.492 OA
BRANCH  16  18
ATOM     17  C   UNL     1       9.434  -2.413   0.257  0.00  0.00    +0.048 C 
ATOM     18  C   UNL     1       8.295  -1.660  -0.433  0.00  0.00    +0.225 C 
ENDBRANCH  16  18
ENDBRANCH   4  16
ENDBRANCH   3  11
ENDBRANCH   1   3
BRANCH   1  19
ATOM     19  C   UNL     1      -1.679  -4.071  -1.620  0.00  0.00    -0.040 C 
BRANCH  19  20
ATOM     20  C   UNL     1      -1.017  -5.334  -1.135  0.00  0.00    -0.046 A 
ATOM     21  C   UNL     1      -0.766  -6.367  -2.019  0.00  0.00    +0.003 A 
ATOM     22  C   UNL     1      -0.154  -7.524  -1.575  0.00  0.00    +0.000 A 
ATOM     23  C   UNL     1       0.199  -7.653  -0.244  0.00  0.00    +0.001 A 
ATOM     24  C   UNL     1      -0.056  -6.623   0.642  0.00  0.00    +0.020 A 
ATOM     25  C   UNL     1      -0.664  -5.463   0.197  0.00  0.00    +0.042 A 
ATOM     26 CL   UNL     1      -0.984  -4.169   1.309  0.00  0.00    -0.083 Cl
ENDBRANCH  19  20
ENDBRANCH   1  19
BRANCH   1  27
ATOM     27  C   UNL     1      -1.318  -1.687  -1.848  0.00  0.00    +0.001 C 
BRANCH  27  28
ATOM     28  C   UNL     1      -2.040  -1.367  -0.565  0.00  0.00    +0.135 A 
ATOM     29  N   UNL     1      -3.285  -1.658  -0.273  0.00  0.00    -0.115 NA
ATOM     30  N   UNL     1      -3.528  -1.219   0.913  0.00  0.00    -0.023 NA
ATOM     31  N   UNL     1      -2.470  -0.660   1.388  0.00  0.00    -0.044 NA
ATOM     32  N   UNL     1      -1.533  -0.726   0.504  0.00  0.00    -0.228 N 
BRANCH  32  33
ATOM     33  C   UNL     1      -0.170  -0.207   0.641  0.00  0.00    +0.111 C 
ATOM     34  C   UNL     1      -0.221   1.305   0.872  0.00  0.00    +0.027 C 
ATOM     35  C   UNL     1       1.203   1.847   1.015  0.00  0.00    +0.002 C 
ATOM     36  C   UNL     1       1.889   1.173   2.205  0.00  0.00    +0.000 C 
ATOM     37  C   UNL     1       1.939  -0.339   1.975  0.00  0.00    +0.002 C 
ATOM     38  C   UNL     1       0.516  -0.881   1.831  0.00  0.00    +0.027 C 
ENDBRANCH  32  33
ENDBRANCH  27  28
ENDBRANCH   1  27
TORSDOF 9
