REMARK  Name = ZINC16035594
REMARK  6 active torsions:
REMARK  status: ('A' for Active; 'I' for Inactive)
REMARK    1  A    between atoms: C_3  and  N_28
REMARK    2  A    between atoms: C_4  and  N_8
REMARK    3  A    between atoms: C_9  and  C_11
REMARK    4  A    between atoms: C_11  and  O_12
REMARK    5  A    between atoms: O_12  and  C_13
REMARK    6  A    between atoms: C_13  and  C_15
REMARK                            x       y       z     vdW  Elec       q    Type
REMARK                         _______ _______ _______ _____ _____    ______ ____
ROOT
ATOM      1  C   UNL     1       0.203   0.917  -4.835  0.00  0.00    +0.328 C 
ENDROOT
BRANCH   1   3
ATOM      2  N   UNL     1       0.038   1.039  -7.300  0.00  0.00    -0.281 N 
ATOM      3  C   UNL     1      -0.465   1.391  -6.100  0.00  0.00    +0.255 C 
ATOM      4  O   UNL     1      -1.455   2.089  -6.039  0.00  0.00    -0.272 OA
ATOM      5  H   UNL     1       0.986   0.484  -7.357  0.00  0.00    +0.155 HD
BRANCH   2   9
ATOM      6  C   UNL     1      -1.994   2.056 -10.792  0.00  0.00    +0.022 A 
ATOM      7  C   UNL     1      -0.628   1.849 -10.824  0.00  0.00    +0.036 A 
ATOM      8  C   UNL     1       0.050   1.518  -9.667  0.00  0.00    +0.147 A 
ATOM      9  C   UNL     1      -0.645   1.380  -8.472  0.00  0.00    +0.065 A 
ATOM     10  C   UNL     1      -2.017   1.588  -8.442  0.00  0.00    +0.045 A 
ATOM     11  C   UNL     1      -2.689   1.926  -9.602  0.00  0.00    +0.043 A 
ATOM     12 CL   UNL     1      -4.405   2.186  -9.566  0.00  0.00    -0.083 Cl
BRANCH   8  13
ATOM     13  N   UNL     1       1.514   1.302  -9.702  0.00  0.00    +0.058 N 
ATOM     14  O   UNL     1       2.135   1.510 -10.729  0.00  0.00    -0.126 OA
ATOM     15  O   UNL     1       2.096   0.917  -8.704  0.00  0.00    -0.126 OA
ENDBRANCH   8  13
ENDBRANCH   2   9
ENDBRANCH   1   3
BRANCH   1  16
ATOM     16  O   UNL     1      -0.523   1.427  -3.685  0.00  0.00    -0.455 OA
BRANCH  16  17
ATOM     17  C   UNL     1      -0.054   1.093  -2.472  0.00  0.00    +0.314 C 
ATOM     18  O   UNL     1       0.930   0.399  -2.374  0.00  0.00    -0.250 OA
BRANCH  17  19
ATOM     19  C   UNL     1      -0.756   1.585  -1.232  0.00  0.00    +0.070 C 
ATOM     20  C   UNL     1      -0.757   3.115  -1.220  0.00  0.00    +0.021 C 
ATOM     21  C   UNL     1      -1.469   3.614   0.039  0.00  0.00    -0.008 C 
ATOM     22  C   UNL     1      -2.911   3.102   0.047  0.00  0.00    +0.007 C 
ATOM     23  C   UNL     1      -2.909   1.572   0.034  0.00  0.00    -0.008 C 
ATOM     24  C   UNL     1      -2.197   1.073  -1.224  0.00  0.00    +0.021 C 
ATOM     25  C   UNL     1      -2.178   1.053   1.274  0.00  0.00    +0.021 C 
ATOM     26  C   UNL     1      -0.736   1.565   1.266  0.00  0.00    +0.028 C 
ATOM     27  C   UNL     1      -0.738   3.095   1.279  0.00  0.00    +0.021 C 
ATOM     28  C   UNL     1      -0.024   1.066   0.007  0.00  0.00    +0.036 C 
ATOM     29 BR   UNL     1       0.205   0.898   2.859  0.00  0.00    -0.084 Br
ENDBRANCH  17  19
ENDBRANCH  16  17
ENDBRANCH   1  16
TORSDOF 6
