REMARK  Name = ZINC35360481
REMARK  4 active torsions:
REMARK  status: ('A' for Active; 'I' for Inactive)
REMARK    1  A    between atoms: C_1  and  C_2
REMARK    2  A    between atoms: C_16  and  C_19
REMARK    3  A    between atoms: C_22  and  O_25
REMARK    4  A    between atoms: O_25  and  C_26
REMARK                            x       y       z     vdW  Elec       q    Type
REMARK                         _______ _______ _______ _____ _____    ______ ____
ROOT
ATOM      1  C   UNL     1       0.287   1.062  -1.449  0.00  0.00    +0.044 C 
ATOM      2  C   UNL     1       0.237  -0.405  -1.107  0.00  0.00    -0.050 A 
ATOM      3  C   UNL     1       0.213  -1.349  -2.118  0.00  0.00    +0.005 A 
ATOM      4  C   UNL     1       0.165  -2.692  -1.806  0.00  0.00    +0.023 A 
ATOM      5  C   UNL     1       0.141  -3.097  -0.475  0.00  0.00    +0.033 A 
ATOM      6  C   UNL     1       0.169  -2.151   0.536  0.00  0.00    +0.003 A 
ATOM      7  C   UNL     1       0.220  -0.805   0.215  0.00  0.00    +0.011 A 
ATOM      8  C   UNL     1       0.159  -2.553   1.990  0.00  0.00    +0.155 C 
ATOM      9  C   UNL     1      -0.407  -3.964   2.136  0.00  0.00    +0.047 C 
ATOM     10  C   UNL     1      -0.260  -4.455   3.574  0.00  0.00    +0.011 C 
ATOM     11  C   UNL     1       1.206  -4.348   4.005  0.00  0.00    +0.028 C 
ATOM     12  C   UNL     1       1.666  -2.897   3.831  0.00  0.00    +0.160 C 
ATOM     13  O   UNL     1       1.499  -2.513   2.485  0.00  0.00    -0.372 OA
ATOM     14  C   UNL     1       0.346  -4.909   1.196  0.00  0.00    +0.106 C 
ATOM     15  N   UNL     1       0.086  -4.465  -0.182  0.00  0.00    -0.336 N 
ATOM     16  H   UNL     1      -0.119  -5.109  -0.878  0.00  0.00    +0.147 HD
ENDROOT
BRANCH  14  17
ATOM     17  C   UNL     1       1.824  -4.848   1.486  0.00  0.00    -0.027 A 
ATOM     18  C   UNL     1       2.452  -5.921   2.091  0.00  0.00    +0.009 A 
ATOM     19  C   UNL     1       3.807  -5.868   2.359  0.00  0.00    +0.046 A 
ATOM     20  C   UNL     1       4.536  -4.737   2.021  0.00  0.00    +0.120 A 
ATOM     21  C   UNL     1       3.902  -3.662   1.414  0.00  0.00    +0.046 A 
ATOM     22  C   UNL     1       2.549  -3.722   1.143  0.00  0.00    +0.009 A 
BRANCH  20  23
ATOM     23  O   UNL     1       5.868  -4.683   2.284  0.00  0.00    -0.495 OA
ATOM     24  C   UNL     1       6.555  -3.487   1.909  0.00  0.00    +0.277 C 
ENDBRANCH  20  23
ENDBRANCH  14  17
TORSDOF 2
