REMARK  Name = ZINC35694674
REMARK  15 active torsions:
REMARK  status: ('A' for Active; 'I' for Inactive)
REMARK    1  A    between atoms: C_1  and  C_2
REMARK    2  A    between atoms: C_5  and  C_8
REMARK    3  A    between atoms: N_10  and  C_11
REMARK    4  A    between atoms: N_10  and  C_16
REMARK    5  A    between atoms: C_11  and  C_12
REMARK    6  A    between atoms: C_12  and  N_13
REMARK    7  A    between atoms: N_13  and  C_14
REMARK    8  A    between atoms: N_13  and  C_15
REMARK    9  A    between atoms: C_16  and  C_17
REMARK   10  A    between atoms: C_17  and  N_19
REMARK   11  A    between atoms: C_22  and  C_32
REMARK   12  A    between atoms: N_24  and  C_25
REMARK   13  A    between atoms: C_28  and  C_31
REMARK   14  A    between atoms: C_35  and  O_38
REMARK   15  A    between atoms: O_38  and  C_39
REMARK                            x       y       z     vdW  Elec       q    Type
REMARK                         _______ _______ _______ _____ _____    ______ ____
ROOT
ATOM      1  N   UNL     1       2.146  -7.879   0.920  0.00  0.00    -0.145 NA
ATOM      2  C   UNL     1       3.454  -8.108   0.796  0.00  0.00    +0.205 A 
ATOM      3  N   UNL     1       4.425  -7.162   0.714  0.00  0.00    -0.326 N 
ATOM      4  C   UNL     1       5.646  -7.814   0.593  0.00  0.00    +0.066 A 
ATOM      5  C   UNL     1       5.410  -9.138   0.602  0.00  0.00    +0.120 A 
ATOM      6  N   UNL     1       4.049  -9.329   0.733  0.00  0.00    -0.287 N 
ATOM      7  H   UNL     1       4.290  -6.202   0.736  0.00  0.00    +0.169 HD
ENDROOT
BRANCH   6   8
ATOM      8  C   UNL     1       3.394 -10.566   0.790  0.00  0.00    +0.049 A 
ATOM      9  C   UNL     1       2.012 -10.617   0.915  0.00  0.00    +0.026 A 
ATOM     10  C   UNL     1       1.369 -11.838   0.970  0.00  0.00    +0.005 A 
ATOM     11  C   UNL     1       2.101 -13.009   0.901  0.00  0.00    -0.050 A 
ATOM     12  C   UNL     1       3.477 -12.962   0.776  0.00  0.00    +0.005 A 
ATOM     13  C   UNL     1       4.125 -11.744   0.715  0.00  0.00    +0.026 A 
ATOM     14  C   UNL     1       1.397 -14.340   0.962  0.00  0.00    +0.044 C 
ENDBRANCH   6   8
BRANCH   4  15
ATOM     15  C   UNL     1       6.971  -7.167   0.475  0.00  0.00    +0.000 A 
ATOM     16  C   UNL     1       8.122  -7.946   0.353  0.00  0.00    +0.013 A 
ATOM     17  C   UNL     1       9.355  -7.339   0.243  0.00  0.00    +0.046 A 
ATOM     18  C   UNL     1       9.453  -5.954   0.253  0.00  0.00    +0.120 A 
ATOM     19  C   UNL     1       8.310  -5.176   0.375  0.00  0.00    +0.046 A 
ATOM     20  C   UNL     1       7.072  -5.775   0.479  0.00  0.00    +0.013 A 
BRANCH  18  21
ATOM     21  O   UNL     1      10.670  -5.360   0.145  0.00  0.00    -0.495 OA
ATOM     22  C   UNL     1      10.698  -3.931   0.163  0.00  0.00    +0.277 C 
ENDBRANCH  18  21
ENDBRANCH   4  15
BRANCH   1  23
ATOM     23  C   UNL     1       1.692  -6.632   0.969  0.00  0.00    +0.256 C 
ATOM     24  O   UNL     1       2.469  -5.699   0.900  0.00  0.00    -0.272 OA
BRANCH  23  25
ATOM     25  C   UNL     1       0.214  -6.373   1.111  0.00  0.00    +0.205 C 
BRANCH  25  28
ATOM     26  C   UNL     1      -0.333  -4.273   0.003  0.00  0.00    +0.247 C 
ATOM     27  O   UNL     1      -0.472  -3.066   0.016  0.00  0.00    -0.270 OA
ATOM     28  N   UNL     1      -0.028  -4.929   1.140  0.00  0.00    -0.290 N 
BRANCH  26  33
ATOM     29  C   UNL     1      -0.977  -7.191  -4.915  0.00  0.00    +0.044 C 
ATOM     30  C   UNL     1      -0.808  -6.427  -3.627  0.00  0.00    -0.050 A 
ATOM     31  C   UNL     1       0.318  -6.628  -2.850  0.00  0.00    +0.004 A 
ATOM     32  C   UNL     1       0.479  -5.931  -1.670  0.00  0.00    +0.013 A 
ATOM     33  C   UNL     1      -0.498  -5.023  -1.261  0.00  0.00    +0.037 A 
ATOM     34  C   UNL     1      -1.633  -4.825  -2.050  0.00  0.00    +0.013 A 
ATOM     35  C   UNL     1      -1.778  -5.523  -3.230  0.00  0.00    +0.004 A 
ENDBRANCH  26  33
BRANCH  28  36
ATOM     36  C   UNL     1       0.062  -4.197   2.406  0.00  0.00    +0.090 C 
BRANCH  36  37
ATOM     37  C   UNL     1      -1.333  -4.071   3.022  0.00  0.00    -0.060 C 
BRANCH  37  38
ATOM     38  N   UNL     1      -1.244  -3.337   4.291  0.00  0.00    +0.377 N 
ATOM     39  C   UNL     1      -2.594  -3.111   4.823  0.00  0.00    -0.097 C 
ATOM     40  C   UNL     1      -0.463  -4.122   5.257  0.00  0.00    -0.097 C 
ATOM     41  H   UNL     1      -0.791  -2.449   4.135  0.00  0.00    -0.083 HD
ENDBRANCH  37  38
ENDBRANCH  36  37
ENDBRANCH  28  36
ENDBRANCH  25  28
ENDBRANCH  23  25
ENDBRANCH   1  23
TORSDOF 10
