REMARK  Name = ZINC05383586
REMARK  11 active torsions:
REMARK  status: ('A' for Active; 'I' for Inactive)
REMARK    1  A    between atoms: C_1  and  C_2
REMARK    2  A    between atoms: C_2  and  C_3
REMARK    3  A    between atoms: C_2  and  C_4
REMARK    4  A    between atoms: C_2  and  C_5
REMARK    5  A    between atoms: N_9  and  N_10
REMARK    6  A    between atoms: C_11  and  C_13
REMARK    7  A    between atoms: N_15  and  N_16
REMARK    8  A    between atoms: C_20  and  C_23
REMARK    9  A    between atoms: C_23  and  C_24
REMARK   10  A    between atoms: C_23  and  C_25
REMARK   11  A    between atoms: C_23  and  C_26
REMARK                            x       y       z     vdW  Elec       q    Type
REMARK                         _______ _______ _______ _____ _____    ______ ____
ROOT
ATOM      1  N   UNL     1      -2.322  -3.934   1.707  0.00  0.00    -0.199 N 
ATOM      2  C   UNL     1      -2.808  -4.825   2.594  0.00  0.00    +0.320 C 
ATOM      3  O   UNL     1      -2.103  -5.230   3.495  0.00  0.00    -0.263 OA
ATOM      4  H   UNL     1      -2.886  -3.610   0.987  0.00  0.00    +0.178 HD
ENDROOT
BRANCH   1   9
ATOM      5  C   UNL     1      -0.045   0.048   0.024  0.00  0.00    -0.005 C 
ATOM      6  C   UNL     1      -1.474  -0.497   0.015  0.00  0.00    +0.010 C 
ATOM      7  C   UNL     1      -1.436  -2.026  -0.079  0.00  0.00    +0.053 C 
ATOM      8  C   UNL     1      -0.574  -2.556   1.045  0.00  0.00    +0.037 C 
ATOM      9  N   UNL     1      -1.004  -3.476   1.824  0.00  0.00    -0.189 NA
ATOM     10  C   UNL     1       0.809  -1.970   1.225  0.00  0.00    +0.053 C 
ATOM     11  C   UNL     1       0.690  -0.444   1.272  0.00  0.00    +0.010 C 
BRANCH   5  13
ATOM     12  C   UNL     1       1.345   2.123   0.025  0.00  0.00    +0.011 C 
ATOM     13  C   UNL     1      -0.084   1.577   0.025  0.00  0.00    -0.035 C 
ATOM     14  C   UNL     1      -0.818   2.070  -1.223  0.00  0.00    +0.011 C 
ATOM     15  C   UNL     1      -0.817   2.068   1.275  0.00  0.00    +0.011 C 
ENDBRANCH   5  13
ENDBRANCH   1   9
BRANCH   2  16
ATOM     16  C   UNL     1      -4.212  -5.312   2.469  0.00  0.00    +0.320 C 
ATOM     17  O   UNL     1      -4.917  -4.906   1.568  0.00  0.00    -0.263 OA
ATOM     18  N   UNL     1      -4.697  -6.203   3.357  0.00  0.00    -0.199 N 
ATOM     19  H   UNL     1      -4.134  -6.527   4.076  0.00  0.00    +0.178 HD
BRANCH  18  20
ATOM     20  N   UNL     1      -6.016  -6.661   3.239  0.00  0.00    -0.189 NA
ATOM     21  C   UNL     1      -6.507  -7.435   4.133  0.00  0.00    +0.037 C 
ATOM     22  C   UNL     1      -5.641  -7.981   5.246  0.00  0.00    +0.053 C 
ATOM     23  C   UNL     1      -5.819  -9.497   5.308  0.00  0.00    +0.010 C 
ATOM     24  C   UNL     1      -7.306  -9.831   5.444  0.00  0.00    -0.005 C 
ATOM     25  C   UNL     1      -8.059  -9.357   4.200  0.00  0.00    +0.010 C 
ATOM     26  C   UNL     1      -7.966  -7.831   4.099  0.00  0.00    +0.053 C 
BRANCH  24  27
ATOM     27  C   UNL     1      -7.475 -11.344   5.595  0.00  0.00    -0.035 C 
ATOM     28  C   UNL     1      -6.912 -12.047   4.359  0.00  0.00    +0.011 C 
ATOM     29  C   UNL     1      -6.722 -11.820   6.839  0.00  0.00    +0.011 C 
ATOM     30  C   UNL     1      -8.961 -11.679   5.740  0.00  0.00    +0.011 C 
ENDBRANCH  24  27
ENDBRANCH  18  20
ENDBRANCH   2  16
TORSDOF 5
