REMARK  Name = ZINC36609471
REMARK  8 active torsions:
REMARK  status: ('A' for Active; 'I' for Inactive)
REMARK    1  A    between atoms: C_4  and  N_7
REMARK    2  A    between atoms: N_7  and  C_8
REMARK    3  A    between atoms: C_8  and  C_10
REMARK    4  A    between atoms: C_8  and  C_17
REMARK    5  A    between atoms: N_19  and  C_20
REMARK    6  A    between atoms: C_26  and  C_28
REMARK    7  A    between atoms: C_30  and  N_35
REMARK    8  A    between atoms: C_33  and  O_34
REMARK                            x       y       z     vdW  Elec       q    Type
REMARK                         _______ _______ _______ _____ _____    ______ ____
ROOT
ATOM      1  N   UNL     1       3.984  -1.500   0.882  0.00  0.00    -0.251 N 
ATOM      2  C   UNL     1       5.260  -1.171   1.168  0.00  0.00    +0.255 C 
ATOM      3  O   UNL     1       6.135  -1.357   0.345  0.00  0.00    -0.269 OA
ENDROOT
BRANCH   1   7
ATOM      4  C   UNL     1       3.104  -3.561  -2.629  0.00  0.00    +0.000 A 
ATOM      5  C   UNL     1       2.660  -2.261  -2.462  0.00  0.00    +0.002 A 
ATOM      6  C   UNL     1       2.951  -1.576  -1.299  0.00  0.00    +0.023 A 
ATOM      7  C   UNL     1       3.688  -2.192  -0.297  0.00  0.00    +0.038 A 
ATOM      8  C   UNL     1       4.132  -3.497  -0.468  0.00  0.00    +0.023 A 
ATOM      9  C   UNL     1       3.838  -4.178  -1.633  0.00  0.00    +0.002 A 
ENDBRANCH   1   7
BRANCH   2  10
ATOM     10  C   UNL     1       5.593  -0.584   2.479  0.00  0.00    +0.081 A 
ATOM     11  C   UNL     1       5.241  -1.248   3.657  0.00  0.00    +0.049 A 
ATOM     12  C   UNL     1       5.556  -0.695   4.878  0.00  0.00    +0.127 A 
ATOM     13  C   UNL     1       6.220   0.520   4.946  0.00  0.00    +0.036 A 
ATOM     14  C   UNL     1       6.573   1.187   3.790  0.00  0.00    +0.048 A 
ATOM     15  C   UNL     1       6.271   0.641   2.551  0.00  0.00    +0.129 A 
BRANCH  12  16
ATOM     16  N   UNL     1       5.183  -1.400   6.125  0.00  0.00    +0.056 N 
ATOM     17  O   UNL     1       4.667  -2.492   6.071  0.00  0.00    -0.126 OA
ATOM     18  O   UNL     1       5.393  -0.883   7.198  0.00  0.00    -0.126 OA
ENDBRANCH  12  16
BRANCH  15  19
ATOM     19  O   UNL     1       6.623   1.293   1.415  0.00  0.00    -0.506 OA
ATOM     20  H   UNL     1       5.952   1.909   1.091  0.00  0.00    +0.292 HD
ENDBRANCH  15  19
ENDBRANCH   2  10
BRANCH   1  21
ATOM     21  C   UNL     1       2.908  -1.134   1.806  0.00  0.00    +0.197 C 
BRANCH  21  22
ATOM     22  C   UNL     1       1.679  -1.947   1.493  0.00  0.00    -0.018 A 
ATOM     23  C   UNL     1       0.544  -1.323   1.007  0.00  0.00    +0.007 A 
ATOM     24  C   UNL     1      -0.584  -2.068   0.719  0.00  0.00    +0.020 A 
ATOM     25  C   UNL     1      -0.578  -3.437   0.917  0.00  0.00    +0.041 A 
ATOM     26  C   UNL     1       0.557  -4.060   1.403  0.00  0.00    +0.020 A 
ATOM     27  C   UNL     1       1.687  -3.316   1.685  0.00  0.00    +0.007 A 
ATOM     28 CL   UNL     1      -1.995  -4.373   0.556  0.00  0.00    -0.084 Cl
ENDBRANCH  21  22
BRANCH  21  29
ATOM     29  C   UNL     1       2.594   0.332   1.655  0.00  0.00    +0.239 C 
ATOM     30  O   UNL     1       3.208   1.005   0.854  0.00  0.00    -0.273 OA
ATOM     31  N   UNL     1       1.630   0.896   2.410  0.00  0.00    -0.311 N 
ATOM     32  H   UNL     1       1.139   0.358   3.050  0.00  0.00    +0.149 HD
BRANCH  31  33
ATOM     33  C   UNL     1       1.324   2.321   2.263  0.00  0.00    +0.073 C 
ATOM     34  C   UNL     1       2.280   3.140   3.133  0.00  0.00    +0.022 C 
ATOM     35  C   UNL     1       1.961   4.628   2.980  0.00  0.00    +0.002 C 
ATOM     36  C   UNL     1       0.519   4.889   3.421  0.00  0.00    +0.000 C 
ATOM     37  C   UNL     1      -0.437   4.070   2.551  0.00  0.00    +0.002 C 
ATOM     38  C   UNL     1      -0.117   2.581   2.705  0.00  0.00    +0.022 C 
ENDBRANCH  31  33
ENDBRANCH  21  29
ENDBRANCH   1  21
TORSDOF 8
