REMARK  Name = ZINC39694129
REMARK  7 active torsions:
REMARK  status: ('A' for Active; 'I' for Inactive)
REMARK    1  A    between atoms: N_4  and  C_6
REMARK    2  A    between atoms: C_10  and  C_12
REMARK    3  A    between atoms: C_12  and  N_13
REMARK    4  A    between atoms: C_14  and  C_16
REMARK    5  A    between atoms: C_27  and  C_29
REMARK    6  A    between atoms: C_29  and  O_30
REMARK    7  A    between atoms: O_30  and  C_31
REMARK                            x       y       z     vdW  Elec       q    Type
REMARK                         _______ _______ _______ _____ _____    ______ ____
ROOT
ATOM      1  C   UNL     1      -1.270  -6.970   3.002  0.00  0.00    +0.100 C 
ATOM      2  C   UNL     1      -1.821  -5.752   3.776  0.00  0.00    +0.121 C 
ATOM      3  N   UNL     1      -3.294  -5.875   3.668  0.00  0.00    -0.297 N 
ATOM      4  C   UNL     1      -3.554  -7.327   3.807  0.00  0.00    +0.115 C 
ATOM      5  C   UNL     1      -2.409  -8.003   3.027  0.00  0.00    -0.004 C 
ATOM      6  C   UNL     1      -1.956  -9.271   3.745  0.00  0.00    -0.010 C 
ATOM      7  C   UNL     1      -3.085 -10.305   3.707  0.00  0.00    -0.082 C 
ATOM      8  N   UNL     1      -3.429 -10.605   2.312  0.00  0.00    +0.379 N 
ATOM      9  C   UNL     1      -3.951  -9.400   1.655  0.00  0.00    -0.082 C 
ATOM     10  C   UNL     1      -2.859  -8.328   1.606  0.00  0.00    -0.010 C 
ATOM     11  C   UNL     1      -4.193  -4.888   3.484  0.00  0.00    +0.253 C 
ATOM     12  O   UNL     1      -5.375  -5.150   3.415  0.00  0.00    -0.272 OA
ATOM     13  H   UNL     1      -2.604 -10.921   1.824  0.00  0.00    -0.086 HD
ATOM     14  H   UNL     1      -4.130 -11.330   2.288  0.00  0.00    -0.086 HD
ENDROOT
BRANCH   1  16
ATOM     15  N   UNL     1       0.025  -7.241   0.911  0.00  0.00    -0.311 N 
ATOM     16  C   UNL     1      -0.943  -6.585   1.582  0.00  0.00    +0.218 C 
ATOM     17  O   UNL     1      -1.550  -5.684   1.043  0.00  0.00    -0.275 OA
ATOM     18  H   UNL     1       0.510  -7.961   1.342  0.00  0.00    +0.149 HD
BRANCH  15  19
ATOM     19  C   UNL     1       0.343  -6.866  -0.469  0.00  0.00    +0.139 C 
BRANCH  19  24
ATOM     20  C   UNL     1       3.789  -8.175  -1.300  0.00  0.00    +0.046 A 
ATOM     21  C   UNL     1       3.482  -9.369  -1.940  0.00  0.00    +0.026 A 
ATOM     22  C   UNL     1       2.163  -9.746  -2.099  0.00  0.00    +0.002 A 
ATOM     23  C   UNL     1       1.149  -8.935  -1.623  0.00  0.00    +0.005 A 
ATOM     24  C   UNL     1       1.451  -7.746  -0.986  0.00  0.00    -0.028 A 
ATOM     25  C   UNL     1       2.769  -7.367  -0.818  0.00  0.00    +0.031 A 
BRANCH  20  29
ATOM     26  C   UNL     1       6.906  -6.631  -0.563  0.00  0.00    +0.019 A 
ATOM     27  C   UNL     1       7.324  -7.804  -1.223  0.00  0.00    +0.019 A 
ATOM     28  C   UNL     1       6.216  -8.494  -1.563  0.00  0.00    +0.091 A 
ATOM     29  N   UNL     1       5.127  -7.790  -1.136  0.00  0.00    -0.323 N 
ATOM     30  C   UNL     1       5.558  -6.648  -0.523  0.00  0.00    +0.091 A 
ENDBRANCH  20  29
ENDBRANCH  19  24
ENDBRANCH  15  19
ENDBRANCH   1  16
BRANCH  11  31
ATOM     31  C   UNL     1      -3.730  -3.459   3.364  0.00  0.00    +0.324 C 
BRANCH  31  32
ATOM     32  O   UNL     1      -4.861  -2.606   3.176  0.00  0.00    -0.483 OA
BRANCH  32  33
ATOM     33  C   UNL     1      -4.616  -1.275   3.049  0.00  0.00    +0.123 A 
ATOM     34  C   UNL     1      -3.313  -0.801   3.098  0.00  0.00    +0.046 A 
ATOM     35  C   UNL     1      -3.066   0.552   2.968  0.00  0.00    +0.005 A 
ATOM     36  C   UNL     1      -4.116   1.434   2.789  0.00  0.00    +0.020 A 
ATOM     37  C   UNL     1      -5.416   0.964   2.740  0.00  0.00    +0.044 A 
ATOM     38  C   UNL     1      -5.668  -0.390   2.864  0.00  0.00    +0.065 A 
ATOM     39 CL   UNL     1      -6.732   2.074   2.515  0.00  0.00    -0.083 Cl
ENDBRANCH  32  33
ENDBRANCH  31  32
ENDBRANCH  11  31
TORSDOF 7
