REMARK  Name = ZINC09673454
REMARK  4 active torsions:
REMARK  status: ('A' for Active; 'I' for Inactive)
REMARK    1  A    between atoms: C_1  and  C_2
REMARK    2  A    between atoms: C_5  and  N_8
REMARK    3  A    between atoms: C_13  and  C_30
REMARK    4  A    between atoms: C_21  and  C_23
REMARK                            x       y       z     vdW  Elec       q    Type
REMARK                         _______ _______ _______ _____ _____    ______ ____
ROOT
ATOM      1  N   UNL     1      -0.462  -4.557   0.253  0.00  0.00    -0.208 N 
ATOM      2  C   UNL     1      -0.768  -5.489   1.213  0.00  0.00    +0.234 C 
ATOM      3  O   UNL     1      -1.268  -5.291   2.300  0.00  0.00    -0.274 OA
ATOM      4  C   UNL     1      -0.367  -6.750   0.649  0.00  0.00    +0.130 C 
ATOM      5  C   UNL     1      -0.647  -8.194   0.749  0.00  0.00    +0.117 C 
ATOM      6  N   UNL     1      -0.024  -8.692  -0.526  0.00  0.00    -0.229 NA
ATOM      7  N   UNL     1       0.096  -7.633  -1.416  0.00  0.00    -0.220 N 
ATOM      8  C   UNL     1      -0.712  -6.531  -0.881  0.00  0.00    +0.194 C 
ATOM      9  C   UNL     1      -0.188  -5.123  -0.960  0.00  0.00    +0.249 C 
ATOM     10  O   UNL     1       0.363  -4.601  -1.904  0.00  0.00    -0.273 OA
ATOM     11  C   UNL     1       0.806  -7.631  -2.561  0.00  0.00    +0.261 C 
ATOM     12  O   UNL     1       0.787  -6.657  -3.287  0.00  0.00    -0.269 OA
ATOM     13  H   UNL     1       0.873  -9.118  -0.348  0.00  0.00    +0.145 HD
ENDROOT
BRANCH   1  18
ATOM     14  C   UNL     1      -0.368   1.037   1.208  0.00  0.00    +0.044 C 
ATOM     15  C   UNL     1      -0.393  -0.448   0.955  0.00  0.00    -0.050 A 
ATOM     16  C   UNL     1      -0.101  -0.938  -0.305  0.00  0.00    +0.005 A 
ATOM     17  C   UNL     1      -0.123  -2.299  -0.541  0.00  0.00    +0.024 A 
ATOM     18  C   UNL     1      -0.438  -3.175   0.489  0.00  0.00    +0.044 A 
ATOM     19  C   UNL     1      -0.730  -2.681   1.753  0.00  0.00    +0.024 A 
ATOM     20  C   UNL     1      -0.702  -1.319   1.983  0.00  0.00    +0.005 A 
ENDBRANCH   1  18
BRANCH  11  21
ATOM     21  C   UNL     1       1.609  -8.815  -2.934  0.00  0.00    +0.039 A 
ATOM     22  C   UNL     1       1.375 -10.045  -2.316  0.00  0.00    +0.013 A 
ATOM     23  C   UNL     1       2.128 -11.146  -2.668  0.00  0.00    +0.002 A 
ATOM     24  C   UNL     1       3.113 -11.034  -3.633  0.00  0.00    +0.015 A 
ATOM     25  C   UNL     1       3.351  -9.818  -4.250  0.00  0.00    +0.019 A 
ATOM     26  C   UNL     1       2.600  -8.710  -3.911  0.00  0.00    +0.028 A 
ATOM     27 BR   UNL     1       4.702  -9.676  -5.566  0.00  0.00    -0.050 Br
ENDBRANCH  11  21
BRANCH   5  28
ATOM     28  C   UNL     1       0.027  -8.796   1.956  0.00  0.00    -0.028 A 
ATOM     29  C   UNL     1       1.372  -9.110   1.910  0.00  0.00    +0.008 A 
ATOM     30  C   UNL     1       1.991  -9.662   3.016  0.00  0.00    +0.038 A 
ATOM     31  C   UNL     1       1.263  -9.899   4.170  0.00  0.00    +0.123 A 
ATOM     32  C   UNL     1      -0.084  -9.584   4.214  0.00  0.00    +0.038 A 
ATOM     33  C   UNL     1      -0.700  -9.027   3.108  0.00  0.00    +0.008 A 
ATOM     34  F   UNL     1       1.867 -10.438   5.251  0.00  0.00    -0.205 F 
ENDBRANCH   5  28
TORSDOF 3
