REMARK  Name = ZINC67589760
REMARK  10 active torsions:
REMARK  status: ('A' for Active; 'I' for Inactive)
REMARK    1  A    between atoms: C_1  and  C_2
REMARK    2  A    between atoms: C_7  and  C_10
REMARK    3  A    between atoms: N_18  and  C_19
REMARK    4  A    between atoms: C_19  and  C_20
REMARK    5  A    between atoms: C_20  and  C_22
REMARK    6  A    between atoms: C_20  and  N_30
REMARK    7  A    between atoms: C_25  and  O_28
REMARK    8  A    between atoms: O_28  and  C_29
REMARK    9  A    between atoms: N_30  and  C_31
REMARK   10  A    between atoms: N_30  and  C_32
REMARK                            x       y       z     vdW  Elec       q    Type
REMARK                         _______ _______ _______ _____ _____    ______ ____
ROOT
ATOM      1  C   UNL     1      -0.559   1.554   0.080  0.00  0.00    +0.039 C 
ATOM      2  C   UNL     1      -0.464   0.028   0.067  0.00  0.00    +0.133 C 
ATOM      3  C   UNL     1       0.354  -0.424  -1.149  0.00  0.00    +0.140 C 
ATOM      4  N   UNL     1       0.589  -1.872  -1.038  0.00  0.00    -0.280 N 
ATOM      5  C   UNL     1       1.128  -2.390   0.230  0.00  0.00    +0.145 C 
ATOM      6  C   UNL     1       0.272  -1.843   1.378  0.00  0.00    +0.166 C 
ATOM      7  O   UNL     1       0.180  -0.421   1.261  0.00  0.00    -0.366 OA
ATOM      8  C   UNL     1       0.319  -2.700  -2.067  0.00  0.00    +0.302 C 
ATOM      9  O   UNL     1       0.604  -3.880  -1.989  0.00  0.00    -0.253 OA
ATOM     10  N   UNL     1      -0.267  -2.220  -3.181  0.00  0.00    -0.300 N 
ATOM     11  H   UNL     1      -0.429  -1.268  -3.273  0.00  0.00    +0.150 HD
ENDROOT
BRANCH   6  12
ATOM     12  C   UNL     1       0.910  -2.201   2.696  0.00  0.00    -0.017 A 
ATOM     13  C   UNL     1       1.897  -1.392   3.228  0.00  0.00    +0.006 A 
ATOM     14  C   UNL     1       2.482  -1.720   4.437  0.00  0.00    +0.000 A 
ATOM     15  C   UNL     1       2.080  -2.857   5.113  0.00  0.00    +0.000 A 
ATOM     16  C   UNL     1       1.094  -3.665   4.581  0.00  0.00    +0.000 A 
ATOM     17  C   UNL     1       0.506  -3.335   3.374  0.00  0.00    +0.006 A 
ENDBRANCH   6  12
BRANCH  10  18
ATOM     18  C   UNL     1      -0.660  -3.137  -4.255  0.00  0.00    +0.095 C 
BRANCH  18  19
ATOM     19  C   UNL     1      -1.180  -2.332  -5.448  0.00  0.00    -0.021 C 
BRANCH  19  20
ATOM     20  C   UNL     1      -0.064  -1.489  -6.010  0.00  0.00    -0.059 A 
ATOM     21  C   UNL     1       0.874  -2.058  -6.852  0.00  0.00    +0.005 A 
ATOM     22  C   UNL     1       1.898  -1.288  -7.368  0.00  0.00    +0.046 A 
ATOM     23  C   UNL     1       1.986   0.057  -7.040  0.00  0.00    +0.120 A 
ATOM     24  C   UNL     1       1.043   0.626  -6.196  0.00  0.00    +0.046 A 
ATOM     25  C   UNL     1       0.018  -0.147  -5.686  0.00  0.00    +0.005 A 
BRANCH  23  26
ATOM     26  O   UNL     1       2.993   0.817  -7.546  0.00  0.00    -0.495 OA
ATOM     27  C   UNL     1       3.020   2.194  -7.167  0.00  0.00    +0.277 C 
ENDBRANCH  23  26
ENDBRANCH  19  20
BRANCH  19  28
ATOM     28  N   UNL     1      -1.668  -3.252  -6.484  0.00  0.00    +0.382 N 
ATOM     29  C   UNL     1      -2.812  -4.012  -5.964  0.00  0.00    -0.096 C 
ATOM     30  C   UNL     1      -2.086  -2.483  -7.664  0.00  0.00    -0.096 C 
ATOM     31  H   UNL     1      -0.930  -3.890  -6.742  0.00  0.00    -0.082 HD
ENDBRANCH  19  28
ENDBRANCH  18  19
ENDBRANCH  10  18
TORSDOF 6
