REMARK  Name = ZINC36220571
REMARK  7 active torsions:
REMARK  status: ('A' for Active; 'I' for Inactive)
REMARK    1  A    between atoms: C_1  and  C_2
REMARK    2  A    between atoms: C_11  and  N_32
REMARK    3  A    between atoms: C_13  and  S_15
REMARK    4  A    between atoms: S_15  and  C_16
REMARK    5  A    between atoms: C_16  and  C_17
REMARK    6  A    between atoms: C_19  and  O_20
REMARK    7  A    between atoms: C_29  and  C_31
REMARK                            x       y       z     vdW  Elec       q    Type
REMARK                         _______ _______ _______ _____ _____    ______ ____
ROOT
ATOM      1  S   UNL     1      -0.970  -8.387   1.776  0.00  0.00    -0.081 S 
ENDROOT
BRANCH   1  13
ATOM      2  C   UNL     1      -1.827   0.694  -2.784  0.00  0.00    +0.008 C 
ATOM      3  C   UNL     1      -1.596  -0.776  -2.427  0.00  0.00    -0.009 C 
ATOM      4  C   UNL     1      -2.937  -1.514  -2.397  0.00  0.00    +0.008 C 
ATOM      5  C   UNL     1      -2.697  -3.020  -2.287  0.00  0.00    +0.037 C 
ATOM      6  C   UNL     1      -1.776  -3.289  -1.100  0.00  0.00    -0.025 A 
ATOM      7  C   UNL     1      -1.018  -2.297  -0.580  0.00  0.00    -0.004 A 
ATOM      8  S   UNL     1      -0.121  -3.045   0.757  0.00  0.00    -0.073 S 
ATOM      9  C   UNL     1      -0.761  -4.683   0.621  0.00  0.00    +0.115 A 
ATOM     10  C   UNL     1      -1.661  -4.595  -0.471  0.00  0.00    +0.051 A 
ATOM     11  C   UNL     1      -2.353  -5.787  -0.836  0.00  0.00    +0.129 A 
ATOM     12  N   UNL     1      -2.080  -6.865  -0.106  0.00  0.00    -0.207 NA
ATOM     13  C   UNL     1      -1.224  -6.876   0.905  0.00  0.00    +0.191 A 
ATOM     14  N   UNL     1      -0.545  -5.794   1.296  0.00  0.00    -0.215 NA
ATOM     15  C   UNL     1      -0.946  -0.872  -1.039  0.00  0.00    +0.046 C 
BRANCH  11  16
ATOM     16  N   UNL     1      -3.254  -5.819  -1.884  0.00  0.00    -0.343 N 
ATOM     17  H   UNL     1      -3.190  -5.168  -2.600  0.00  0.00    +0.144 HD
ATOM     18  H   UNL     1      -3.951  -6.494  -1.904  0.00  0.00    +0.144 HD
ENDBRANCH  11  16
ENDBRANCH   1  13
BRANCH   1  19
ATOM     19  C   UNL     1      -2.063  -9.566   0.935  0.00  0.00    +0.113 C 
BRANCH  19  20
ATOM     20  C   UNL     1      -1.941 -10.918   1.590  0.00  0.00    -0.020 A 
ATOM     21  C   UNL     1      -0.828 -11.707   1.378  0.00  0.00    +0.092 A 
ATOM     22  C   UNL     1      -0.734 -12.949   1.990  0.00  0.00    +0.285 A 
ATOM     23  O   UNL     1      -1.704 -13.407   2.788  0.00  0.00    -0.425 OA
ATOM     24  C   UNL     1      -2.812 -12.678   3.029  0.00  0.00    +0.141 A 
ATOM     25  C   UNL     1      -2.959 -11.403   2.437  0.00  0.00    +0.022 A 
ATOM     26  C   UNL     1      -4.111 -10.637   2.691  0.00  0.00    +0.013 A 
ATOM     27  C   UNL     1      -5.081 -11.122   3.509  0.00  0.00    +0.024 A 
ATOM     28  C   UNL     1      -4.941 -12.387   4.107  0.00  0.00    +0.037 A 
ATOM     29  C   UNL     1      -3.809 -13.164   3.857  0.00  0.00    +0.070 A 
ATOM     30  N   UNL     1      -5.920 -12.861   4.926  0.00  0.00    -0.286 N 
ATOM     31  C   UNL     1      -5.674 -13.879   5.727  0.00  0.00    +0.214 C 
ATOM     32  O   UNL     1      -4.541 -14.316   5.826  0.00  0.00    -0.276 OA
ATOM     33  C   UNL     1      -6.794 -14.502   6.520  0.00  0.00    +0.109 C 
ATOM     34  H   UNL     1      -6.799 -12.450   4.920  0.00  0.00    +0.155 HD
BRANCH  22  35
ATOM     35  O   UNL     1       0.357 -13.708   1.775  0.00  0.00    -0.480 OA
ATOM     36  H   UNL     1       0.343 -14.557   2.238  0.00  0.00    +0.295 HD
ENDBRANCH  22  35
ENDBRANCH  19  20
ENDBRANCH   1  19
TORSDOF 5
