REMARK  Name = ZINC13316476
REMARK  7 active torsions:
REMARK  status: ('A' for Active; 'I' for Inactive)
REMARK    1  A    between atoms: C_1  and  C_2
REMARK    2  A    between atoms: C_5  and  N_9
REMARK    3  A    between atoms: C_10  and  C_12
REMARK    4  A    between atoms: C_12  and  C_14
REMARK    5  A    between atoms: C_12  and  O_15
REMARK    6  A    between atoms: O_15  and  C_16
REMARK    7  A    between atoms: C_19  and  C_23
REMARK                            x       y       z     vdW  Elec       q    Type
REMARK                         _______ _______ _______ _____ _____    ______ ____
ROOT
ATOM      1  C   UNL     1      -0.066  -0.151  -0.083  0.00  0.00    +0.256 C 
ATOM      2  C   UNL     1      -0.029   1.378  -0.057  0.00  0.00    +0.062 C 
ENDROOT
BRANCH   1   4
ATOM      3  N   UNL     1      -2.222  -0.383   1.107  0.00  0.00    -0.282 N 
ATOM      4  C   UNL     1      -1.495  -0.621  -0.003  0.00  0.00    +0.258 C 
ATOM      5  O   UNL     1      -1.992  -1.215  -0.937  0.00  0.00    -0.271 OA
ATOM      6  H   UNL     1      -1.854   0.162   1.820  0.00  0.00    +0.155 HD
BRANCH   3  11
ATOM      7  C   UNL     1      -7.437  -2.562   1.605  0.00  0.00    +0.044 C 
ATOM      8  C   UNL     1      -6.052  -1.983   1.472  0.00  0.00    -0.049 A 
ATOM      9  C   UNL     1      -5.125  -2.593   0.647  0.00  0.00    +0.005 A 
ATOM     10  C   UNL     1      -3.855  -2.065   0.524  0.00  0.00    +0.025 A 
ATOM     11  C   UNL     1      -3.509  -0.920   1.229  0.00  0.00    +0.048 A 
ATOM     12  C   UNL     1      -4.440  -0.312   2.062  0.00  0.00    +0.039 A 
ATOM     13  C   UNL     1      -5.711  -0.843   2.177  0.00  0.00    +0.020 A 
ATOM     14 BR   UNL     1      -3.972   1.243   3.031  0.00  0.00    -0.048 Br
ENDBRANCH   3  11
ENDBRANCH   1   4
BRANCH   1  15
ATOM     15  O   UNL     1       0.523  -0.621  -1.297  0.00  0.00    -0.479 OA
BRANCH  15  16
ATOM     16  C   UNL     1       1.874  -0.752  -1.317  0.00  0.00    +0.136 A 
ATOM     17  C   UNL     1       2.608  -0.530  -0.158  0.00  0.00    +0.047 A 
ATOM     18  C   UNL     1       3.978  -0.666  -0.172  0.00  0.00    +0.019 A 
ATOM     19  C   UNL     1       4.632  -1.019  -1.357  0.00  0.00    +0.064 A 
ATOM     20  C   UNL     1       3.890  -1.236  -2.522  0.00  0.00    +0.034 A 
ATOM     21  C   UNL     1       2.519  -1.102  -2.498  0.00  0.00    +0.060 A 
ATOM     22 BR   UNL     1       1.514  -1.396  -4.072  0.00  0.00    -0.046 Br
BRANCH  19  23
ATOM     23  C   UNL     1       6.100  -1.161  -1.377  0.00  0.00    +0.387 C 
ATOM     24  O   UNL     1       6.666  -1.467  -2.408  0.00  0.00    -0.241 OA
ATOM     25  O   UNL     1       6.813  -0.951  -0.254  0.00  0.00    -0.241 OA
ENDBRANCH  19  23
ENDBRANCH  15  16
ENDBRANCH   1  15
TORSDOF 5
