REMARK  Name = ZINC35705404
REMARK  15 active torsions:
REMARK  status: ('A' for Active; 'I' for Inactive)
REMARK    1  A    between atoms: C_1  and  C_2
REMARK    2  A    between atoms: C_5  and  C_36
REMARK    3  A    between atoms: C_6  and  C_8
REMARK    4  A    between atoms: C_10  and  C_30
REMARK    5  A    between atoms: C_11  and  C_26
REMARK    6  A    between atoms: C_15  and  C_18
REMARK    7  A    between atoms: C_19  and  N_21
REMARK    8  A    between atoms: N_21  and  C_22
REMARK    9  A    between atoms: C_22  and  C_23
REMARK   10  A    between atoms: C_23  and  C_24
REMARK   11  A    between atoms: C_23  and  C_25
REMARK   12  A    between atoms: C_30  and  O_32
REMARK   13  A    between atoms: O_32  and  C_33
REMARK   14  A    between atoms: C_33  and  C_34
REMARK   15  A    between atoms: C_33  and  C_35
REMARK                            x       y       z     vdW  Elec       q    Type
REMARK                         _______ _______ _______ _____ _____    ______ ____
ROOT
ATOM      1  C   UNL     1      -0.130  -3.042   2.992  0.00  0.00    +0.150 C 
ATOM      2  C   UNL     1      -1.480  -3.423   3.559  0.00  0.00    +0.091 C 
ATOM      3  C   UNL     1      -1.896  -2.788   4.714  0.00  0.00    +0.158 C 
ATOM      4  N   UNL     1      -1.128  -1.880   5.293  0.00  0.00    -0.220 NA
ATOM      5  C   UNL     1       0.055  -1.504   4.853  0.00  0.00    +0.166 C 
ATOM      6  N   UNL     1       0.645  -2.009   3.729  0.00  0.00    -0.267 N 
ATOM      7  C   UNL     1       1.890  -1.511   3.397  0.00  0.00    +0.048 C 
ATOM      8  C   UNL     1       2.423  -0.569   4.206  0.00  0.00    +0.072 C 
ATOM      9  S   UNL     1       1.157  -0.385   5.444  0.00  0.00    -0.060 S 
ENDROOT
BRANCH   1  15
ATOM     10  C   UNL     1      -0.990   0.716  -0.199  0.00  0.00    +0.044 C 
ATOM     11  C   UNL     1      -0.752  -0.750   0.058  0.00  0.00    -0.050 A 
ATOM     12  C   UNL     1      -0.728  -1.642  -0.999  0.00  0.00    +0.003 A 
ATOM     13  C   UNL     1      -0.510  -2.986  -0.764  0.00  0.00    +0.004 A 
ATOM     14  C   UNL     1      -0.317  -3.440   0.528  0.00  0.00    -0.045 A 
ATOM     15  C   UNL     1      -0.341  -2.548   1.584  0.00  0.00    -0.019 A 
ATOM     16  C   UNL     1      -0.554  -1.203   1.348  0.00  0.00    +0.009 A 
ATOM     17  C   UNL     1      -0.081  -4.906   0.785  0.00  0.00    +0.044 C 
ENDBRANCH   1  15
BRANCH   3  18
ATOM     18  C   UNL     1      -3.233  -3.133   5.317  0.00  0.00    +0.435 C 
ATOM     19  F   UNL     1      -3.917  -4.008   4.466  0.00  0.00    -0.164 F 
ATOM     20  F   UNL     1      -3.040  -3.746   6.559  0.00  0.00    -0.164 F 
ATOM     21  F   UNL     1      -3.984  -1.964   5.485  0.00  0.00    -0.164 F 
ENDBRANCH   3  18
BRANCH   7  22
ATOM     22  C   UNL     1       2.609  -1.989   2.208  0.00  0.00    +0.091 C 
ATOM     23  C   UNL     1       3.880  -1.602   1.989  0.00  0.00    +0.239 C 
ATOM     24  O   UNL     1       4.547  -0.899   2.936  0.00  0.00    -0.271 OA
BRANCH  23  25
ATOM     25  N   UNL     1       4.505  -1.921   0.795  0.00  0.00    -0.312 N 
ATOM     26  H   UNL     1       4.027  -2.424   0.117  0.00  0.00    +0.149 HD
BRANCH  25  27
ATOM     27  C   UNL     1       5.888  -1.500   0.556  0.00  0.00    +0.107 C 
BRANCH  27  28
ATOM     28  C   UNL     1       6.335  -1.977  -0.827  0.00  0.00    -0.000 C 
ATOM     29  C   UNL     1       7.732  -1.432  -1.127  0.00  0.00    +0.009 C 
ATOM     30  C   UNL     1       6.368  -3.507  -0.852  0.00  0.00    +0.009 C 
ENDBRANCH  27  28
ENDBRANCH  25  27
ENDBRANCH  23  25
ENDBRANCH   7  22
BRANCH   2  31
ATOM     31  C   UNL     1      -2.282  -4.385   2.933  0.00  0.00    +0.340 C 
ATOM     32  O   UNL     1      -2.106  -5.569   3.164  0.00  0.00    -0.245 OA
BRANCH  31  33
ATOM     33  O   UNL     1      -3.252  -4.001   2.074  0.00  0.00    -0.459 OA
BRANCH  33  34
ATOM     34  C   UNL     1      -3.996  -5.038   1.431  0.00  0.00    +0.171 C 
ATOM     35  C   UNL     1      -5.274  -5.316   2.225  0.00  0.00    +0.052 C 
ATOM     36  C   UNL     1      -4.363  -4.598   0.012  0.00  0.00    +0.052 C 
ENDBRANCH  33  34
ENDBRANCH  31  33
ENDBRANCH   2  31
TORSDOF 9
