REMARK  Name = ZINC02256069
REMARK  10 active torsions:
REMARK  status: ('A' for Active; 'I' for Inactive)
REMARK    1  A    between atoms: C_1  and  O_2
REMARK    2  A    between atoms: O_2  and  C_3
REMARK    3  A    between atoms: C_6  and  C_9
REMARK    4  A    between atoms: C_20  and  C_22
REMARK    5  A    between atoms: C_25  and  O_30
REMARK    6  A    between atoms: C_26  and  O_28
REMARK    7  A    between atoms: O_28  and  C_29
REMARK    8  A    between atoms: O_30  and  C_31
REMARK    9  A    between atoms: C_36  and  S_38
REMARK   10  A    between atoms: S_38  and  C_39
REMARK                            x       y       z     vdW  Elec       q    Type
REMARK                         _______ _______ _______ _____ _____    ______ ____
ROOT
ATOM      1  C   UNL     1       2.587  -2.550   4.310  0.00  0.00    +0.159 C 
ATOM      2  C   UNL     1       1.536  -2.944   5.325  0.00  0.00    +0.025 C 
ATOM      3  C   UNL     1       1.427  -4.248   5.652  0.00  0.00    +0.058 C 
ATOM      4  C   UNL     1       0.384  -4.620   6.642  0.00  0.00    +0.040 A 
ATOM      5  C   UNL     1       0.396  -5.854   7.279  0.00  0.00    +0.013 A 
ATOM      6  C   UNL     1      -0.593  -6.159   8.194  0.00  0.00    +0.001 A 
ATOM      7  C   UNL     1      -1.589  -5.240   8.476  0.00  0.00    +0.004 A 
ATOM      8  C   UNL     1      -1.608  -4.009   7.845  0.00  0.00    +0.046 A 
ATOM      9  C   UNL     1      -0.625  -3.691   6.925  0.00  0.00    +0.131 A 
ATOM     10  O   UNL     1      -0.624  -2.493   6.287  0.00  0.00    -0.479 OA
ATOM     11  C   UNL     1       0.643  -1.918   5.961  0.00  0.00    +0.234 C 
ATOM     12  N   UNL     1       2.233  -5.187   5.102  0.00  0.00    -0.326 N 
ATOM     13  C   UNL     1       3.171  -4.932   4.214  0.00  0.00    +0.216 C 
ATOM     14  N   UNL     1       3.401  -3.647   3.772  0.00  0.00    -0.209 N 
ATOM     15  N   UNL     1       4.442  -3.720   2.844  0.00  0.00    -0.239 N 
ATOM     16  C   UNL     1       4.796  -5.041   2.765  0.00  0.00    +0.174 C 
ATOM     17  N   UNL     1       4.043  -5.736   3.579  0.00  0.00    -0.192 NA
ATOM     18  H   UNL     1       2.112  -6.109   5.380  0.00  0.00    +0.169 HD
ATOM     19  H   UNL     1       4.835  -2.982   2.353  0.00  0.00    +0.172 HD
ENDROOT
BRANCH   1  23
ATOM     20  C   UNL     1       0.626  -0.618   1.042  0.00  0.00    +0.120 A 
ATOM     21  C   UNL     1       1.202   0.138   2.051  0.00  0.00    +0.046 A 
ATOM     22  C   UNL     1       1.835  -0.488   3.107  0.00  0.00    +0.009 A 
ATOM     23  C   UNL     1       1.895  -1.869   3.158  0.00  0.00    -0.021 A 
ATOM     24  C   UNL     1       1.322  -2.625   2.152  0.00  0.00    +0.009 A 
ATOM     25  C   UNL     1       0.682  -2.003   1.098  0.00  0.00    +0.046 A 
BRANCH  20  27
ATOM     26  C   UNL     1      -0.017   1.425   0.010  0.00  0.00    +0.277 C 
ATOM     27  O   UNL     1       0.002  -0.004   0.002  0.00  0.00    -0.495 OA
ENDBRANCH  20  27
ENDBRANCH   1  23
BRANCH  11  28
ATOM     28  C   UNL     1       1.294  -1.402   7.218  0.00  0.00    +0.001 A 
ATOM     29  C   UNL     1       1.229  -2.143   8.383  0.00  0.00    +0.011 A 
ATOM     30  C   UNL     1       1.825  -1.673   9.539  0.00  0.00    +0.050 A 
ATOM     31  C   UNL     1       2.490  -0.458   9.531  0.00  0.00    +0.162 A 
ATOM     32  C   UNL     1       2.556   0.288   8.358  0.00  0.00    +0.162 A 
ATOM     33  C   UNL     1       1.961  -0.191   7.202  0.00  0.00    +0.057 A 
BRANCH  32  34
ATOM     34  O   UNL     1       3.207   1.482   8.345  0.00  0.00    -0.491 OA
ATOM     35  C   UNL     1       3.235   2.192   7.106  0.00  0.00    +0.277 C 
ENDBRANCH  32  34
BRANCH  31  36
ATOM     36  O   UNL     1       3.076   0.006  10.667  0.00  0.00    -0.491 OA
ATOM     37  C   UNL     1       2.967  -0.812  11.834  0.00  0.00    +0.277 C 
ENDBRANCH  31  36
ENDBRANCH  11  28
BRANCH  16  38
ATOM     38  S   UNL     1       6.068  -5.699   1.738  0.00  0.00    -0.092 S 
ATOM     39  C   UNL     1       6.039  -7.479   2.089  0.00  0.00    +0.093 C 
ENDBRANCH  16  38
TORSDOF 6
