REMARK  Name = ZINC02362166
REMARK  11 active torsions:
REMARK  status: ('A' for Active; 'I' for Inactive)
REMARK    1  A    between atoms: C_1  and  C_2
REMARK    2  A    between atoms: N_8  and  C_9
REMARK    3  A    between atoms: C_9  and  C_10
REMARK    4  A    between atoms: C_10  and  C_11
REMARK    5  A    between atoms: C_14  and  O_18
REMARK    6  A    between atoms: C_15  and  O_17
REMARK    7  A    between atoms: C_19  and  C_27
REMARK    8  A    between atoms: C_21  and  C_25
REMARK    9  A    between atoms: C_22  and  N_24
REMARK   10  A    between atoms: C_27  and  C_28
REMARK   11  A    between atoms: C_27  and  C_29
REMARK                            x       y       z     vdW  Elec       q    Type
REMARK                         _______ _______ _______ _____ _____    ______ ____
ROOT
ATOM      1  C   UNL     1      -2.438  -2.820   0.207  0.00  0.00    +0.064 C 
ATOM      2  C   UNL     1      -1.126  -2.131   0.478  0.00  0.00    +0.022 A 
ATOM      3  C   UNL     1      -1.121  -0.834   0.853  0.00  0.00    +0.068 A 
ATOM      4  C   UNL     1       0.105  -0.183   1.107  0.00  0.00    +0.141 A 
ATOM      5  C   UNL     1       1.279  -0.893   0.968  0.00  0.00    +0.068 A 
ATOM      6  C   UNL     1       1.224  -2.237   0.576  0.00  0.00    +0.259 A 
ATOM      7  O   UNL     1       2.256  -2.877   0.447  0.00  0.00    -0.267 OA
ATOM      8  N   UNL     1       0.035  -2.823   0.341  0.00  0.00    -0.312 N 
ATOM      9  C   UNL     1       2.608  -0.240   1.231  0.00  0.00    +0.076 C 
ATOM     10  C   UNL     1       2.457   1.256   1.239  0.00  0.00    +0.094 C 
ATOM     11  C   UNL     1       1.240   1.838   1.361  0.00  0.00    +0.198 C 
ATOM     12  O   UNL     1       0.114   1.114   1.481  0.00  0.00    -0.441 OA
ENDROOT
BRANCH  11  13
ATOM     13  N   UNL     1       1.154   3.208   1.364  0.00  0.00    -0.328 N 
ATOM     14  H   UNL     1       0.290   3.640   1.451  0.00  0.00    +0.145 HD
ATOM     15  H   UNL     1       1.958   3.745   1.278  0.00  0.00    +0.145 HD
ENDBRANCH  11  13
BRANCH   9  16
ATOM     16  C   UNL     1       3.597  -0.644   0.136  0.00  0.00    -0.004 C 
ATOM     17  C   UNL     1       3.118  -0.099  -1.211  0.00  0.00    +0.008 C 
ATOM     18  C   UNL     1       4.977  -0.066   0.457  0.00  0.00    +0.008 C 
ENDBRANCH   9  16
BRANCH  10  19
ATOM     19  C   UNL     1       3.621   2.081   1.114  0.00  0.00    +0.100 C 
ATOM     20  N   UNL     1       4.544   2.735   1.015  0.00  0.00    -0.191 NA
ENDBRANCH  10  19
BRANCH   8  21
ATOM     21  C   UNL     1      -0.007  -4.229  -0.068  0.00  0.00    +0.130 C 
BRANCH  21  22
ATOM     22  C   UNL     1       0.054  -4.317  -1.594  0.00  0.00    +0.057 C 
BRANCH  22  23
ATOM     23  C   UNL     1       0.010  -5.764  -2.016  0.00  0.00    -0.042 A 
ATOM     24  C   UNL     1       1.187  -6.475  -2.163  0.00  0.00    +0.007 A 
ATOM     25  C   UNL     1       1.152  -7.803  -2.544  0.00  0.00    +0.049 A 
ATOM     26  C   UNL     1      -0.064  -8.422  -2.789  0.00  0.00    +0.158 A 
ATOM     27  C   UNL     1      -1.248  -7.704  -2.647  0.00  0.00    +0.158 A 
ATOM     28  C   UNL     1      -1.206  -6.375  -2.259  0.00  0.00    +0.052 A 
BRANCH  27  29
ATOM     29  O   UNL     1      -2.443  -8.307  -2.886  0.00  0.00    -0.503 OA
ATOM     30  H   UNL     1      -2.742  -8.236  -3.803  0.00  0.00    +0.292 HD
ENDBRANCH  27  29
BRANCH  26  31
ATOM     31  O   UNL     1      -0.100  -9.727  -3.170  0.00  0.00    -0.503 OA
ATOM     32  H   UNL     1      -0.063  -9.859  -4.127  0.00  0.00    +0.292 HD
ENDBRANCH  26  31
ENDBRANCH  22  23
ENDBRANCH  21  22
ENDBRANCH   8  21
TORSDOF 8
