REMARK  Name = ZINC09348699
REMARK  3 active torsions:
REMARK  status: ('A' for Active; 'I' for Inactive)
REMARK    1  A    between atoms: C_1  and  C_2
REMARK    2  A    between atoms: N_20  and  C_23
REMARK    3  A    between atoms: C_28  and  C_29
REMARK                            x       y       z     vdW  Elec       q    Type
REMARK                         _______ _______ _______ _____ _____    ______ ____
ROOT
ATOM      1  C   UNL     1      -1.835   4.805   0.048  0.00  0.00    +0.044 C 
ATOM      2  C   UNL     1      -0.728   3.782   0.031  0.00  0.00    -0.050 A 
ATOM      3  C   UNL     1       0.594   4.191   0.019  0.00  0.00    +0.005 A 
ATOM      4  C   UNL     1       1.611   3.260   0.004  0.00  0.00    +0.024 A 
ATOM      5  C   UNL     1       1.315   1.898  -0.000  0.00  0.00    +0.036 A 
ATOM      6  C   UNL     1      -0.018   1.499   0.010  0.00  0.00    -0.027 A 
ATOM      7  C   UNL     1      -1.031   2.432   0.030  0.00  0.00    +0.008 A 
ATOM      8  C   UNL     1       0.002  -0.004   0.002  0.00  0.00    +0.053 C 
ATOM      9  C   UNL     1      -0.706  -0.580   1.234  0.00  0.00    +0.089 C 
ATOM     10  C   UNL     1      -1.386  -1.869   0.724  0.00  0.00    +0.074 C 
ATOM     11  C   UNL     1      -1.059  -1.944  -0.779  0.00  0.00    -0.054 C 
ATOM     12  C   UNL     1      -2.005   0.140  -1.339  0.00  0.00    -0.076 C 
ATOM     13  C   UNL     1      -2.941  -0.912  -1.966  0.00  0.00    -0.020 C 
ATOM     14  C   UNL     1      -2.330  -2.274  -1.583  0.00  0.00    -0.016 C 
ATOM     15  C   UNL     1      -0.668  -2.985   1.450  0.00  0.00    +0.228 C 
ATOM     16  O   UNL     1      -0.916  -4.166   1.339  0.00  0.00    -0.275 OA
ATOM     17  N   UNL     1       0.283  -2.464   2.233  0.00  0.00    -0.209 N 
ATOM     18  C   UNL     1       0.370  -1.130   2.191  0.00  0.00    +0.229 C 
ATOM     19  O   UNL     1       1.159  -0.459   2.821  0.00  0.00    -0.275 OA
ATOM     20  C   UNL     1       1.461  -0.374  -0.013  0.00  0.00    +0.212 C 
ATOM     21  O   UNL     1       1.924  -1.495  -0.023  0.00  0.00    -0.277 OA
ATOM     22  N   UNL     1       2.153   0.782  -0.013  0.00  0.00    -0.286 N 
ATOM     23  H   UNL     1       3.122   0.832  -0.021  0.00  0.00    +0.155 HD
ATOM     24  N   UNL     1      -0.737  -0.580  -1.131  0.00  0.00    +0.395 N 
ATOM     25  H   UNL     1      -0.166  -0.546  -1.984  0.00  0.00    -0.079 HD
ENDROOT
BRANCH  17  26
ATOM     26  C   UNL     1       1.120  -3.253   3.035  0.00  0.00    +0.056 A 
ATOM     27  C   UNL     1       2.322  -3.730   2.527  0.00  0.00    +0.024 A 
ATOM     28  C   UNL     1       3.146  -4.503   3.320  0.00  0.00    +0.002 A 
ATOM     29  C   UNL     1       2.772  -4.811   4.616  0.00  0.00    +0.001 A 
ATOM     30  C   UNL     1       1.574  -4.342   5.122  0.00  0.00    +0.014 A 
ATOM     31  C   UNL     1       0.747  -3.564   4.335  0.00  0.00    +0.077 A 
BRANCH  31  32
ATOM     32  C   UNL     1      -0.558  -3.053   4.888  0.00  0.00    +0.419 C 
ATOM     33  F   UNL     1      -0.711  -3.495   6.207  0.00  0.00    -0.166 F 
ATOM     34  F   UNL     1      -0.560  -1.655   4.862  0.00  0.00    -0.166 F 
ATOM     35  F   UNL     1      -1.615  -3.536   4.109  0.00  0.00    -0.166 F 
ENDBRANCH  31  32
ENDBRANCH  17  26
TORSDOF 2
