REMARK  Name = ZINC64182062
REMARK  5 active torsions:
REMARK  status: ('A' for Active; 'I' for Inactive)
REMARK    1  A    between atoms: C_8  and  C_13
REMARK    2  A    between atoms: C_13  and  C_14
REMARK    3  A    between atoms: C_14  and  C_15
REMARK    4  A    between atoms: N_17  and  N_18
REMARK    5  A    between atoms: C_19  and  C_21
REMARK                            x       y       z     vdW  Elec       q    Type
REMARK                         _______ _______ _______ _____ _____    ______ ____
ROOT
ATOM      1  C   UNL     1       3.734  -6.261  -1.301  0.00  0.00    +0.229 C 
ATOM      2  O   UNL     1       3.040  -6.814  -0.474  0.00  0.00    -0.274 OA
ATOM      3  N   UNL     1       4.586  -6.981  -2.057  0.00  0.00    -0.234 N 
ATOM      4  H   UNL     1       5.141  -6.539  -2.718  0.00  0.00    +0.173 HD
ENDROOT
BRANCH   3   5
ATOM      5  N   UNL     1       4.671  -8.370  -1.887  0.00  0.00    -0.231 N 
ATOM      6  C   UNL     1       5.523  -9.090  -2.643  0.00  0.00    +0.258 C 
ATOM      7  O   UNL     1       6.219  -8.535  -3.472  0.00  0.00    -0.269 OA
ATOM      8  H   UNL     1       4.116  -8.812  -1.226  0.00  0.00    +0.173 HD
BRANCH   6   9
ATOM      9  C   UNL     1       5.612 -10.543  -2.465  0.00  0.00    +0.044 C 
ATOM     10  C   UNL     1       6.429 -11.417  -3.148  0.00  0.00    +0.008 A 
ATOM     11  C   UNL     1       7.391 -11.234  -4.175  0.00  0.00    +0.010 A 
ATOM     12  C   UNL     1       8.063 -12.294  -4.673  0.00  0.00    +0.001 A 
ATOM     13  C   UNL     1       7.852 -13.604  -4.213  0.00  0.00    +0.002 A 
ATOM     14  C   UNL     1       6.960 -13.886  -3.240  0.00  0.00    +0.026 A 
ATOM     15  C   UNL     1       6.184 -12.789  -2.641  0.00  0.00    +0.043 A 
ATOM     16  N   UNL     1       5.276 -12.774  -1.706  0.00  0.00    -0.380 N 
ATOM     17  C   UNL     1       4.829 -11.394  -1.490  0.00  0.00    +0.154 C 
ATOM     18  H   UNL     1       4.950 -13.552  -1.226  0.00  0.00    +0.160 HD
ENDBRANCH   6   9
ENDBRANCH   3   5
BRANCH   1  19
ATOM     19  C   UNL     1       3.643  -4.768  -1.484  0.00  0.00    +0.098 C 
BRANCH  19  20
ATOM     20  C   UNL     1       2.609  -4.197  -0.511  0.00  0.00    +0.022 C 
BRANCH  20  28
ATOM     21  C   UNL     1       1.759   1.318  -3.177  0.00  0.00    +0.000 A 
ATOM     22  C   UNL     1       1.267   1.942  -2.044  0.00  0.00    +0.002 A 
ATOM     23  C   UNL     1       1.067   1.216  -0.887  0.00  0.00    +0.023 A 
ATOM     24  C   UNL     1       1.365  -0.140  -0.857  0.00  0.00    +0.037 A 
ATOM     25  C   UNL     1       1.842  -0.766  -2.001  0.00  0.00    -0.025 A 
ATOM     26  C   UNL     1       2.045  -0.034  -3.155  0.00  0.00    +0.005 A 
ATOM     27  C   UNL     1       2.119  -2.247  -1.991  0.00  0.00    +0.049 C 
ATOM     28  C   UNL     1       2.607  -2.670  -0.605  0.00  0.00    +0.080 C 
ATOM     29  C   UNL     1       1.695  -2.105   0.451  0.00  0.00    +0.221 C 
ATOM     30  O   UNL     1       1.431  -2.766   1.433  0.00  0.00    -0.275 OA
ATOM     31  N   UNL     1       1.170  -0.875   0.315  0.00  0.00    -0.285 N 
ATOM     32  H   UNL     1       0.650  -0.493   1.039  0.00  0.00    +0.155 HD
ENDBRANCH  20  28
ENDBRANCH  19  20
ENDBRANCH   1  19
TORSDOF 5
