REMARK  Name = ZINC08433261
REMARK  15 active torsions:
REMARK  status: ('A' for Active; 'I' for Inactive)
REMARK    1  A    between atoms: C_1  and  C_2
REMARK    2  A    between atoms: C_4  and  O_30
REMARK    3  A    between atoms: C_7  and  C_8
REMARK    4  A    between atoms: C_8  and  C_10
REMARK    5  A    between atoms: C_11  and  O_29
REMARK    6  A    between atoms: N_14  and  C_25
REMARK    7  A    between atoms: C_15  and  C_17
REMARK    8  A    between atoms: C_20  and  O_23
REMARK    9  A    between atoms: O_23  and  C_24
REMARK   10  A    between atoms: C_25  and  C_26
REMARK   11  A    between atoms: C_26  and  N_63
REMARK   12  A    between atoms: C_27  and  N_63
REMARK   13  A    between atoms: C_28  and  N_63
REMARK   14  A    between atoms: O_30  and  C_31
REMARK   15  A    between atoms: C_31  and  C_32
REMARK                            x       y       z     vdW  Elec       q    Type
REMARK                         _______ _______ _______ _____ _____    ______ ____
ROOT
ATOM      1  C   UNL     1       3.938   2.614  -1.422  0.00  0.00    +0.071 C 
ATOM      2  C   UNL     1       4.138   3.952  -1.357  0.00  0.00    +0.188 C 
ATOM      3  C   UNL     1       3.702   4.445  -0.034  0.00  0.00    +0.282 C 
ATOM      4  O   UNL     1       3.755   5.603   0.331  0.00  0.00    -0.267 OA
ATOM      5  N   UNL     1       3.239   3.422   0.708  0.00  0.00    -0.285 N 
ATOM      6  C   UNL     1       3.347   2.198  -0.095  0.00  0.00    +0.144 C 
ENDROOT
BRANCH   6   7
ATOM      7  C   UNL     1       1.982   1.593  -0.302  0.00  0.00    -0.022 A 
ATOM      8  C   UNL     1       0.922   2.395  -0.681  0.00  0.00    +0.009 A 
ATOM      9  C   UNL     1      -0.330   1.842  -0.873  0.00  0.00    +0.046 A 
ATOM     10  C   UNL     1      -0.522   0.481  -0.684  0.00  0.00    +0.120 A 
ATOM     11  C   UNL     1       0.544  -0.321  -0.304  0.00  0.00    +0.046 A 
ATOM     12  C   UNL     1       1.794   0.236  -0.113  0.00  0.00    +0.009 A 
BRANCH  10  13
ATOM     13  O   UNL     1      -1.752  -0.065  -0.872  0.00  0.00    -0.495 OA
ATOM     14  C   UNL     1      -1.876  -1.473  -0.660  0.00  0.00    +0.277 C 
ENDBRANCH  10  13
ENDBRANCH   6   7
BRANCH   1  15
ATOM     15  C   UNL     1       4.237   1.737  -2.559  0.00  0.00    +0.195 C 
ATOM     16  O   UNL     1       4.635   2.213  -3.606  0.00  0.00    -0.287 OA
BRANCH  15  23
ATOM     17  C   UNL     1       6.097   0.201  -0.963  0.00  0.00    +0.044 C 
ATOM     18  C   UNL     1       4.948  -0.476  -1.664  0.00  0.00    -0.036 A 
ATOM     19  C   UNL     1       4.775  -1.837  -1.550  0.00  0.00    +0.049 A 
ATOM     20  C   UNL     1       3.715  -2.462  -2.197  0.00  0.00    +0.121 A 
ATOM     21  C   UNL     1       2.825  -1.716  -2.962  0.00  0.00    +0.046 A 
ATOM     22  C   UNL     1       2.988  -0.354  -3.078  0.00  0.00    +0.015 A 
ATOM     23  C   UNL     1       4.056   0.278  -2.433  0.00  0.00    +0.025 A 
BRANCH  20  24
ATOM     24  O   UNL     1       3.548  -3.804  -2.081  0.00  0.00    -0.488 OA
BRANCH  24  25
ATOM     25  C   UNL     1       2.438  -4.381  -2.772  0.00  0.00    +0.256 C 
BRANCH  25  26
ATOM     26  C   UNL     1       2.414  -5.868  -2.528  0.00  0.00    +0.006 C 
ATOM     27  C   UNL     1       1.286  -6.466  -2.233  0.00  0.00    +0.007 C 
ENDBRANCH  25  26
ENDBRANCH  24  25
ENDBRANCH  20  24
ENDBRANCH  15  23
ENDBRANCH   1  15
BRANCH   2  28
ATOM     28  O   UNL     1       4.655   4.716  -2.347  0.00  0.00    -0.502 OA
ATOM     29  H   UNL     1       4.697   5.668  -2.046  0.00  0.00    +0.292 HD
ENDBRANCH   2  28
BRANCH   5  30
ATOM     30  C   UNL     1       2.719   3.514   2.074  0.00  0.00    +0.090 C 
BRANCH  30  31
ATOM     31  C   UNL     1       3.865   3.323   3.070  0.00  0.00    -0.060 C 
BRANCH  31  34
ATOM     32  C   UNL     1       4.360   3.004   5.418  0.00  0.00    -0.097 C 
ATOM     33  C   UNL     1       2.855   4.770   4.727  0.00  0.00    -0.097 C 
ATOM     34  N   UNL     1       3.322   3.397   4.442  0.00  0.00    +0.377 N 
ATOM     35  H   UNL     1       2.528   2.751   4.522  0.00  0.00    -0.083 HD
ENDBRANCH  31  34
ENDBRANCH  30  31
ENDBRANCH   5  30
TORSDOF 11
