REMARK  Name = ZINC27550635
REMARK  12 active torsions:
REMARK  status: ('A' for Active; 'I' for Inactive)
REMARK    1  A    between atoms: C_1  and  C_2
REMARK    2  A    between atoms: C_2  and  C_3
REMARK    3  A    between atoms: C_5  and  C_11
REMARK    4  A    between atoms: C_6  and  S_8
REMARK    5  A    between atoms: S_8  and  C_9
REMARK    6  A    between atoms: C_9  and  C_10
REMARK    7  A    between atoms: C_13  and  C_35
REMARK    8  A    between atoms: C_14  and  N_34
REMARK    9  A    between atoms: N_15  and  C_25
REMARK   10  A    between atoms: C_21  and  C_23
REMARK   11  A    between atoms: C_21  and  C_24
REMARK   12  A    between atoms: C_30  and  N_31
REMARK                            x       y       z     vdW  Elec       q    Type
REMARK                         _______ _______ _______ _____ _____    ______ ____
ROOT
ATOM      1  C   UNL     1      -0.406  -4.209  -0.759  0.00  0.00    +0.099 C 
ATOM      2  C   UNL     1      -1.308  -4.806   0.281  0.00  0.00    +0.077 C 
ATOM      3  C   UNL     1      -2.270  -4.062   0.886  0.00  0.00    +0.107 C 
ATOM      4  N   UNL     1      -2.426  -2.735   0.556  0.00  0.00    -0.258 N 
ATOM      5  C   UNL     1      -1.411  -2.046  -0.055  0.00  0.00    +0.025 C 
ATOM      6  C   UNL     1      -0.418  -2.703  -0.690  0.00  0.00    +0.025 C 
ATOM      7  C   UNL     1       0.637  -2.005  -1.304  0.00  0.00    +0.162 C 
ATOM      8  O   UNL     1       1.510  -2.626  -1.877  0.00  0.00    -0.292 OA
ATOM      9  C   UNL     1       0.710  -0.502  -1.262  0.00  0.00    +0.086 C 
ATOM     10  C   UNL     1       0.002  -0.004   0.002  0.00  0.00    -0.023 C 
ATOM     11  C   UNL     1      -1.432  -0.538   0.003  0.00  0.00    +0.058 C 
ATOM     12  C   UNL     1      -0.019   1.526   0.010  0.00  0.00    +0.011 C 
ATOM     13  C   UNL     1       0.741  -0.515   1.240  0.00  0.00    +0.011 C 
ENDROOT
BRANCH   4  14
ATOM     14  C   UNL     1      -3.630  -2.084   0.847  0.00  0.00    +0.070 A 
ATOM     15  C   UNL     1      -4.661  -2.079  -0.085  0.00  0.00    +0.026 A 
ATOM     16  C   UNL     1      -5.848  -1.436   0.205  0.00  0.00    +0.002 A 
ATOM     17  C   UNL     1      -6.012  -0.798   1.421  0.00  0.00    +0.002 A 
ATOM     18  C   UNL     1      -4.988  -0.801   2.350  0.00  0.00    +0.034 A 
ATOM     19  C   UNL     1      -3.800  -1.447   2.069  0.00  0.00    +0.148 A 
BRANCH  19  20
ATOM     20  N   UNL     1      -2.706  -1.455   3.066  0.00  0.00    +0.058 N 
ATOM     21  O   UNL     1      -2.856  -0.896   4.138  0.00  0.00    -0.126 OA
ATOM     22  O   UNL     1      -1.657  -2.020   2.815  0.00  0.00    -0.126 OA
ENDBRANCH  19  20
ENDBRANCH   4  14
BRANCH   1  25
ATOM     23  C   UNL     1      -2.525  -4.739  -3.803  0.00  0.00    -0.009 A 
ATOM     24  C   UNL     1      -2.143  -4.337  -2.568  0.00  0.00    +0.017 A 
ATOM     25  C   UNL     1      -0.869  -4.645  -2.125  0.00  0.00    -0.014 A 
ATOM     26  C   UNL     1      -0.043  -5.356  -2.944  0.00  0.00    +0.049 A 
ATOM     27  S   UNL     1      -1.071  -5.596  -4.384  0.00  0.00    -0.087 S 
BRANCH  23  29
ATOM     28  C   UNL     1      -3.788  -3.222  -5.304  0.00  0.00    +0.009 C 
ATOM     29  C   UNL     1      -3.842  -4.525  -4.504  0.00  0.00    +0.039 C 
ENDBRANCH  23  29
BRANCH  26  30
ATOM     30  S   UNL     1       1.609  -5.896  -2.656  0.00  0.00    -0.118 S 
BRANCH  30  31
ATOM     31  C   UNL     1       2.055  -6.774  -4.180  0.00  0.00    +0.071 C 
ATOM     32  C   UNL     1       3.486  -7.303  -4.064  0.00  0.00    +0.015 C 
ENDBRANCH  30  31
ENDBRANCH  26  30
ENDBRANCH   1  25
BRANCH   3  33
ATOM     33  N   UNL     1      -3.089  -4.635   1.829  0.00  0.00    -0.345 N 
ATOM     34  H   UNL     1      -3.868  -4.033   2.320  0.00  0.00    +0.144 HD
ATOM     35  H   UNL     1      -2.965  -5.696   2.093  0.00  0.00    +0.144 HD
ENDBRANCH   3  33
BRANCH   2  36
ATOM     36  C   UNL     1      -1.153  -6.184   0.640  0.00  0.00    +0.099 C 
ATOM     37  N   UNL     1      -1.030  -7.276   0.926  0.00  0.00    -0.191 NA
ENDBRANCH   2  36
TORSDOF 8
