REMARK  Name = ZINC02332145
REMARK  9 active torsions:
REMARK  status: ('A' for Active; 'I' for Inactive)
REMARK    1  A    between atoms: C_1  and  C_2
REMARK    2  A    between atoms: N_8  and  C_9
REMARK    3  A    between atoms: C_9  and  C_10
REMARK    4  A    between atoms: C_10  and  C_11
REMARK    5  A    between atoms: C_14  and  O_18
REMARK    6  A    between atoms: C_15  and  O_17
REMARK    7  A    between atoms: C_19  and  C_27
REMARK    8  A    between atoms: C_21  and  C_25
REMARK    9  A    between atoms: C_22  and  N_24
REMARK                            x       y       z     vdW  Elec       q    Type
REMARK                         _______ _______ _______ _____ _____    ______ ____
ROOT
ATOM      1  C   UNL     1      -5.404   2.623  -1.601  0.00  0.00    +0.064 C 
ATOM      2  C   UNL     1      -5.458   4.124  -1.474  0.00  0.00    +0.022 A 
ATOM      3  C   UNL     1      -6.630   4.767  -1.659  0.00  0.00    +0.068 A 
ATOM      4  C   UNL     1      -6.684   6.172  -1.547  0.00  0.00    +0.141 A 
ATOM      5  C   UNL     1      -5.531   6.862  -1.242  0.00  0.00    +0.072 A 
ATOM      6  C   UNL     1      -4.338   6.152  -1.052  0.00  0.00    +0.259 A 
ATOM      7  O   UNL     1      -3.309   6.750  -0.781  0.00  0.00    -0.267 OA
ATOM      8  N   UNL     1      -4.326   4.811  -1.168  0.00  0.00    -0.312 N 
ATOM      9  C   UNL     1      -5.543   8.360  -1.111  0.00  0.00    +0.103 C 
ATOM     10  C   UNL     1      -6.790   8.924  -1.735  0.00  0.00    +0.098 C 
ATOM     11  C   UNL     1      -7.856   8.135  -2.009  0.00  0.00    +0.199 C 
ATOM     12  O   UNL     1      -7.854   6.818  -1.739  0.00  0.00    -0.441 OA
ENDROOT
BRANCH   9  13
ATOM     13  C   UNL     1      -5.502   8.735   0.348  0.00  0.00    -0.034 A 
ATOM     14  C   UNL     1      -6.511   8.320   1.197  0.00  0.00    +0.007 A 
ATOM     15  C   UNL     1      -6.471   8.658   2.536  0.00  0.00    +0.038 A 
ATOM     16  C   UNL     1      -5.426   9.422   3.026  0.00  0.00    +0.123 A 
ATOM     17  C   UNL     1      -4.418   9.842   2.174  0.00  0.00    +0.038 A 
ATOM     18  C   UNL     1      -4.457   9.498   0.836  0.00  0.00    +0.007 A 
ATOM     19  F   UNL     1      -5.389   9.758   4.334  0.00  0.00    -0.205 F 
ENDBRANCH   9  13
BRANCH  11  20
ATOM     20  N   UNL     1      -8.971   8.697  -2.578  0.00  0.00    -0.328 N 
ATOM     21  H   UNL     1      -8.988   9.646  -2.778  0.00  0.00    +0.145 HD
ATOM     22  H   UNL     1      -9.743   8.146  -2.780  0.00  0.00    +0.145 HD
ENDBRANCH  11  20
BRANCH  10  23
ATOM     23  C   UNL     1      -6.851  10.320  -2.045  0.00  0.00    +0.101 C 
ATOM     24  N   UNL     1      -6.899  11.428  -2.291  0.00  0.00    -0.191 NA
ENDBRANCH  10  23
BRANCH   8  25
ATOM     25  C   UNL     1      -3.071   4.082  -0.968  0.00  0.00    +0.130 C 
BRANCH  25  26
ATOM     26  C   UNL     1      -2.316   3.991  -2.296  0.00  0.00    +0.057 C 
BRANCH  26  27
ATOM     27  C   UNL     1      -1.026   3.241  -2.090  0.00  0.00    -0.042 A 
ATOM     28  C   UNL     1       0.123   3.927  -1.742  0.00  0.00    +0.007 A 
ATOM     29  C   UNL     1       1.311   3.244  -1.558  0.00  0.00    +0.049 A 
ATOM     30  C   UNL     1       1.349   1.867  -1.711  0.00  0.00    +0.158 A 
ATOM     31  C   UNL     1       0.191   1.176  -2.055  0.00  0.00    +0.158 A 
ATOM     32  C   UNL     1      -0.995   1.867  -2.243  0.00  0.00    +0.052 A 
BRANCH  31  33
ATOM     33  O   UNL     1       0.224  -0.176  -2.206  0.00  0.00    -0.503 OA
ATOM     34  H   UNL     1       0.039  -0.667  -1.394  0.00  0.00    +0.292 HD
ENDBRANCH  31  33
BRANCH  30  35
ATOM     35  O   UNL     1       2.515   1.192  -1.524  0.00  0.00    -0.503 OA
ATOM     36  H   UNL     1       2.658   0.897  -0.615  0.00  0.00    +0.292 HD
ENDBRANCH  30  35
ENDBRANCH  26  27
ENDBRANCH  25  26
ENDBRANCH   8  25
TORSDOF 8
