REMARK  Name = ZINC34802297
REMARK  5 active torsions:
REMARK  status: ('A' for Active; 'I' for Inactive)
REMARK    1  A    between atoms: C_1  and  N_2
REMARK    2  A    between atoms: N_2  and  C_3
REMARK    3  A    between atoms: C_12  and  N_15
REMARK    4  A    between atoms: C_21  and  C_23
REMARK    5  A    between atoms: C_26  and  C_29
REMARK                            x       y       z     vdW  Elec       q    Type
REMARK                         _______ _______ _______ _____ _____    ______ ____
ROOT
ATOM      1  N   UNL     1       3.107  -7.048  -4.570  0.00  0.00    -0.194 N 
ATOM      2  C   UNL     1       3.738  -7.083  -5.763  0.00  0.00    +0.286 A 
ATOM      3  O   UNL     1       3.815  -6.075  -6.447  0.00  0.00    -0.265 OA
ATOM      4  C   UNL     1       4.301  -8.278  -6.209  0.00  0.00    +0.088 A 
ATOM      5  C   UNL     1       4.228  -9.458  -5.441  0.00  0.00    +0.015 A 
ATOM      6  C   UNL     1       4.834 -10.586  -6.006  0.00  0.00    +0.026 A 
ATOM      7  C   UNL     1       5.441 -10.494  -7.222  0.00  0.00    +0.021 A 
ATOM      8  S   UNL     1       5.192  -8.781  -7.657  0.00  0.00    -0.083 S 
ATOM      9  C   UNL     1       3.522  -9.336  -4.148  0.00  0.00    +0.142 A 
ATOM     10  N   UNL     1       3.022  -8.197  -3.780  0.00  0.00    -0.171 NA
ENDROOT
BRANCH   1  19
ATOM     11  C   UNL     1       0.932  -0.247  -1.514  0.00  0.00    -0.053 C 
ATOM     12  C   UNL     1      -0.317  -0.283  -2.433  0.00  0.00    +0.005 C 
ATOM     13  C   UNL     1      -0.030  -1.486  -3.358  0.00  0.00    +0.105 C 
ATOM     14  N   UNL     1       0.936  -2.349  -2.664  0.00  0.00    -0.317 N 
ATOM     15  C   UNL     1       1.243  -1.756  -1.349  0.00  0.00    +0.091 C 
ATOM     16  C   UNL     1       1.473  -3.531  -3.165  0.00  0.00    +0.121 A 
ATOM     17  C   UNL     1       1.181  -3.921  -4.469  0.00  0.00    +0.046 A 
ATOM     18  C   UNL     1       1.720  -5.096  -4.957  0.00  0.00    +0.033 A 
ATOM     19  C   UNL     1       2.540  -5.850  -4.117  0.00  0.00    +0.087 A 
ATOM     20  C   UNL     1       2.787  -5.399  -2.829  0.00  0.00    +0.140 A 
ATOM     21  N   UNL     1       2.260  -4.269  -2.398  0.00  0.00    -0.238 NA
BRANCH  11  23
ATOM     22  C   UNL     1       0.369   1.805  -0.407  0.00  0.00    -0.100 C 
ATOM     23  N   UNL     1       0.615   0.369  -0.219  0.00  0.00    +0.380 N 
ATOM     24  H   UNL     1       1.390   0.241   0.414  0.00  0.00    -0.086 HD
ATOM     25  H   UNL     1      -0.210  -0.065   0.168  0.00  0.00    -0.086 HD
ENDBRANCH  11  23
ENDBRANCH   1  19
BRANCH   7  26
ATOM     26  C   UNL     1       6.133 -11.551  -7.991  0.00  0.00    -0.011 A 
ATOM     27  C   UNL     1       6.219 -12.847  -7.480  0.00  0.00    +0.009 A 
ATOM     28  C   UNL     1       6.865 -13.829  -8.202  0.00  0.00    +0.013 A 
ATOM     29  C   UNL     1       7.428 -13.531  -9.431  0.00  0.00    +0.055 A 
ATOM     30  C   UNL     1       7.346 -12.248  -9.943  0.00  0.00    +0.013 A 
ATOM     31  C   UNL     1       6.697 -11.259  -9.233  0.00  0.00    +0.009 A 
BRANCH  29  32
ATOM     32  C   UNL     1       8.133 -14.608 -10.214  0.00  0.00    +0.417 C 
ATOM     33  F   UNL     1       7.217 -15.252 -11.051  0.00  0.00    -0.166 F 
ATOM     34  F   UNL     1       9.148 -14.033 -10.987  0.00  0.00    -0.166 F 
ATOM     35  F   UNL     1       8.691 -15.538  -9.330  0.00  0.00    -0.166 F 
ENDBRANCH  29  32
ENDBRANCH   7  26
TORSDOF 4
