REMARK  Name = ZINC63737653
REMARK  7 active torsions:
REMARK  status: ('A' for Active; 'I' for Inactive)
REMARK    1  A    between atoms: C_1  and  C_2
REMARK    2  A    between atoms: C_2  and  C_3
REMARK    3  A    between atoms: N_5  and  C_6
REMARK    4  A    between atoms: C_9  and  S_12
REMARK    5  A    between atoms: S_12  and  N_15
REMARK    6  A    between atoms: N_15  and  C_16
REMARK    7  A    between atoms: C_20  and  C_22
REMARK                            x       y       z     vdW  Elec       q    Type
REMARK                         _______ _______ _______ _____ _____    ______ ____
ROOT
ATOM      1  N   UNL     1       5.551  -4.129  -5.926  0.00  0.00    -0.216 N 
ATOM      2  H   UNL     1       6.148  -3.513  -6.379  0.00  0.00    +0.174 HD
ENDROOT
BRANCH   1   3
ATOM      3  C   UNL     1       6.070  -5.083  -5.047  0.00  0.00    +0.048 A 
ATOM      4  C   UNL     1       5.464  -5.296  -3.815  0.00  0.00    +0.024 A 
ATOM      5  C   UNL     1       5.978  -6.239  -2.948  0.00  0.00    +0.002 A 
ATOM      6  C   UNL     1       7.096  -6.972  -3.305  0.00  0.00    +0.006 A 
ATOM      7  C   UNL     1       7.702  -6.762  -4.530  0.00  0.00    -0.020 A 
ATOM      8  C   UNL     1       7.189  -5.824  -5.404  0.00  0.00    +0.030 A 
BRANCH   7   9
ATOM      9  C   UNL     1       8.920  -7.562  -4.914  0.00  0.00    +0.133 C 
ATOM     10  C   UNL     1       8.515  -8.953  -5.348  0.00  0.00    +0.012 C 
ATOM     11  C   UNL     1       9.120  -9.804  -4.489  0.00  0.00    -0.001 A 
ATOM     12  C   UNL     1       9.125 -11.268  -4.379  0.00  0.00    +0.048 A 
ATOM     13  C   UNL     1       9.844 -11.850  -3.390  0.00  0.00    +0.124 A 
ATOM     14  C   UNL     1      10.584 -11.088  -2.470  0.00  0.00    +0.040 A 
ATOM     15  C   UNL     1      10.627  -9.740  -2.509  0.00  0.00    +0.029 A 
ATOM     16  C   UNL     1       9.908  -9.025  -3.507  0.00  0.00    +0.043 A 
ATOM     17  N   UNL     1       9.795  -7.741  -3.750  0.00  0.00    -0.374 N 
ATOM     18  F   UNL     1       9.850 -13.196  -3.285  0.00  0.00    -0.205 F 
ATOM     19  H   UNL     1      10.219  -7.029  -3.245  0.00  0.00    +0.161 HD
ENDBRANCH   7   9
ENDBRANCH   1   3
BRANCH   1  20
ATOM     20  S   UNL     1       3.919  -4.052  -6.195  0.00  0.00    +0.072 S 
ATOM     21  O   UNL     1       3.717  -3.044  -7.176  0.00  0.00    -0.150 OA
ATOM     22  O   UNL     1       3.299  -4.007  -4.918  0.00  0.00    -0.150 OA
BRANCH  20  26
ATOM     23  C   UNL     1       2.688  -7.974  -8.095  0.00  0.00    +0.033 A 
ATOM     24  C   UNL     1       2.573  -7.799  -6.723  0.00  0.00    +0.025 A 
ATOM     25  C   UNL     1       2.949  -6.602  -6.146  0.00  0.00    +0.030 A 
ATOM     26  C   UNL     1       3.440  -5.577  -6.934  0.00  0.00    +0.109 A 
ATOM     27  C   UNL     1       3.555  -5.748  -8.302  0.00  0.00    +0.030 A 
ATOM     28  C   UNL     1       3.186  -6.945  -8.884  0.00  0.00    +0.025 A 
BRANCH  23  31
ATOM     29  C   UNL     1       2.995  -9.670  -9.735  0.00  0.00    +0.217 C 
ATOM     30  O   UNL     1       3.891  -9.016 -10.227  0.00  0.00    -0.275 OA
ATOM     31  N   UNL     1       2.307  -9.185  -8.682  0.00  0.00    -0.286 N 
ATOM     32  H   UNL     1       1.547  -9.677  -8.332  0.00  0.00    +0.155 HD
BRANCH  29  34
ATOM     33  C   UNL     1       3.577 -11.333 -11.480  0.00  0.00    +0.013 C 
ATOM     34  C   UNL     1       2.652 -11.024 -10.301  0.00  0.00    +0.093 C 
ENDBRANCH  29  34
ENDBRANCH  23  31
ENDBRANCH  20  26
ENDBRANCH   1  20
TORSDOF 6
