REMARK  Name = ZINC43516088
REMARK  5 active torsions:
REMARK  status: ('A' for Active; 'I' for Inactive)
REMARK    1  A    between atoms: C_1  and  C_2
REMARK    2  A    between atoms: C_2  and  C_4
REMARK    3  A    between atoms: C_2  and  N_8
REMARK    4  A    between atoms: N_5  and  O_6
REMARK    5  A    between atoms: N_11  and  C_14
REMARK                            x       y       z     vdW  Elec       q    Type
REMARK                         _______ _______ _______ _____ _____    ______ ____
ROOT
ATOM      1  N   UNL     1      -1.376  -0.512   0.012  0.00  0.00    -0.290 NA
ATOM      2  C   UNL     1      -2.127   0.024   1.155  0.00  0.00    +0.104 C 
ATOM      3  C   UNL     1      -3.599  -0.381   1.031  0.00  0.00    +0.120 C 
ATOM      4  N   UNL     1      -3.670  -1.842   0.871  0.00  0.00    -0.325 N 
ATOM      5  C   UNL     1      -2.838  -2.469  -0.167  0.00  0.00    +0.120 C 
ATOM      6  C   UNL     1      -1.395  -1.981   0.005  0.00  0.00    +0.104 C 
ENDROOT
BRANCH   4   7
ATOM      7  C   UNL     1      -4.506  -2.613   1.685  0.00  0.00    +0.065 A 
ATOM      8  C   UNL     1      -5.812  -2.872   1.293  0.00  0.00    +0.026 A 
ATOM      9  C   UNL     1      -6.636  -3.635   2.098  0.00  0.00    +0.002 A 
ATOM     10  C   UNL     1      -6.161  -4.141   3.294  0.00  0.00    +0.003 A 
ATOM     11  C   UNL     1      -4.861  -3.885   3.689  0.00  0.00    +0.040 A 
ATOM     12  C   UNL     1      -4.029  -3.128   2.885  0.00  0.00    +0.144 A 
ATOM     13  F   UNL     1      -2.757  -2.883   3.269  0.00  0.00    -0.204 F 
ENDBRANCH   4   7
BRANCH   1  15
ATOM     14  C   UNL     1      -0.019   1.526   0.010  0.00  0.00    +0.032 C 
ATOM     15  C   UNL     1       0.002  -0.004   0.002  0.00  0.00    +0.120 C 
BRANCH  15  16
ATOM     16  C   UNL     1       0.707  -0.490  -1.238  0.00  0.00    +0.149 C 
ATOM     17  N   UNL     1       1.995  -0.596  -1.249  0.00  0.00    -0.075 NA
ATOM     18  N   UNL     1      -0.021  -0.821  -2.359  0.00  0.00    -0.343 N 
ATOM     19  H   UNL     1      -0.987  -0.742  -2.351  0.00  0.00    +0.144 HD
ATOM     20  H   UNL     1       0.434  -1.134  -3.157  0.00  0.00    +0.144 HD
BRANCH  17  21
ATOM     21  O   UNL     1       2.658  -1.053  -2.414  0.00  0.00    -0.408 OA
ATOM     22  H   UNL     1       3.620  -1.099  -2.327  0.00  0.00    +0.328 HD
ENDBRANCH  17  21
ENDBRANCH  15  16
ENDBRANCH   1  15
TORSDOF 4
