REMARK  Name = ZINC12833178
REMARK  9 active torsions:
REMARK  status: ('A' for Active; 'I' for Inactive)
REMARK    1  A    between atoms: C_1  and  C_2
REMARK    2  A    between atoms: C_6  and  C_15
REMARK    3  A    between atoms: C_13  and  C_14
REMARK    4  A    between atoms: C_15  and  N_69
REMARK    5  A    between atoms: C_16  and  C_17
REMARK    6  A    between atoms: C_16  and  N_69
REMARK    7  A    between atoms: C_26  and  C_27
REMARK    8  A    between atoms: C_26  and  N_69
REMARK    9  A    between atoms: N_31  and  C_32
REMARK                            x       y       z     vdW  Elec       q    Type
REMARK                         _______ _______ _______ _____ _____    ______ ____
ROOT
ATOM      1  N   UNL     1       6.603  -1.555   1.654  0.00  0.00    +0.390 N 
ATOM      2  H   UNL     1       6.452  -0.906   0.873  0.00  0.00    -0.080 HD
ENDROOT
BRANCH   1   3
ATOM      3  C   UNL     1       6.499  -2.942   1.153  0.00  0.00    -0.036 C 
BRANCH   3   9
ATOM      4  C   UNL     1      12.704  -4.753  -2.567  0.00  0.00    +0.044 C 
ATOM      5  C   UNL     1      11.294  -4.220  -2.543  0.00  0.00    -0.047 A 
ATOM      6  C   UNL     1      10.622  -4.138  -1.356  0.00  0.00    +0.013 A 
ATOM      7  C   UNL     1       9.313  -3.645  -1.333  0.00  0.00    -0.001 A 
ATOM      8  C   UNL     1       8.566  -3.539  -0.079  0.00  0.00    +0.017 A 
ATOM      9  C   UNL     1       7.298  -3.058  -0.119  0.00  0.00    +0.001 A 
ATOM     10  C   UNL     1       6.727  -2.662  -1.347  0.00  0.00    +0.251 A 
ATOM     11  O   UNL     1       5.588  -2.228  -1.360  0.00  0.00    -0.268 OA
ATOM     12  N   UNL     1       7.408  -2.750  -2.504  0.00  0.00    -0.322 N 
ATOM     13  H   UNL     1       6.985  -2.468  -3.330  0.00  0.00    +0.169 HD
ATOM     14  C   UNL     1       8.698  -3.236  -2.532  0.00  0.00    +0.049 A 
ATOM     15  C   UNL     1       9.402  -3.328  -3.727  0.00  0.00    +0.030 A 
ATOM     16  C   UNL     1      10.690  -3.818  -3.726  0.00  0.00    -0.046 A 
ATOM     17  C   UNL     1      11.452  -3.917  -5.023  0.00  0.00    +0.044 C 
ENDBRANCH   3   9
ENDBRANCH   1   3
BRANCH   1  18
ATOM     18  C   UNL     1       5.573  -1.313   2.686  0.00  0.00    -0.042 C 
BRANCH  18  19
ATOM     19  C   UNL     1       4.229  -1.206   2.013  0.00  0.00    -0.060 A 
ATOM     20  C   UNL     1       3.400  -2.311   1.950  0.00  0.00    +0.005 A 
ATOM     21  C   UNL     1       2.166  -2.218   1.333  0.00  0.00    +0.050 A 
ATOM     22  C   UNL     1       1.757  -1.016   0.777  0.00  0.00    +0.166 A 
ATOM     23  C   UNL     1       2.592   0.097   0.842  0.00  0.00    +0.166 A 
ATOM     24  C   UNL     1       3.827  -0.004   1.462  0.00  0.00    +0.051 A 
ATOM     25  O   UNL     1       1.969   1.145   0.230  0.00  0.00    -0.453 OA
ATOM     26  C   UNL     1       0.580   0.775   0.151  0.00  0.00    +0.466 C 
ATOM     27  O   UNL     1       0.611  -0.664   0.125  0.00  0.00    -0.453 OA
ENDBRANCH  18  19
ENDBRANCH   1  18
BRANCH   1  28
ATOM     28  C   UNL     1       7.949  -1.322   2.218  0.00  0.00    +0.001 C 
BRANCH  28  29
ATOM     29  C   UNL     1       8.153   0.162   2.386  0.00  0.00    +0.135 A 
ATOM     30  N   UNL     1       8.578   1.001   1.473  0.00  0.00    -0.115 NA
ATOM     31  N   UNL     1       8.616   2.176   2.000  0.00  0.00    -0.023 NA
ATOM     32  N   UNL     1       8.233   2.107   3.227  0.00  0.00    -0.044 NA
ATOM     33  N   UNL     1       7.939   0.882   3.503  0.00  0.00    -0.228 N 
BRANCH  33  34
ATOM     34  C   UNL     1       7.463   0.369   4.790  0.00  0.00    +0.111 C 
ATOM     35  C   UNL     1       6.249   1.183   5.245  0.00  0.00    +0.027 C 
ATOM     36  C   UNL     1       5.752   0.648   6.589  0.00  0.00    +0.002 C 
ATOM     37  C   UNL     1       6.866   0.769   7.630  0.00  0.00    +0.000 C 
ATOM     38  C   UNL     1       8.080  -0.044   7.176  0.00  0.00    +0.002 C 
ATOM     39  C   UNL     1       8.577   0.491   5.831  0.00  0.00    +0.027 C 
ENDBRANCH  33  34
ENDBRANCH  28  29
ENDBRANCH   1  28
TORSDOF 7
