REMARK  Name = ZINC32624532
REMARK  4 active torsions:
REMARK  status: ('A' for Active; 'I' for Inactive)
REMARK    1  A    between atoms: C_6  and  C_7
REMARK    2  A    between atoms: C_7  and  C_9
REMARK    3  A    between atoms: C_7  and  N_25
REMARK    4  A    between atoms: C_9  and  N_10
REMARK                            x       y       z     vdW  Elec       q    Type
REMARK                         _______ _______ _______ _____ _____    ______ ____
ROOT
ATOM      1  C   UNL     1      -1.333  -0.366  -0.059  0.00  0.00    +0.115 C 
ENDROOT
BRANCH   1   2
ATOM      2  N   UNL     1      -0.046   0.320  -0.195  0.00  0.00    -0.300 N 
ATOM      3  C   UNL     1       1.115  -0.389  -0.171  0.00  0.00    +0.202 A 
ATOM      4  N   UNL     1       2.281   0.159  -0.286  0.00  0.00    -0.235 NA
ATOM      5  C   UNL     1       2.434   1.516  -0.443  0.00  0.00    +0.107 A 
ATOM      6  C   UNL     1       3.641   2.234  -0.579  0.00  0.00    +0.081 A 
ATOM      7  C   UNL     1       3.540   3.599  -0.721  0.00  0.00    +0.070 A 
ATOM      8  S   UNL     1       1.810   3.941  -0.679  0.00  0.00    -0.073 S 
ATOM      9  C   UNL     1       1.245   2.270  -0.470  0.00  0.00    +0.105 A 
ATOM     10  C   UNL     1      -0.000   1.665  -0.346  0.00  0.00    +0.268 A 
ATOM     11  O   UNL     1      -1.025   2.328  -0.376  0.00  0.00    -0.266 OA
ATOM     12  S   UNL     1       4.902   4.688  -0.897  0.00  0.00    -0.107 S 
ATOM     13  C   UNL     1       6.229   3.735  -0.088  0.00  0.00    +0.171 C 
ATOM     14  C   UNL     1       6.071   2.282  -0.433  0.00  0.00    +0.227 C 
ATOM     15  O   UNL     1       7.092   1.645  -0.594  0.00  0.00    -0.275 OA
ATOM     16  N   UNL     1       4.925   1.622  -0.580  0.00  0.00    -0.282 N 
ATOM     17  H   UNL     1       5.016   0.533  -0.708  0.00  0.00    +0.155 HD
ENDBRANCH   1   2
BRANCH   1  18
ATOM     18  C   UNL     1      -1.769  -0.908  -1.422  0.00  0.00    -0.017 C 
BRANCH  18  24
ATOM     19  C   UNL     1      -4.235  -0.629  -1.102  0.00  0.00    +0.003 A 
ATOM     20  C   UNL     1      -5.514  -1.147  -1.010  0.00  0.00    +0.020 A 
ATOM     21  C   UNL     1      -5.718  -2.510  -1.121  0.00  0.00    +0.041 A 
ATOM     22  C   UNL     1      -4.642  -3.355  -1.330  0.00  0.00    +0.020 A 
ATOM     23  C   UNL     1      -3.365  -2.836  -1.428  0.00  0.00    +0.003 A 
ATOM     24  C   UNL     1      -3.162  -1.474  -1.316  0.00  0.00    -0.059 A 
ATOM     25 CL   UNL     1      -7.322  -3.161  -0.997  0.00  0.00    -0.084 Cl
ENDBRANCH  18  24
BRANCH  18  26
ATOM     26  N   UNL     1      -1.755   0.179  -2.409  0.00  0.00    +0.385 N 
ATOM     27  C   UNL     1      -2.760  -0.047  -3.456  0.00  0.00    -0.078 C 
ATOM     28  C   UNL     1      -2.818   1.170  -4.381  0.00  0.00    -0.019 C 
ATOM     29  C   UNL     1      -1.440   1.393  -5.011  0.00  0.00    -0.004 C 
ATOM     30  C   UNL     1      -0.404   1.578  -3.899  0.00  0.00    -0.019 C 
ATOM     31  C   UNL     1      -0.416   0.349  -2.987  0.00  0.00    -0.078 C 
ATOM     32  H   UNL     1      -2.017   1.113  -1.890  0.00  0.00    -0.081 HD
ENDBRANCH  18  26
ENDBRANCH   1  18
TORSDOF 4
