REMARK  Name = ZINC15000384
REMARK  7 active torsions:
REMARK  status: ('A' for Active; 'I' for Inactive)
REMARK    1  A    between atoms: C_4  and  O_33
REMARK    2  A    between atoms: C_5  and  C_7
REMARK    3  A    between atoms: C_7  and  N_8
REMARK    4  A    between atoms: N_11  and  C_14
REMARK    5  A    between atoms: N_22  and  C_25
REMARK    6  A    between atoms: C_25  and  C_26
REMARK    7  A    between atoms: C_26  and  O_32
REMARK                            x       y       z     vdW  Elec       q    Type
REMARK                         _______ _______ _______ _____ _____    ______ ____
ROOT
ATOM      1  C   UNL     1       0.637  -5.011   4.617  0.00  0.00    +0.043 A 
ATOM      2  C   UNL     1      -0.513  -5.737   4.295  0.00  0.00    +0.024 A 
ATOM      3  C   UNL     1      -1.057  -6.618   5.203  0.00  0.00    +0.003 A 
ATOM      4  C   UNL     1      -0.474  -6.800   6.450  0.00  0.00    +0.014 A 
ATOM      5  C   UNL     1       0.665  -6.091   6.789  0.00  0.00    +0.051 A 
ATOM      6  C   UNL     1       1.234  -5.189   5.863  0.00  0.00    +0.070 A 
ATOM      7  C   UNL     1       2.418  -4.620   6.529  0.00  0.00    +0.256 C 
ATOM      8  O   UNL     1       3.172  -3.796   6.050  0.00  0.00    -0.269 OA
ATOM      9  N   UNL     1       2.526  -5.164   7.754  0.00  0.00    -0.231 N 
ATOM     10  C   UNL     1       1.527  -6.034   7.988  0.00  0.00    +0.254 C 
ATOM     11  O   UNL     1       1.367  -6.674   9.008  0.00  0.00    -0.270 OA
ENDROOT
BRANCH   1  15
ATOM     12  N   UNL     1       1.488  -2.681   1.337  0.00  0.00    -0.295 NA
ATOM     13  C   UNL     1       0.380  -2.344   2.241  0.00  0.00    +0.103 C 
ATOM     14  C   UNL     1       0.767  -2.713   3.677  0.00  0.00    +0.120 C 
ATOM     15  N   UNL     1       1.182  -4.123   3.701  0.00  0.00    -0.327 N 
ATOM     16  C   UNL     1       2.192  -4.568   2.729  0.00  0.00    +0.120 C 
ATOM     17  C   UNL     1       1.749  -4.126   1.330  0.00  0.00    +0.103 C 
BRANCH  12  18
ATOM     18  C   UNL     1       1.227  -2.187  -0.022  0.00  0.00    +0.123 C 
BRANCH  18  23
ATOM     19  C   UNL     1      -0.017   1.378   0.010  0.00  0.00    +0.001 A 
ATOM     20  C   UNL     1       1.170   2.088   0.002  0.00  0.00    +0.004 A 
ATOM     21  C   UNL     1       2.377   1.417  -0.013  0.00  0.00    +0.046 A 
ATOM     22  C   UNL     1       2.399   0.030  -0.021  0.00  0.00    +0.121 A 
ATOM     23  C   UNL     1       1.207  -0.680  -0.013  0.00  0.00    +0.008 A 
ATOM     24  C   UNL     1       0.002  -0.004   0.002  0.00  0.00    +0.008 A 
BRANCH  22  25
ATOM     25  O   UNL     1       3.586  -0.632  -0.037  0.00  0.00    -0.506 OA
ATOM     26  H   UNL     1       3.938  -0.829   0.842  0.00  0.00    +0.292 HD
ENDBRANCH  22  25
ENDBRANCH  18  23
ENDBRANCH  12  18
ENDBRANCH   1  15
BRANCH   9  27
ATOM     27  C   UNL     1       3.586  -4.841   8.713  0.00  0.00    +0.151 C 
BRANCH  27  28
ATOM     28  C   UNL     1       3.140  -3.668   9.589  0.00  0.00    +0.082 C 
ATOM     29  C   UNL     1       2.743  -2.489   8.699  0.00  0.00    +0.036 C 
ATOM     30  C   UNL     1       2.297  -1.316   9.575  0.00  0.00    +0.003 C 
ATOM     31  C   UNL     1       3.449  -0.898  10.492  0.00  0.00    +0.000 C 
ATOM     32  C   UNL     1       3.846  -2.077  11.382  0.00  0.00    +0.003 C 
ATOM     33  C   UNL     1       4.292  -3.250  10.506  0.00  0.00    +0.036 C 
BRANCH  28  34
ATOM     34  O   UNL     1       2.020  -4.065  10.383  0.00  0.00    -0.387 OA
ATOM     35  H   UNL     1       1.251  -4.343   9.866  0.00  0.00    +0.210 HD
ENDBRANCH  28  34
ENDBRANCH  27  28
ENDBRANCH   9  27
TORSDOF 7
