REMARK  Name = ZINC47032700
REMARK  7 active torsions:
REMARK  status: ('A' for Active; 'I' for Inactive)
REMARK    1  A    between atoms: C_1  and  N_2
REMARK    2  A    between atoms: N_2  and  C_3
REMARK    3  A    between atoms: C_3  and  C_4
REMARK    4  A    between atoms: N_16  and  C_17
REMARK    5  A    between atoms: C_17  and  C_18
REMARK    6  A    between atoms: C_22  and  S_24
REMARK    7  A    between atoms: S_24  and  N_27
REMARK                            x       y       z     vdW  Elec       q    Type
REMARK                         _______ _______ _______ _____ _____    ______ ____
ROOT
ATOM      1  C   UNL     1      -0.018   1.461   0.010  0.00  0.00    +0.134 C 
ATOM      2  N   UNL     1       0.002  -0.004   0.002  0.00  0.00    -0.284 N 
ATOM      3  C   UNL     1       0.000  -0.672  -1.169  0.00  0.00    +0.303 C 
ATOM      4  O   UNL     1       0.017  -1.887  -1.175  0.00  0.00    -0.253 OA
ATOM      5  N   UNL     1      -0.020   0.009  -2.332  0.00  0.00    -0.295 N 
ATOM      6  H   UNL     1      -0.033   0.978  -2.327  0.00  0.00    +0.151 HD
ENDROOT
BRANCH   2   7
ATOM      7  C   UNL     1       0.024  -0.743   1.267  0.00  0.00    +0.144 C 
BRANCH   7   8
ATOM      8  C   UNL     1      -1.389  -1.016   1.714  0.00  0.00    -0.026 A 
ATOM      9  C   UNL     1      -2.046  -0.104   2.518  0.00  0.00    +0.009 A 
ATOM     10  C   UNL     1      -3.342  -0.351   2.932  0.00  0.00    +0.050 A 
ATOM     11  C   UNL     1      -3.986  -1.516   2.539  0.00  0.00    +0.162 A 
ATOM     12  C   UNL     1      -3.326  -2.431   1.728  0.00  0.00    +0.162 A 
ATOM     13  C   UNL     1      -2.027  -2.175   1.314  0.00  0.00    +0.054 A 
ATOM     14  O   UNL     1      -3.942  -3.576   1.326  0.00  0.00    -0.485 OA
ATOM     15  C   UNL     1      -5.107  -3.972   2.058  0.00  0.00    +0.270 C 
ATOM     16  C   UNL     1      -6.003  -2.739   2.240  0.00  0.00    +0.270 C 
ATOM     17  O   UNL     1      -5.260  -1.747   2.958  0.00  0.00    -0.485 OA
ENDBRANCH   7   8
ENDBRANCH   2   7
BRANCH   5  18
ATOM     18  C   UNL     1      -0.022  -0.717  -3.605  0.00  0.00    +0.141 C 
BRANCH  18  19
ATOM     19  C   UNL     1      -0.047   0.268  -4.745  0.00  0.00    -0.028 A 
ATOM     20  C   UNL     1      -1.255   0.708  -5.253  0.00  0.00    +0.005 A 
ATOM     21  C   UNL     1      -1.277   1.612  -6.298  0.00  0.00    +0.002 A 
ATOM     22  C   UNL     1      -0.091   2.076  -6.836  0.00  0.00    +0.028 A 
ATOM     23  C   UNL     1       1.117   1.637  -6.328  0.00  0.00    +0.105 A 
ATOM     24  C   UNL     1       1.139   0.736  -5.279  0.00  0.00    +0.033 A 
BRANCH  23  25
ATOM     25  S   UNL     1       2.628   2.228  -7.013  0.00  0.00    +0.056 S 
ATOM     26  O   UNL     1       3.617   1.250  -6.723  0.00  0.00    -0.153 OA
ATOM     27  O   UNL     1       2.337   2.646  -8.340  0.00  0.00    -0.153 OA
BRANCH  25  28
ATOM     28  N   UNL     1       3.049   3.590  -6.170  0.00  0.00    -0.204 NA
ATOM     29  H   UNL     1       3.984   3.824  -6.061  0.00  0.00    +0.144 HD
ATOM     30  H   UNL     1       2.360   4.154  -5.785  0.00  0.00    +0.144 HD
ENDBRANCH  25  28
ENDBRANCH  23  25
ENDBRANCH  18  19
ENDBRANCH   5  18
TORSDOF 6
