REMARK  Name = ZINC62203393
REMARK  2 active torsions:
REMARK  status: ('A' for Active; 'I' for Inactive)
REMARK    1  A    between atoms: C_12  and  N_18
REMARK    2  A    between atoms: C_13  and  C_16
REMARK                            x       y       z     vdW  Elec       q    Type
REMARK                         _______ _______ _______ _____ _____    ______ ____
ROOT
ATOM      1  C   UNL     1      -0.017   1.367   0.010  0.00  0.00    +0.023 A 
ATOM      2  C   UNL     1       1.157   2.108   0.002  0.00  0.00    +0.022 A 
ATOM      3  C   UNL     1       2.373   1.450  -0.013  0.00  0.00    +0.057 A 
ATOM      4  C   UNL     1       2.402   0.077  -0.021  0.00  0.00    +0.061 A 
ATOM      5  C   UNL     1       1.229  -0.711  -0.013  0.00  0.00    +0.100 A 
ATOM      6  C   UNL     1       0.002  -0.004   0.002  0.00  0.00    +0.068 A 
ATOM      7 CL   UNL     1      -1.495  -0.883   0.012  0.00  0.00    -0.081 Cl
ATOM      8  N   UNL     1       1.421  -2.047  -0.023  0.00  0.00    -0.220 NA
ATOM      9  C   UNL     1       2.616  -2.588  -0.037  0.00  0.00    +0.197 A 
ATOM     10  S   UNL     1       3.683  -1.154  -0.039  0.00  0.00    -0.046 S 
ATOM     11  N   UNL     1       2.964  -3.934  -0.047  0.00  0.00    -0.193 N 
ATOM     12  C   UNL     1       4.230  -4.429  -0.056  0.00  0.00    +0.140 A 
ATOM     13  C   UNL     1       4.124  -5.817  -0.063  0.00  0.00    +0.111 A 
ATOM     14  C   UNL     1       2.743  -6.127  -0.058  0.00  0.00    +0.155 A 
ATOM     15  N   UNL     1       2.071  -5.011  -0.043  0.00  0.00    -0.170 NA
ATOM     16 CL   UNL     1       3.855   2.355  -0.023  0.00  0.00    -0.082 Cl
ENDROOT
BRANCH  12  17
ATOM     17  N   UNL     1       5.399  -3.695  -0.059  0.00  0.00    -0.342 N 
ATOM     18  H   UNL     1       5.363  -2.725  -0.053  0.00  0.00    +0.144 HD
ATOM     19  H   UNL     1       6.257  -4.148  -0.066  0.00  0.00    +0.144 HD
ENDBRANCH  12  17
BRANCH  13  20
ATOM     20  C   UNL     1       5.207  -6.753  -0.074  0.00  0.00    +0.104 C 
ATOM     21  N   UNL     1       6.066  -7.497  -0.083  0.00  0.00    -0.191 NA
ENDBRANCH  13  20
TORSDOF 2
