REMARK  Name = ZINC00806400
REMARK  12 active torsions:
REMARK  status: ('A' for Active; 'I' for Inactive)
REMARK    1  A    between atoms: C_1  and  C_2
REMARK    2  A    between atoms: C_2  and  C_3
REMARK    3  A    between atoms: C_2  and  O_4
REMARK    4  A    between atoms: O_4  and  C_5
REMARK    5  A    between atoms: C_8  and  C_11
REMARK    6  A    between atoms: C_14  and  C_25
REMARK    7  A    between atoms: C_20  and  N_24
REMARK    8  A    between atoms: C_21  and  C_22
REMARK    9  A    between atoms: C_27  and  O_33
REMARK   10  A    between atoms: C_30  and  O_31
REMARK   11  A    between atoms: O_31  and  C_32
REMARK   12  A    between atoms: O_33  and  C_34
REMARK                            x       y       z     vdW  Elec       q    Type
REMARK                         _______ _______ _______ _____ _____    ______ ____
ROOT
ATOM      1  C   UNL     1      -2.266  -5.349  -2.063  0.00  0.00    +0.102 C 
ATOM      2  C   UNL     1      -3.067  -5.417  -3.338  0.00  0.00    +0.054 A 
ATOM      3  C   UNL     1      -2.695  -5.058  -4.637  0.00  0.00    +0.104 A 
ATOM      4  N   UNL     1      -3.722  -5.289  -5.432  0.00  0.00    -0.170 NA
ATOM      5  N   UNL     1      -4.774  -5.802  -4.657  0.00  0.00    -0.246 N 
ATOM      6  H   UNL     1      -5.650  -6.060  -4.984  0.00  0.00    +0.192 HD
ATOM      7  C   UNL     1      -4.353  -5.873  -3.377  0.00  0.00    +0.223 A 
ATOM      8  O   UNL     1      -5.011  -6.304  -2.273  0.00  0.00    -0.423 OA
ATOM      9  C   UNL     1      -4.283  -6.535  -1.161  0.00  0.00    +0.200 C 
ATOM     10  C   UNL     1      -3.005  -6.123  -1.000  0.00  0.00    +0.098 C 
ENDROOT
BRANCH   1  14
ATOM     11  C   UNL     1      -1.837  -1.275  -0.846  0.00  0.00    +0.121 A 
ATOM     12  C   UNL     1      -0.712  -2.058  -1.061  0.00  0.00    +0.046 A 
ATOM     13  C   UNL     1      -0.854  -3.375  -1.454  0.00  0.00    +0.008 A 
ATOM     14  C   UNL     1      -2.115  -3.912  -1.634  0.00  0.00    -0.034 A 
ATOM     15  C   UNL     1      -3.237  -3.134  -1.420  0.00  0.00    +0.008 A 
ATOM     16  C   UNL     1      -3.101  -1.818  -1.021  0.00  0.00    +0.046 A 
BRANCH  11  17
ATOM     17  O   UNL     1      -1.700   0.021  -0.458  0.00  0.00    -0.489 OA
BRANCH  17  19
ATOM     18  C   UNL     1      -2.574   1.874   0.823  0.00  0.00    +0.051 C 
ATOM     19  C   UNL     1      -2.898   0.733  -0.144  0.00  0.00    +0.167 C 
ATOM     20  C   UNL     1      -3.501   1.309  -1.427  0.00  0.00    +0.051 C 
ENDBRANCH  17  19
ENDBRANCH  11  17
ENDBRANCH   1  14
BRANCH   3  21
ATOM     21  C   UNL     1      -1.378  -4.512  -5.048  0.00  0.00    +0.048 A 
ATOM     22  C   UNL     1      -0.203  -5.119  -4.610  0.00  0.00    +0.059 A 
ATOM     23  C   UNL     1       1.024  -4.606  -4.997  0.00  0.00    +0.121 A 
ATOM     24  C   UNL     1       1.084  -3.489  -5.820  0.00  0.00    +0.049 A 
ATOM     25  C   UNL     1      -0.079  -2.884  -6.258  0.00  0.00    +0.050 A 
ATOM     26  C   UNL     1      -1.312  -3.392  -5.881  0.00  0.00    +0.130 A 
BRANCH  26  27
ATOM     27  O   UNL     1      -2.454  -2.800  -6.317  0.00  0.00    -0.494 OA
ATOM     28  C   UNL     1      -2.311  -1.659  -7.166  0.00  0.00    +0.277 C 
ENDBRANCH  26  27
BRANCH  23  29
ATOM     29  O   UNL     1       2.172  -5.196  -4.570  0.00  0.00    -0.495 OA
ATOM     30  C   UNL     1       3.402  -4.615  -5.007  0.00  0.00    +0.277 C 
ENDBRANCH  23  29
ENDBRANCH   3  21
BRANCH   9  31
ATOM     31  N   UNL     1      -4.872  -7.229  -0.134  0.00  0.00    -0.328 N 
ATOM     32  H   UNL     1      -5.788  -7.538  -0.221  0.00  0.00    +0.145 HD
ATOM     33  H   UNL     1      -4.374  -7.410   0.678  0.00  0.00    +0.145 HD
ENDBRANCH   9  31
BRANCH  10  34
ATOM     34  C   UNL     1      -2.329  -6.431   0.224  0.00  0.00    +0.101 C 
ATOM     35  N   UNL     1      -1.792  -6.675   1.195  0.00  0.00    -0.191 NA
ENDBRANCH  10  34
TORSDOF 8
