REMARK  Name = ZINC06198123
REMARK  13 active torsions:
REMARK  status: ('A' for Active; 'I' for Inactive)
REMARK    1  A    between atoms: C_1  and  C_2
REMARK    2  A    between atoms: C_2  and  C_3
REMARK    3  A    between atoms: C_10  and  C_15
REMARK    4  A    between atoms: C_15  and  C_17
REMARK    5  A    between atoms: C_15  and  N_73
REMARK    6  A    between atoms: N_21  and  C_22
REMARK    7  A    between atoms: C_22  and  C_23
REMARK    8  A    between atoms: C_22  and  C_24
REMARK    9  A    between atoms: C_22  and  C_25
REMARK   10  A    between atoms: C_26  and  C_27
REMARK   11  A    between atoms: C_26  and  N_73
REMARK   12  A    between atoms: C_34  and  C_35
REMARK   13  A    between atoms: C_34  and  N_73
REMARK                            x       y       z     vdW  Elec       q    Type
REMARK                         _______ _______ _______ _____ _____    ______ ____
ROOT
ATOM      1  C   UNL     1       0.111   1.486  -0.504  0.00  0.00    +0.039 C 
ENDROOT
BRANCH   1   9
ATOM      2  C   UNL     1      -2.088   1.286  -6.284  0.00  0.00    -0.047 A 
ATOM      3  C   UNL     1      -2.349   2.644  -6.399  0.00  0.00    +0.005 A 
ATOM      4  C   UNL     1      -2.081   3.502  -5.354  0.00  0.00    +0.026 A 
ATOM      5  C   UNL     1      -1.545   3.004  -4.171  0.00  0.00    +0.049 A 
ATOM      6  C   UNL     1      -1.283   1.625  -4.058  0.00  0.00    -0.001 A 
ATOM      7  C   UNL     1      -1.563   0.773  -5.132  0.00  0.00    +0.013 A 
ATOM      8  C   UNL     1      -0.715   1.111  -2.811  0.00  0.00    +0.017 A 
ATOM      9  C   UNL     1      -0.470   1.984  -1.802  0.00  0.00    +0.011 A 
ATOM     10  C   UNL     1      -0.751   3.357  -1.967  0.00  0.00    +0.251 A 
ATOM     11  O   UNL     1      -0.518   4.125  -1.049  0.00  0.00    -0.268 OA
ATOM     12  N   UNL     1      -1.268   3.839  -3.110  0.00  0.00    -0.322 N 
ATOM     13  H   UNL     1      -1.456   4.818  -3.192  0.00  0.00    +0.169 HD
BRANCH   2  15
ATOM     14  C   UNL     1      -1.160   0.268  -8.346  0.00  0.00    +0.009 C 
ATOM     15  C   UNL     1      -2.389   0.367  -7.440  0.00  0.00    +0.032 C 
ENDBRANCH   2  15
ENDBRANCH   1   9
BRANCH   1  16
ATOM     16  C   UNL     1      -0.888   1.692   0.605  0.00  0.00    +0.143 A 
ATOM     17  N   UNL     1      -1.169   2.823   1.206  0.00  0.00    -0.115 NA
ATOM     18  N   UNL     1      -2.074   2.588   2.092  0.00  0.00    -0.023 NA
ATOM     19  N   UNL     1      -2.372   1.336   2.079  0.00  0.00    -0.043 NA
ATOM     20  N   UNL     1      -1.662   0.750   1.175  0.00  0.00    -0.225 N 
BRANCH  20  21
ATOM     21  C   UNL     1      -1.692  -0.675   0.834  0.00  0.00    +0.059 C 
ATOM     22  C   UNL     1      -0.334  -1.304   1.151  0.00  0.00    +0.036 C 
ATOM     23  C   UNL     1      -2.780  -1.372   1.652  0.00  0.00    +0.036 C 
ATOM     24  C   UNL     1      -1.993  -0.836  -0.658  0.00  0.00    +0.036 C 
ENDBRANCH  20  21
ENDBRANCH   1  16
BRANCH   1  25
ATOM     25  N   UNL     1       1.333   2.258  -0.194  0.00  0.00    +0.394 N 
ATOM     26  H   UNL     1       1.069   3.225   0.031  0.00  0.00    -0.080 HD
BRANCH  25  27
ATOM     27  C   UNL     1       2.023   1.666   0.972  0.00  0.00    -0.041 C 
BRANCH  27  28
ATOM     28  C   UNL     1       1.343   2.145   2.228  0.00  0.00    -0.064 A 
ATOM     29  C   UNL     1       1.499   3.455   2.642  0.00  0.00    +0.003 A 
ATOM     30  C   UNL     1       0.871   3.897   3.791  0.00  0.00    +0.020 A 
ATOM     31  C   UNL     1       0.097   3.024   4.535  0.00  0.00    +0.041 A 
ATOM     32  C   UNL     1      -0.054   1.712   4.124  0.00  0.00    +0.020 A 
ATOM     33  C   UNL     1       0.569   1.273   2.971  0.00  0.00    +0.003 A 
ATOM     34 CL   UNL     1      -0.686   3.576   5.983  0.00  0.00    -0.084 Cl
ENDBRANCH  27  28
ENDBRANCH  25  27
BRANCH  25  35
ATOM     35  C   UNL     1       2.236   2.267  -1.364  0.00  0.00    -0.045 C 
BRANCH  35  36
ATOM     36  C   UNL     1       3.263   3.386  -1.183  0.00  0.00    +0.102 C 
ATOM     37  C   UNL     1       4.106   3.556  -2.466  0.00  0.00    +0.032 C 
ATOM     38  C   UNL     1       5.524   3.878  -1.945  0.00  0.00    +0.030 C 
ATOM     39  C   UNL     1       5.370   3.865  -0.407  0.00  0.00    +0.160 C 
ATOM     40  O   UNL     1       4.216   3.033  -0.157  0.00  0.00    -0.378 OA
ENDBRANCH  35  36
ENDBRANCH  25  35
ENDBRANCH   1  25
TORSDOF 9
