REMARK  Name = ZINC14992747
REMARK  10 active torsions:
REMARK  status: ('A' for Active; 'I' for Inactive)
REMARK    1  A    between atoms: C_1  and  O_2
REMARK    2  A    between atoms: O_2  and  C_3
REMARK    3  A    between atoms: C_6  and  C_11
REMARK    4  A    between atoms: C_8  and  O_9
REMARK    5  A    between atoms: O_9  and  C_10
REMARK    6  A    between atoms: C_11  and  C_12
REMARK    7  A    between atoms: C_12  and  N_13
REMARK    8  A    between atoms: N_13  and  C_14
REMARK    9  A    between atoms: N_25  and  C_28
REMARK   10  A    between atoms: C_28  and  C_29
REMARK                            x       y       z     vdW  Elec       q    Type
REMARK                         _______ _______ _______ _____ _____    ______ ____
ROOT
ATOM      1  C   UNL     1       0.760   3.263   7.519  0.00  0.00    -0.067 C 
ATOM      2  C   UNL     1       1.708   3.655   6.382  0.00  0.00    -0.011 C 
ATOM      3  C   UNL     1       1.379   2.844   5.128  0.00  0.00    +0.035 C 
ATOM      4  C   UNL     1      -0.109   2.989   4.824  0.00  0.00    -0.023 A 
ATOM      5  C   UNL     1      -0.969   3.413   5.774  0.00  0.00    -0.006 A 
ATOM      6  S   UNL     1      -2.555   3.429   4.984  0.00  0.00    -0.073 S 
ATOM      7  C   UNL     1      -2.057   2.865   3.376  0.00  0.00    +0.116 A 
ATOM      8  C   UNL     1      -0.672   2.684   3.509  0.00  0.00    +0.076 A 
ATOM      9  C   UNL     1       0.009   2.221   2.335  0.00  0.00    +0.262 A 
ATOM     10  O   UNL     1       1.213   2.034   2.350  0.00  0.00    -0.267 OA
ATOM     11  N   UNL     1      -0.704   1.998   1.216  0.00  0.00    -0.298 N 
ATOM     12  C   UNL     1      -2.046   2.207   1.179  0.00  0.00    +0.203 A 
ATOM     13  N   UNL     1      -2.694   2.622   2.234  0.00  0.00    -0.230 NA
ATOM     14  C   UNL     1      -0.646   3.786   7.189  0.00  0.00    +0.027 C 
ENDROOT
BRANCH   1  15
ATOM     15  N   UNL     1       1.225   3.862   8.777  0.00  0.00    +0.381 N 
ATOM     16  H   UNL     1       0.851   4.895   8.836  0.00  0.00    -0.086 HD
ATOM     17  H   UNL     1       2.325   3.870   8.778  0.00  0.00    -0.086 HD
BRANCH  15  18
ATOM     18  C   UNL     1       0.740   3.099   9.934  0.00  0.00    -0.078 C 
BRANCH  18  19
ATOM     19  C   UNL     1       1.244   3.751  11.223  0.00  0.00    +0.016 C 
BRANCH  19  23
ATOM     20  C   UNL     1      -0.174   1.532  14.593  0.00  0.00    +0.161 A 
ATOM     21  C   UNL     1      -0.926   2.578  14.082  0.00  0.00    +0.049 A 
ATOM     22  C   UNL     1      -0.462   3.297  12.996  0.00  0.00    +0.007 A 
ATOM     23  C   UNL     1       0.746   2.968  12.411  0.00  0.00    -0.045 A 
ATOM     24  C   UNL     1       1.502   1.926  12.916  0.00  0.00    +0.053 A 
ATOM     25  C   UNL     1       1.045   1.205  14.007  0.00  0.00    +0.162 A 
BRANCH  20  27
ATOM     26  C   UNL     1      -1.885   1.220  16.215  0.00  0.00    +0.277 C 
ATOM     27  O   UNL     1      -0.625   0.828  15.665  0.00  0.00    -0.491 OA
ENDBRANCH  20  27
BRANCH  25  28
ATOM     28  O   UNL     1       1.787   0.180  14.505  0.00  0.00    -0.491 OA
ATOM     29  C   UNL     1       3.028  -0.100  13.853  0.00  0.00    +0.277 C 
ENDBRANCH  25  28
ENDBRANCH  19  23
ENDBRANCH  18  19
ENDBRANCH  15  18
ENDBRANCH   1  15
BRANCH  11  30
ATOM     30  C   UNL     1      -0.019   1.526   0.010  0.00  0.00    +0.129 C 
BRANCH  30  31
ATOM     31  C   UNL     1       0.002  -0.004   0.002  0.00  0.00    +0.009 C 
ATOM     32  C   UNL     1       0.848  -0.509   1.173  0.00  0.00    +0.005 C 
ATOM     33  C   UNL     1       0.868  -2.039   1.165  0.00  0.00    +0.000 C 
ATOM     34  C   UNL     1       1.472  -2.534  -0.151  0.00  0.00    +0.000 C 
ATOM     35  C   UNL     1       0.627  -2.029  -1.322  0.00  0.00    +0.000 C 
ATOM     36  C   UNL     1       0.606  -0.499  -1.314  0.00  0.00    +0.005 C 
ENDBRANCH  30  31
ENDBRANCH  11  30
TORSDOF 8
