REMARK  Name = ZINC13126548
REMARK  7 active torsions:
REMARK  status: ('A' for Active; 'I' for Inactive)
REMARK    1  A    between atoms: C_1  and  C_2
REMARK    2  A    between atoms: C_2  and  C_4
REMARK    3  A    between atoms: C_2  and  S_17
REMARK    4  A    between atoms: S_17  and  C_18
REMARK    5  A    between atoms: C_21  and  C_30
REMARK    6  A    between atoms: N_22  and  C_23
REMARK    7  A    between atoms: C_23  and  C_24
REMARK                            x       y       z     vdW  Elec       q    Type
REMARK                         _______ _______ _______ _____ _____    ______ ____
ROOT
ATOM      1  C   UNL     1      -3.624   1.344   2.277  0.00  0.00    +0.193 A 
ATOM      2  N   UNL     1      -3.809   0.582   3.330  0.00  0.00    -0.122 NA
ATOM      3  N   UNL     1      -3.107  -0.490   3.229  0.00  0.00    -0.128 NA
ATOM      4  C   UNL     1      -2.434  -0.479   2.103  0.00  0.00    +0.168 A 
ATOM      5  N   UNL     1      -2.740   0.698   1.460  0.00  0.00    -0.298 N 
ENDROOT
BRANCH   4   6
ATOM      6  C   UNL     1      -1.517  -1.533   1.617  0.00  0.00    +0.054 A 
ATOM      7  C   UNL     1      -1.625  -2.008   0.309  0.00  0.00    +0.014 A 
ATOM      8  C   UNL     1      -0.767  -2.991  -0.138  0.00  0.00    +0.001 A 
ATOM      9  C   UNL     1       0.201  -3.506   0.707  0.00  0.00    +0.003 A 
ATOM     10  C   UNL     1       0.316  -3.041   2.004  0.00  0.00    +0.039 A 
ATOM     11  C   UNL     1      -0.534  -2.053   2.464  0.00  0.00    +0.134 A 
ATOM     12  F   UNL     1      -0.419  -1.595   3.729  0.00  0.00    -0.205 F 
ENDBRANCH   4   6
BRANCH   1  13
ATOM     13  S   UNL     1      -4.375   2.909   1.974  0.00  0.00    -0.073 S 
BRANCH  13  15
ATOM     14  C   UNL     1      -4.467   3.169   4.691  0.00  0.00    +0.029 C 
ATOM     15  C   UNL     1      -5.381   3.070   3.469  0.00  0.00    +0.137 C 
BRANCH  15  16
ATOM     16  C   UNL     1      -6.229   4.312   3.373  0.00  0.00    +0.233 C 
ATOM     17  O   UNL     1      -5.922   5.198   2.603  0.00  0.00    -0.274 OA
ATOM     18  N   UNL     1      -7.328   4.440   4.143  0.00  0.00    -0.260 N 
ATOM     19  C   UNL     1      -7.725   3.378   5.080  0.00  0.00    +0.209 C 
ATOM     20  C   UNL     1      -9.216   3.193   5.016  0.00  0.00    +0.235 C 
ATOM     21  O   UNL     1      -9.695   2.106   5.260  0.00  0.00    -0.274 OA
ATOM     22  N   UNL     1     -10.025   4.218   4.687  0.00  0.00    -0.283 N 
ATOM     23  C   UNL     1      -9.495   5.469   4.352  0.00  0.00    +0.055 A 
ATOM     24  C   UNL     1      -8.133   5.587   4.072  0.00  0.00    +0.058 A 
ATOM     25  C   UNL     1      -7.597   6.816   3.733  0.00  0.00    +0.025 A 
ATOM     26  C   UNL     1      -8.416   7.930   3.676  0.00  0.00    +0.002 A 
ATOM     27  C   UNL     1      -9.765   7.816   3.956  0.00  0.00    +0.002 A 
ATOM     28  C   UNL     1     -10.308   6.590   4.294  0.00  0.00    +0.025 A 
ATOM     29  H   UNL     1     -10.986   4.087   4.682  0.00  0.00    +0.155 HD
ENDBRANCH  15  16
ENDBRANCH  13  15
ENDBRANCH   1  13
BRANCH   5  30
ATOM     30  C   UNL     1      -2.229   1.159   0.167  0.00  0.00    +0.161 C 
BRANCH  30  31
ATOM     31  C   UNL     1      -0.997   1.999   0.384  0.00  0.00    -0.028 A 
ATOM     32  C   UNL     1       0.240   1.393   0.504  0.00  0.00    +0.005 A 
ATOM     33  C   UNL     1       1.371   2.164   0.698  0.00  0.00    +0.000 A 
ATOM     34  C   UNL     1       1.265   3.540   0.776  0.00  0.00    +0.000 A 
ATOM     35  C   UNL     1       0.028   4.145   0.661  0.00  0.00    +0.000 A 
ATOM     36  C   UNL     1      -1.104   3.375   0.468  0.00  0.00    +0.005 A 
ENDBRANCH  30  31
ENDBRANCH   5  30
TORSDOF 6
