REMARK  Name = ZINC39920410
REMARK  7 active torsions:
REMARK  status: ('A' for Active; 'I' for Inactive)
REMARK    1  A    between atoms: C_1  and  C_2
REMARK    2  A    between atoms: C_2  and  C_3
REMARK    3  A    between atoms: N_14  and  N_15
REMARK    4  A    between atoms: C_16  and  C_18
REMARK    5  A    between atoms: C_18  and  C_20
REMARK    6  A    between atoms: C_18  and  O_21
REMARK    7  A    between atoms: O_21  and  C_22
REMARK                            x       y       z     vdW  Elec       q    Type
REMARK                         _______ _______ _______ _____ _____    ______ ____
ROOT
ATOM      1  N   UNL     1      -1.331  -2.433  -1.363  0.00  0.00    -0.227 N 
ATOM      2  C   UNL     1      -0.225  -3.044  -1.832  0.00  0.00    +0.270 C 
ATOM      3  O   UNL     1       0.848  -2.846  -1.301  0.00  0.00    -0.270 OA
ATOM      4  H   UNL     1      -2.189  -2.591  -1.787  0.00  0.00    +0.173 HD
ENDROOT
BRANCH   1  15
ATOM      5  C   UNL     1      -1.320  -0.126  -0.474  0.00  0.00    +0.180 C 
ATOM      6  N   UNL     1      -1.926   0.525   0.693  0.00  0.00    -0.324 N 
ATOM      7  C   UNL     1      -1.512   0.134   1.962  0.00  0.00    +0.041 A 
ATOM      8  C   UNL     1      -1.523   1.004   3.037  0.00  0.00    +0.025 A 
ATOM      9  C   UNL     1      -1.098   0.566   4.277  0.00  0.00    +0.017 A 
ATOM     10  C   UNL     1      -0.660  -0.739   4.451  0.00  0.00    +0.019 A 
ATOM     11  C   UNL     1      -0.645  -1.620   3.388  0.00  0.00    +0.030 A 
ATOM     12  C   UNL     1      -1.073  -1.191   2.135  0.00  0.00    +0.060 A 
ATOM     13  C   UNL     1      -1.085  -2.092   0.968  0.00  0.00    +0.266 C 
ATOM     14  O   UNL     1      -0.955  -3.292   1.117  0.00  0.00    -0.268 OA
ATOM     15  N   UNL     1      -1.242  -1.571  -0.262  0.00  0.00    -0.196 N 
ATOM     16 BR   UNL     1      -0.081  -1.315   6.156  0.00  0.00    -0.050 Br
ATOM     17  H   UNL     1      -2.601   1.213   0.583  0.00  0.00    +0.148 HD
BRANCH   5  19
ATOM     18  C   UNL     1       0.011   1.942  -0.920  0.00  0.00    +0.007 C 
ATOM     19  C   UNL     1       0.089   0.431  -0.690  0.00  0.00    +0.040 C 
ENDBRANCH   5  19
ENDBRANCH   1  15
BRANCH   2  20
ATOM     20  C   UNL     1      -0.321  -3.971  -3.016  0.00  0.00    +0.257 C 
ATOM     21  C   UNL     1      -0.740  -3.176  -4.254  0.00  0.00    +0.062 C 
BRANCH  20  22
ATOM     22  O   UNL     1       0.951  -4.580  -3.248  0.00  0.00    -0.480 OA
BRANCH  22  23
ATOM     23  C   UNL     1       0.954  -5.776  -3.893  0.00  0.00    +0.122 A 
ATOM     24  C   UNL     1      -0.245  -6.291  -4.397  0.00  0.00    +0.046 A 
ATOM     25  C   UNL     1      -0.274  -7.486  -5.046  0.00  0.00    +0.012 A 
ATOM     26  C   UNL     1       0.915  -8.216  -5.216  0.00  0.00    -0.018 A 
ATOM     27  C   UNL     1       0.921  -9.453  -5.883  0.00  0.00    +0.008 A 
ATOM     28  C   UNL     1       2.090 -10.134  -6.030  0.00  0.00    +0.001 A 
ATOM     29  C   UNL     1       3.286  -9.622  -5.529  0.00  0.00    +0.001 A 
ATOM     30  C   UNL     1       3.319  -8.428  -4.878  0.00  0.00    +0.008 A 
ATOM     31  C   UNL     1       2.131  -7.696  -4.707  0.00  0.00    -0.014 A 
ATOM     32  C   UNL     1       2.127  -6.457  -4.045  0.00  0.00    +0.054 A 
ENDBRANCH  22  23
ENDBRANCH  20  22
ENDBRANCH   2  20
TORSDOF 5
