REMARK  Name = ZINC36801241
REMARK  14 active torsions:
REMARK  status: ('A' for Active; 'I' for Inactive)
REMARK    1  A    between atoms: C_1  and  C_2
REMARK    2  A    between atoms: C_2  and  O_3
REMARK    3  A    between atoms: O_3  and  C_4
REMARK    4  A    between atoms: C_4  and  C_6
REMARK    5  A    between atoms: C_12  and  C_14
REMARK    6  A    between atoms: C_14  and  C_16
REMARK    7  A    between atoms: C_14  and  S_17
REMARK    8  A    between atoms: S_17  and  C_18
REMARK    9  A    between atoms: C_21  and  C_24
REMARK   10  A    between atoms: N_22  and  N_23
REMARK   11  A    between atoms: C_27  and  C_30
REMARK   12  A    between atoms: C_30  and  C_31
REMARK   13  A    between atoms: C_30  and  C_32
REMARK   14  A    between atoms: C_30  and  C_33
REMARK                            x       y       z     vdW  Elec       q    Type
REMARK                         _______ _______ _______ _____ _____    ______ ____
ROOT
ATOM      1  C   UNL     1      -5.560  -8.845   3.066  0.00  0.00    +0.209 A 
ATOM      2  N   UNL     1      -5.147  -9.364   1.931  0.00  0.00    -0.121 NA
ATOM      3  N   UNL     1      -5.035 -10.639   2.044  0.00  0.00    -0.127 NA
ATOM      4  C   UNL     1      -5.368 -11.012   3.258  0.00  0.00    +0.182 A 
ATOM      5  N   UNL     1      -5.709  -9.874   3.951  0.00  0.00    -0.224 N 
ENDROOT
BRANCH   4   6
ATOM      6  C   UNL     1      -5.371 -12.395   3.782  0.00  0.00    +0.021 A 
ATOM      7  C   UNL     1      -6.041 -12.692   4.970  0.00  0.00    +0.012 A 
ATOM      8  C   UNL     1      -6.040 -13.984   5.454  0.00  0.00    +0.005 A 
ATOM      9  C   UNL     1      -5.377 -14.984   4.765  0.00  0.00    -0.042 A 
ATOM     10  C   UNL     1      -4.711 -14.695   3.587  0.00  0.00    +0.005 A 
ATOM     11  C   UNL     1      -4.709 -13.409   3.089  0.00  0.00    +0.012 A 
BRANCH   9  12
ATOM     12  C   UNL     1      -5.381 -16.393   5.299  0.00  0.00    -0.013 C 
ATOM     13  C   UNL     1      -6.821 -16.899   5.394  0.00  0.00    +0.015 C 
ATOM     14  C   UNL     1      -4.583 -17.297   4.358  0.00  0.00    +0.015 C 
ATOM     15  C   UNL     1      -4.741 -16.412   6.689  0.00  0.00    +0.015 C 
ENDBRANCH   9  12
ENDBRANCH   4   6
BRANCH   5  16
ATOM     16  N   UNL     1      -6.114  -9.790   5.253  0.00  0.00    -0.295 N 
ATOM     17  H   UNL     1      -7.117  -9.873   5.325  0.00  0.00    +0.163 HD
ATOM     18  H   UNL     1      -5.652 -10.485   5.821  0.00  0.00    +0.163 HD
ENDBRANCH   5  16
BRANCH   1  19
ATOM     19  S   UNL     1      -5.857  -7.138   3.387  0.00  0.00    -0.072 S 
BRANCH  19  20
ATOM     20  C   UNL     1      -5.473  -6.322   1.813  0.00  0.00    +0.137 C 
ATOM     21  C   UNL     1      -6.470  -6.778   0.746  0.00  0.00    +0.029 C 
BRANCH  20  28
ATOM     22  C   UNL     1      -2.881  -2.427   0.017  0.00  0.00    +0.101 C 
ATOM     23  C   UNL     1      -3.623  -1.970   1.275  0.00  0.00    +0.033 C 
ATOM     24  C   UNL     1      -5.041  -2.549   1.265  0.00  0.00    +0.108 C 
ATOM     25  N   UNL     1      -4.956  -4.007   1.110  0.00  0.00    -0.301 N 
ATOM     26  C   UNL     1      -4.189  -4.554  -0.017  0.00  0.00    +0.108 C 
ATOM     27  C   UNL     1      -2.780  -3.954   0.007  0.00  0.00    +0.033 C 
ATOM     28  C   UNL     1      -5.570  -4.828   1.985  0.00  0.00    +0.229 C 
ATOM     29  O   UNL     1      -6.200  -4.364   2.912  0.00  0.00    -0.274 OA
BRANCH  22  30
ATOM     30  C   UNL     1      -1.496  -1.832   0.006  0.00  0.00    +0.310 C 
ATOM     31  O   UNL     1      -0.528  -2.555  -0.007  0.00  0.00    -0.251 OA
BRANCH  30  32
ATOM     32  O   UNL     1      -1.339  -0.499   0.012  0.00  0.00    -0.465 OA
BRANCH  32  34
ATOM     33  C   UNL     1      -0.019   1.526   0.010  0.00  0.00    +0.048 C 
ATOM     34  C   UNL     1       0.002  -0.004   0.002  0.00  0.00    +0.229 C 
ENDBRANCH  32  34
ENDBRANCH  30  32
ENDBRANCH  22  30
ENDBRANCH  20  28
ENDBRANCH  19  20
ENDBRANCH   1  19
TORSDOF 9
