REMARK  Name = ZINC26532286
REMARK  3 active torsions:
REMARK  status: ('A' for Active; 'I' for Inactive)
REMARK    1  A    between atoms: C_5  and  C_7
REMARK    2  A    between atoms: N_16  and  C_17
REMARK    3  A    between atoms: C_21  and  C_23
REMARK                            x       y       z     vdW  Elec       q    Type
REMARK                         _______ _______ _______ _____ _____    ______ ____
ROOT
ATOM      1  C   UNL     1       1.274  -2.202  -0.117  0.00  0.00    +0.183 A 
ATOM      2  N   UNL     1       2.333  -2.974  -0.249  0.00  0.00    -0.127 NA
ATOM      3  N   UNL     1       1.982  -4.215  -0.226  0.00  0.00    -0.121 NA
ATOM      4  C   UNL     1       0.692  -4.302  -0.080  0.00  0.00    +0.210 A 
ATOM      5  N   UNL     1       0.193  -3.027   0.004  0.00  0.00    -0.216 N 
ATOM      6  N   UNL     1      -1.158  -2.715   0.182  0.00  0.00    -0.236 N 
ATOM      7  C   UNL     1      -2.105  -3.702   0.031  0.00  0.00    +0.124 C 
ATOM      8  C   UNL     1      -1.875  -5.045   0.700  0.00  0.00    +0.150 C 
ATOM      9  S   UNL     1      -0.331  -5.739   0.010  0.00  0.00    -0.077 S 
ATOM     10  N   UNL     1      -3.179  -3.488  -0.673  0.00  0.00    -0.235 NA
ATOM     11  H   UNL     1      -1.426  -1.811   0.410  0.00  0.00    +0.174 HD
ENDROOT
BRANCH   1  16
ATOM     12  C   UNL     1       0.539   1.337   0.904  0.00  0.00    +0.001 A 
ATOM     13  C   UNL     1       1.231   2.046  -0.063  0.00  0.00    +0.001 A 
ATOM     14  C   UNL     1       1.937   1.378  -1.047  0.00  0.00    +0.016 A 
ATOM     15  C   UNL     1       1.955  -0.003  -1.071  0.00  0.00    +0.029 A 
ATOM     16  C   UNL     1       1.260  -0.724  -0.098  0.00  0.00    +0.035 A 
ATOM     17  C   UNL     1       0.549  -0.042   0.892  0.00  0.00    +0.013 A 
ATOM     18 BR   UNL     1       2.920  -0.914  -2.417  0.00  0.00    -0.050 Br
ENDBRANCH   1  16
BRANCH  10  19
ATOM     19  C   UNL     1      -3.322  -2.313  -1.367  0.00  0.00    +0.066 A 
ATOM     20  C   UNL     1      -2.329  -1.900  -2.257  0.00  0.00    +0.028 A 
ATOM     21  C   UNL     1      -2.478  -0.717  -2.951  0.00  0.00    +0.003 A 
ATOM     22  C   UNL     1      -3.609   0.059  -2.767  0.00  0.00    +0.012 A 
ATOM     23  C   UNL     1      -4.596  -0.345  -1.886  0.00  0.00    +0.057 A 
ATOM     24  C   UNL     1      -4.462  -1.529  -1.190  0.00  0.00    +0.040 A 
BRANCH  23  25
ATOM     25  C   UNL     1      -5.824   0.507  -1.691  0.00  0.00    +0.417 C 
ATOM     26  F   UNL     1      -5.737   1.644  -2.501  0.00  0.00    -0.166 F 
ATOM     27  F   UNL     1      -6.962  -0.229  -2.041  0.00  0.00    -0.166 F 
ATOM     28  F   UNL     1      -5.914   0.895  -0.350  0.00  0.00    -0.166 F 
ENDBRANCH  23  25
ENDBRANCH  10  19
TORSDOF 3
