REMARK  Name = ZINC13401932
REMARK  4 active torsions:
REMARK  status: ('A' for Active; 'I' for Inactive)
REMARK    1  A    between atoms: C_1  and  C_2
REMARK    2  A    between atoms: C_2  and  C_16
REMARK    3  A    between atoms: N_3  and  N_4
REMARK    4  A    between atoms: N_24  and  C_27
REMARK                            x       y       z     vdW  Elec       q    Type
REMARK                         _______ _______ _______ _____ _____    ______ ____
ROOT
ATOM      1  C   UNL     1      -0.413  -0.884  -1.362  0.00  0.00    +0.110 A 
ATOM      2  C   UNL     1       0.070  -2.263  -1.557  0.00  0.00    +0.202 A 
ATOM      3  C   UNL     1       0.823  -2.537  -2.797  0.00  0.00    +0.046 A 
ATOM      4  C   UNL     1       1.540  -3.722  -2.959  0.00  0.00    +0.014 A 
ATOM      5  C   UNL     1       2.234  -3.942  -4.129  0.00  0.00    +0.001 A 
ATOM      6  C   UNL     1       2.221  -2.992  -5.140  0.00  0.00    +0.002 A 
ATOM      7  C   UNL     1       1.515  -1.817  -4.993  0.00  0.00    +0.027 A 
ATOM      8  C   UNL     1       0.805  -1.576  -3.821  0.00  0.00    +0.061 A 
ATOM      9  N   UNL     1       0.085  -0.406  -3.662  0.00  0.00    -0.276 N 
ATOM     10  C   UNL     1      -0.380  -0.006  -2.456  0.00  0.00    +0.269 A 
ATOM     11  O   UNL     1      -0.814   1.260  -2.301  0.00  0.00    -0.266 OA
ATOM     12  O   UNL     1      -0.141  -3.135  -0.734  0.00  0.00    -0.286 OA
ENDROOT
BRANCH   9  13
ATOM     13  C   UNL     1      -0.177   0.388  -4.786  0.00  0.00    +0.050 A 
ATOM     14  C   UNL     1      -1.315   0.160  -5.548  0.00  0.00    +0.026 A 
ATOM     15  C   UNL     1      -1.570   0.945  -6.656  0.00  0.00    +0.002 A 
ATOM     16  C   UNL     1      -0.694   1.956  -7.006  0.00  0.00    +0.000 A 
ATOM     17  C   UNL     1       0.440   2.184  -6.249  0.00  0.00    +0.002 A 
ATOM     18  C   UNL     1       0.698   1.407  -5.137  0.00  0.00    +0.026 A 
ENDBRANCH   9  13
BRANCH   1  20
ATOM     19  C   UNL     1       0.016   0.238   0.860  0.00  0.00    +0.068 C 
ATOM     20  C   UNL     1      -0.902  -0.461  -0.110  0.00  0.00    +0.077 C 
ATOM     21  N   UNL     1      -2.165  -0.676   0.214  0.00  0.00    -0.153 NA
BRANCH  21  22
ATOM     22  N   UNL     1      -2.612  -0.288   1.360  0.00  0.00    -0.144 NA
ATOM     23  C   UNL     1      -3.875  -0.503   1.684  0.00  0.00    +0.157 C 
ATOM     24  C   UNL     1      -4.558  -0.127   2.940  0.00  0.00    +0.029 A 
ATOM     25  C   UNL     1      -4.137   0.521   4.098  0.00  0.00    +0.013 A 
ATOM     26  C   UNL     1      -5.031   0.734   5.127  0.00  0.00    +0.021 A 
ATOM     27  C   UNL     1      -6.343   0.302   5.008  0.00  0.00    +0.043 A 
ATOM     28  C   UNL     1      -6.771  -0.342   3.863  0.00  0.00    +0.044 A 
ATOM     29  C   UNL     1      -5.885  -0.564   2.815  0.00  0.00    +0.045 A 
ATOM     30  N   UNL     1      -6.051  -1.176   1.578  0.00  0.00    -0.280 N 
ATOM     31  C   UNL     1      -4.909  -1.164   0.870  0.00  0.00    +0.269 C 
ATOM     32  O   UNL     1      -4.755  -1.622  -0.248  0.00  0.00    -0.268 OA
ATOM     33 CL   UNL     1      -7.459   0.574   6.310  0.00  0.00    -0.083 Cl
ATOM     34  H   UNL     1      -6.885  -1.558   1.265  0.00  0.00    +0.155 HD
ENDBRANCH  21  22
ENDBRANCH   1  20
TORSDOF 3
