REMARK  Name = ZINC10813322
REMARK  12 active torsions:
REMARK  status: ('A' for Active; 'I' for Inactive)
REMARK    1  A    between atoms: C_1  and  C_2
REMARK    2  A    between atoms: C_2  and  C_3
REMARK    3  A    between atoms: C_6  and  C_9
REMARK    4  A    between atoms: C_9  and  C_10
REMARK    5  A    between atoms: C_10  and  N_12
REMARK    6  A    between atoms: N_14  and  C_26
REMARK    7  A    between atoms: C_18  and  S_22
REMARK    8  A    between atoms: S_22  and  N_25
REMARK    9  A    between atoms: C_26  and  C_27
REMARK   10  A    between atoms: C_27  and  O_29
REMARK   11  A    between atoms: O_29  and  C_30
REMARK   12  A    between atoms: C_30  and  C_31
REMARK                            x       y       z     vdW  Elec       q    Type
REMARK                         _______ _______ _______ _____ _____    ______ ____
ROOT
ATOM      1  N   UNL     1      -2.911   0.859  -0.309  0.00  0.00    -0.156 NA
ATOM      2  C   UNL     1      -2.314   1.214   0.826  0.00  0.00    +0.167 A 
ATOM      3  N   UNL     1      -0.984   1.347   1.073  0.00  0.00    -0.310 N 
ATOM      4  C   UNL     1      -0.547   1.735   2.326  0.00  0.00    +0.058 A 
ATOM      5  C   UNL     1       0.772   1.930   2.766  0.00  0.00    +0.029 A 
ATOM      6  C   UNL     1       1.031   2.320   4.059  0.00  0.00    +0.030 A 
ATOM      7  C   UNL     1       0.004   2.533   4.964  0.00  0.00    +0.106 A 
ATOM      8  C   UNL     1      -1.305   2.348   4.556  0.00  0.00    +0.045 A 
ATOM      9  C   UNL     1      -1.565   1.958   3.264  0.00  0.00    +0.041 A 
ATOM     10  S   UNL     1      -3.045   1.616   2.346  0.00  0.00    -0.052 S 
ENDROOT
BRANCH   7  11
ATOM     11  S   UNL     1       0.362   3.031   6.616  0.00  0.00    +0.056 S 
ATOM     12  O   UNL     1      -0.748   2.633   7.409  0.00  0.00    -0.153 OA
ATOM     13  O   UNL     1       1.688   2.603   6.891  0.00  0.00    -0.153 OA
BRANCH  11  14
ATOM     14  N   UNL     1       0.385   4.687   6.632  0.00  0.00    -0.204 NA
ATOM     15  H   UNL     1       0.218   5.183   5.816  0.00  0.00    +0.144 HD
ATOM     16  H   UNL     1       0.567   5.161   7.459  0.00  0.00    +0.144 HD
ENDBRANCH  11  14
ENDBRANCH   7  11
BRANCH   1  17
ATOM     17  C   UNL     1      -4.237   0.781  -0.367  0.00  0.00    +0.243 C 
ATOM     18  O   UNL     1      -4.904   1.034   0.618  0.00  0.00    -0.273 OA
BRANCH  17  19
ATOM     19  C   UNL     1      -4.913   0.378  -1.652  0.00  0.00    +0.133 C 
BRANCH  19  23
ATOM     20  C   UNL     1      -9.146   0.345  -1.085  0.00  0.00    -0.048 A 
ATOM     21  C   UNL     1      -8.515   1.500  -1.507  0.00  0.00    +0.004 A 
ATOM     22  C   UNL     1      -7.145   1.510  -1.691  0.00  0.00    +0.004 A 
ATOM     23  C   UNL     1      -6.406   0.367  -1.451  0.00  0.00    -0.039 A 
ATOM     24  C   UNL     1      -7.038  -0.789  -1.033  0.00  0.00    +0.004 A 
ATOM     25  C   UNL     1      -8.408  -0.799  -0.845  0.00  0.00    +0.004 A 
BRANCH  20  27
ATOM     26  C   UNL     1     -11.326  -0.074  -2.189  0.00  0.00    +0.009 C 
ATOM     27  C   UNL     1     -10.640   0.333  -0.884  0.00  0.00    +0.032 C 
ENDBRANCH  20  27
ENDBRANCH  19  23
ENDBRANCH  17  19
ENDBRANCH   1  17
BRANCH   3  28
ATOM     28  C   UNL     1      -0.013   1.086   0.008  0.00  0.00    +0.244 C 
BRANCH  28  29
ATOM     29  C   UNL     1      -0.525   1.656  -1.290  0.00  0.00    +0.327 C 
ATOM     30  O   UNL     1      -1.504   2.363  -1.294  0.00  0.00    -0.249 OA
BRANCH  29  31
ATOM     31  O   UNL     1       0.107   1.377  -2.441  0.00  0.00    -0.464 OA
BRANCH  31  32
ATOM     32  C   UNL     1      -0.441   1.960  -3.652  0.00  0.00    +0.229 C 
ATOM     33  C   UNL     1       0.406   1.534  -4.853  0.00  0.00    +0.048 C 
ENDBRANCH  31  32
ENDBRANCH  29  31
ENDBRANCH  28  29
ENDBRANCH   3  28
TORSDOF 10
