REMARK  Name = ZINC14461883
REMARK  7 active torsions:
REMARK  status: ('A' for Active; 'I' for Inactive)
REMARK    1  A    between atoms: C_1  and  C_2
REMARK    2  A    between atoms: C_2  and  N_3
REMARK    3  A    between atoms: N_3  and  C_4
REMARK    4  A    between atoms: N_3  and  C_6
REMARK    5  A    between atoms: C_4  and  C_5
REMARK    6  A    between atoms: C_9  and  C_12
REMARK    7  A    between atoms: C_25  and  C_28
REMARK                            x       y       z     vdW  Elec       q    Type
REMARK                         _______ _______ _______ _____ _____    ______ ____
ROOT
ATOM      1  C   UNL     1       3.676   6.131   3.932  0.00  0.00    +0.105 C 
ATOM      2  C   UNL     1       3.458   6.191   5.430  0.00  0.00    +0.029 C 
ATOM      3  C   UNL     1       2.205   6.910   5.946  0.00  0.00    +0.033 C 
ATOM      4  C   UNL     1       1.934   6.151   7.248  0.00  0.00    -0.030 C 
ATOM      5  C   UNL     1       2.431   4.921   7.167  0.00  0.00    -0.023 C 
ATOM      6  C   UNL     1       3.030   4.743   5.822  0.00  0.00    +0.049 C 
ATOM      7  C   UNL     1       4.199   3.871   5.575  0.00  0.00    -0.019 A 
ATOM      8  C   UNL     1       4.461   2.769   6.359  0.00  0.00    +0.006 A 
ATOM      9  C   UNL     1       5.553   1.957   6.102  0.00  0.00    +0.001 A 
ATOM     10  C   UNL     1       6.392   2.249   5.049  0.00  0.00    +0.015 A 
ATOM     11  C   UNL     1       6.145   3.362   4.248  0.00  0.00    +0.058 A 
ATOM     12  C   UNL     1       5.042   4.201   4.509  0.00  0.00    +0.044 A 
ATOM     13  N   UNL     1       4.877   5.314   3.702  0.00  0.00    -0.336 N 
ATOM     14  H   UNL     1       4.967   5.070   2.727  0.00  0.00    +0.147 HD
ENDROOT
BRANCH  11  15
ATOM     15  C   UNL     1       7.044   3.665   3.119  0.00  0.00    +0.248 C 
ATOM     16  O   UNL     1       6.607   3.693   1.984  0.00  0.00    -0.270 OA
ATOM     17  N   UNL     1       8.349   3.912   3.344  0.00  0.00    -0.297 N 
ATOM     18  C   UNL     1       8.858   3.778   4.691  0.00  0.00    +0.108 C 
ATOM     19  C   UNL     1       8.715   5.118   5.442  0.00  0.00    +0.019 C 
ATOM     20  C   UNL     1       9.674   6.102   4.917  0.00  0.00    +0.002 C 
ATOM     21  C   UNL     1       9.462   6.465   3.450  0.00  0.00    +0.002 C 
ATOM     22  C   UNL     1      10.165   5.454   2.578  0.00  0.00    +0.019 C 
ATOM     23  C   UNL     1       9.200   4.314   2.207  0.00  0.00    +0.108 C 
ENDBRANCH  11  15
BRANCH   1  27
ATOM     24  C   UNL     1       0.298   4.323   2.038  0.00  0.00    +0.030 A 
ATOM     25  C   UNL     1       1.387   3.545   2.411  0.00  0.00    +0.023 A 
ATOM     26  C   UNL     1       2.478   4.133   3.018  0.00  0.00    +0.007 A 
ATOM     27  C   UNL     1       2.485   5.494   3.265  0.00  0.00    -0.027 A 
ATOM     28  C   UNL     1       1.400   6.271   2.900  0.00  0.00    +0.007 A 
ATOM     29  C   UNL     1       0.307   5.689   2.287  0.00  0.00    +0.023 A 
BRANCH  24  30
ATOM     30  N   UNL     1      -0.806   3.732   1.419  0.00  0.00    -0.330 N 
BRANCH  30  32
ATOM     31  C   UNL     1      -0.217   2.020  -0.225  0.00  0.00    +0.024 C 
ATOM     32  C   UNL     1      -0.814   2.291   1.157  0.00  0.00    +0.102 C 
ENDBRANCH  30  32
BRANCH  30  33
ATOM     33  C   UNL     1      -1.956   4.553   1.033  0.00  0.00    +0.102 C 
ATOM     34  C   UNL     1      -2.956   4.608   2.189  0.00  0.00    +0.024 C 
ENDBRANCH  30  33
ENDBRANCH  24  30
ENDBRANCH   1  27
TORSDOF 5
