REMARK  Name = ZINC43609343
REMARK  9 active torsions:
REMARK  status: ('A' for Active; 'I' for Inactive)
REMARK    1  A    between atoms: C_1  and  O_2
REMARK    2  A    between atoms: O_2  and  C_3
REMARK    3  A    between atoms: C_5  and  C_12
REMARK    4  A    between atoms: C_12  and  N_13
REMARK    5  A    between atoms: N_25  and  C_26
REMARK    6  A    between atoms: C_26  and  C_27
REMARK    7  A    between atoms: C_27  and  C_28
REMARK    8  A    between atoms: C_28  and  C_29
REMARK    9  A    between atoms: C_28  and  C_35
REMARK                            x       y       z     vdW  Elec       q    Type
REMARK                         _______ _______ _______ _____ _____    ______ ____
ROOT
ATOM      1  N   UNL     1      -6.743   2.127  -2.017  0.00  0.00    +0.383 N 
ATOM      2  C   UNL     1      -6.681   0.768  -2.568  0.00  0.00    -0.077 C 
ATOM      3  C   UNL     1      -7.286   0.762  -3.973  0.00  0.00    +0.004 C 
ATOM      4  C   UNL     1      -8.741   1.224  -3.906  0.00  0.00    +0.076 C 
ATOM      5  C   UNL     1      -8.825   2.592  -3.230  0.00  0.00    -0.007 C 
ATOM      6  C   UNL     1      -8.145   2.532  -1.860  0.00  0.00    -0.073 C 
ATOM      7  C   UNL     1     -10.305   2.947  -3.032  0.00  0.00    +0.013 C 
ATOM      8  C   UNL     1     -10.899   1.982  -2.003  0.00  0.00    +0.096 C 
ATOM      9  C   UNL     1     -10.542   0.568  -2.360  0.00  0.00    +0.216 C 
ATOM     10  O   UNL     1     -11.184  -0.331  -1.858  0.00  0.00    -0.276 OA
ATOM     11  N   UNL     1      -9.552   0.258  -3.181  0.00  0.00    -0.298 N 
ATOM     12  H   UNL     1      -6.277   2.765  -2.644  0.00  0.00    -0.081 HD
ENDROOT
BRANCH   1  13
ATOM     13  C   UNL     1      -6.078   2.155  -0.708  0.00  0.00    -0.043 C 
BRANCH  13  16
ATOM     14  C   UNL     1      -2.369   2.625  -1.263  0.00  0.00    +0.166 A 
ATOM     15  C   UNL     1      -3.720   2.893  -1.101  0.00  0.00    +0.051 A 
ATOM     16  C   UNL     1      -4.610   1.859  -0.884  0.00  0.00    -0.057 A 
ATOM     17  C   UNL     1      -4.159   0.554  -0.828  0.00  0.00    +0.051 A 
ATOM     18  C   UNL     1      -2.810   0.276  -0.989  0.00  0.00    +0.170 A 
ATOM     19  C   UNL     1      -1.911   1.315  -1.213  0.00  0.00    +0.208 A 
ATOM     20  O   UNL     1      -0.658   0.787  -1.344  0.00  0.00    -0.449 OA
ATOM     21  C   UNL     1      -0.742  -0.542  -0.797  0.00  0.00    +0.467 C 
ATOM     22  O   UNL     1      -2.121  -0.902  -0.977  0.00  0.00    -0.452 OA
BRANCH  14  24
ATOM     23  C   UNL     1      -2.034   4.966  -1.516  0.00  0.00    +0.277 C 
ATOM     24  O   UNL     1      -1.494   3.644  -1.476  0.00  0.00    -0.491 OA
ENDBRANCH  14  24
ENDBRANCH  13  16
ENDBRANCH   1  13
BRANCH  11  25
ATOM     25  C   UNL     1      -9.273  -1.165  -3.385  0.00  0.00    +0.109 C 
BRANCH  25  26
ATOM     26  C   UNL     1     -10.008  -1.655  -4.634  0.00  0.00    +0.032 C 
BRANCH  26  27
ATOM     27  C   UNL     1      -9.821  -3.167  -4.775  0.00  0.00    +0.050 C 
BRANCH  27  28
ATOM     28  C   UNL     1     -10.645  -3.669  -5.933  0.00  0.00    -0.040 A 
ATOM     29  C   UNL     1     -11.518  -4.726  -5.754  0.00  0.00    +0.004 A 
ATOM     30  C   UNL     1     -12.274  -5.186  -6.816  0.00  0.00    +0.000 A 
ATOM     31  C   UNL     1     -12.156  -4.589  -8.058  0.00  0.00    +0.000 A 
ATOM     32  C   UNL     1     -11.284  -3.532  -8.237  0.00  0.00    +0.000 A 
ATOM     33  C   UNL     1     -10.532  -3.069  -7.173  0.00  0.00    +0.004 A 
ENDBRANCH  27  28
BRANCH  27  34
ATOM     34  C   UNL     1      -8.367  -3.472  -5.024  0.00  0.00    -0.040 A 
ATOM     35  C   UNL     1      -7.688  -2.823  -6.038  0.00  0.00    +0.004 A 
ATOM     36  C   UNL     1      -6.354  -3.103  -6.267  0.00  0.00    +0.000 A 
ATOM     37  C   UNL     1      -5.698  -4.032  -5.480  0.00  0.00    +0.000 A 
ATOM     38  C   UNL     1      -6.376  -4.680  -4.466  0.00  0.00    +0.000 A 
ATOM     39  C   UNL     1      -7.710  -4.397  -4.235  0.00  0.00    +0.004 A 
ENDBRANCH  27  34
ENDBRANCH  26  27
ENDBRANCH  25  26
ENDBRANCH  11  25
TORSDOF 8
