REMARK  Name = ZINC19145144
REMARK  9 active torsions:
REMARK  status: ('A' for Active; 'I' for Inactive)
REMARK    1  A    between atoms: C_1  and  N_70
REMARK    2  A    between atoms: C_2  and  C_3
REMARK    3  A    between atoms: C_2  and  N_70
REMARK    4  A    between atoms: C_6  and  O_9
REMARK    5  A    between atoms: O_9  and  C_10
REMARK    6  A    between atoms: C_16  and  C_18
REMARK    7  A    between atoms: C_19  and  C_20
REMARK    8  A    between atoms: C_27  and  C_28
REMARK    9  A    between atoms: C_27  and  N_70
REMARK                            x       y       z     vdW  Elec       q    Type
REMARK                         _______ _______ _______ _____ _____    ______ ____
ROOT
ATOM      1  C   UNL     1       4.710   4.619  -2.898  0.00  0.00    -0.064 A 
ATOM      2  C   UNL     1       5.382   3.528  -3.418  0.00  0.00    +0.005 A 
ATOM      3  C   UNL     1       5.828   3.548  -4.725  0.00  0.00    +0.046 A 
ATOM      4  C   UNL     1       5.613   4.670  -5.513  0.00  0.00    +0.121 A 
ATOM      5  C   UNL     1       4.944   5.766  -4.987  0.00  0.00    +0.046 A 
ATOM      6  C   UNL     1       4.494   5.738  -3.681  0.00  0.00    +0.005 A 
ENDROOT
BRANCH   1   7
ATOM      7  C   UNL     1       4.219   4.592  -1.474  0.00  0.00    -0.043 C 
BRANCH   7   9
ATOM      8  C   UNL     1       1.912   4.953  -2.115  0.00  0.00    -0.095 C 
ATOM      9  N   UNL     1       2.853   4.026  -1.452  0.00  0.00    +0.383 N 
ATOM     10  H   UNL     1       2.854   3.133  -1.958  0.00  0.00    -0.081 HD
BRANCH   9  11
ATOM     11  C   UNL     1       2.429   3.787  -0.056  0.00  0.00    -0.043 C 
BRANCH  11  12
ATOM     12  C   UNL     1       1.135   3.013  -0.068  0.00  0.00    -0.063 A 
ATOM     13  C   UNL     1       1.168   1.620  -0.080  0.00  0.00    +0.004 A 
ATOM     14  C   UNL     1       0.020   0.890  -0.091  0.00  0.00    +0.028 A 
ATOM     15  C   UNL     1      -1.224   1.547  -0.095  0.00  0.00    +0.071 A 
ATOM     16  C   UNL     1      -1.255   2.964  -0.076  0.00  0.00    +0.001 A 
ATOM     17  C   UNL     1      -0.049   3.684  -0.066  0.00  0.00    +0.011 A 
ATOM     18  C   UNL     1      -2.500   3.619  -0.075  0.00  0.00    +0.011 A 
ATOM     19  C   UNL     1      -3.631   2.853  -0.086  0.00  0.00    +0.020 A 
ATOM     20  C   UNL     1      -3.530   1.464  -0.099  0.00  0.00    +0.111 A 
ATOM     21  N   UNL     1      -2.368   0.857  -0.101  0.00  0.00    -0.255 NA
ENDBRANCH  11  12
ENDBRANCH   9  11
ENDBRANCH   7   9
ENDBRANCH   1   7
BRANCH   4  22
ATOM     22  O   UNL     1       6.057   4.695  -6.797  0.00  0.00    -0.489 OA
BRANCH  22  23
ATOM     23  C   UNL     1       5.715   5.841  -7.579  0.00  0.00    +0.176 C 
ATOM     24  C   UNL     1       4.317   5.655  -8.172  0.00  0.00    +0.063 C 
ATOM     25  C   UNL     1       3.939   6.900  -8.981  0.00  0.00    +0.111 C 
ATOM     26  N   UNL     1       4.989   7.151  -9.979  0.00  0.00    -0.298 N 
ATOM     27  C   UNL     1       6.383   7.257  -9.526  0.00  0.00    +0.111 C 
ATOM     28  C   UNL     1       6.732   6.008  -8.710  0.00  0.00    +0.063 C 
ATOM     29  C   UNL     1       4.679   7.283 -11.284  0.00  0.00    +0.239 C 
ATOM     30  O   UNL     1       5.564   7.390 -12.111  0.00  0.00    -0.271 OA
BRANCH  29  31
ATOM     31  C   UNL     1       3.277   7.297 -11.705  0.00  0.00    +0.068 C 
ATOM     32  C   UNL     1       2.963   7.529 -12.996  0.00  0.00    +0.014 C 
BRANCH  32  33
ATOM     33  C   UNL     1       1.554   7.543 -13.419  0.00  0.00    -0.007 A 
ATOM     34  C   UNL     1       0.537   7.317 -12.486  0.00  0.00    +0.009 A 
ATOM     35  C   UNL     1      -0.781   7.332 -12.890  0.00  0.00    +0.001 A 
ATOM     36  C   UNL     1      -1.100   7.571 -14.217  0.00  0.00    +0.001 A 
ATOM     37  C   UNL     1      -0.101   7.795 -15.147  0.00  0.00    +0.020 A 
ATOM     38  C   UNL     1       1.224   7.789 -14.757  0.00  0.00    +0.048 A 
ATOM     39 CL   UNL     1       2.476   8.078 -15.924  0.00  0.00    -0.083 Cl
ENDBRANCH  32  33
ENDBRANCH  29  31
ENDBRANCH  22  23
ENDBRANCH   4  22
TORSDOF 8
