REMARK  Name = ZINC03572919
REMARK  11 active torsions:
REMARK  status: ('A' for Active; 'I' for Inactive)
REMARK    1  A    between atoms: C_1  and  C_2
REMARK    2  A    between atoms: C_2  and  O_3
REMARK    3  A    between atoms: O_3  and  C_4
REMARK    4  A    between atoms: C_6  and  C_18
REMARK    5  A    between atoms: C_9  and  O_10
REMARK    6  A    between atoms: O_10  and  C_11
REMARK    7  A    between atoms: C_11  and  C_12
REMARK    8  A    between atoms: N_14  and  C_15
REMARK    9  A    between atoms: N_14  and  C_16
REMARK   10  A    between atoms: N_19  and  N_20
REMARK   11  A    between atoms: C_21  and  C_23
REMARK                            x       y       z     vdW  Elec       q    Type
REMARK                         _______ _______ _______ _____ _____    ______ ____
ROOT
ATOM      1  C   UNL     1      -1.569  -2.545   1.211  0.00  0.00    +0.164 A 
ATOM      2  C   UNL     1      -1.732  -3.918   1.207  0.00  0.00    +0.059 A 
ATOM      3  C   UNL     1      -1.826  -4.604  -0.006  0.00  0.00    -0.001 A 
ATOM      4  C   UNL     1      -1.754  -3.900  -1.211  0.00  0.00    +0.028 A 
ATOM      5  C   UNL     1      -1.597  -2.529  -1.200  0.00  0.00    +0.064 A 
ATOM      6  C   UNL     1      -1.498  -1.849   0.006  0.00  0.00    +0.177 A 
ATOM      7 BR   UNL     1      -1.509  -1.576  -2.830  0.00  0.00    -0.046 Br
ENDROOT
BRANCH   3   8
ATOM      8  C   UNL     1      -2.001  -6.068  -0.015  0.00  0.00    +0.138 C 
ATOM      9  N   UNL     1      -2.088  -6.704  -1.144  0.00  0.00    -0.187 NA
BRANCH   9  10
ATOM     10  N   UNL     1      -2.254  -8.095  -1.153  0.00  0.00    -0.203 N 
ATOM     11  C   UNL     1      -2.345  -8.755  -2.324  0.00  0.00    +0.263 C 
ATOM     12  O   UNL     1      -2.282  -8.144  -3.373  0.00  0.00    -0.268 OA
ATOM     13  H   UNL     1      -2.311  -8.648  -0.203  0.00  0.00    +0.178 HD
BRANCH  11  14
ATOM     14  C   UNL     1      -2.520 -10.223  -2.333  0.00  0.00    +0.038 A 
ATOM     15  C   UNL     1      -2.586 -10.929  -1.131  0.00  0.00    +0.013 A 
ATOM     16  C   UNL     1      -2.754 -12.298  -1.147  0.00  0.00    +0.001 A 
ATOM     17  C   UNL     1      -2.847 -12.973  -2.351  0.00  0.00    +0.000 A 
ATOM     18  C   UNL     1      -2.777 -12.280  -3.547  0.00  0.00    +0.001 A 
ATOM     19  C   UNL     1      -2.614 -10.910  -3.545  0.00  0.00    +0.013 A 
ENDBRANCH  11  14
ENDBRANCH   9  10
ENDBRANCH   3   8
BRANCH   1  20
ATOM     20  O   UNL     1      -1.477  -1.874   2.390  0.00  0.00    -0.489 OA
BRANCH  20  22
ATOM     21  C   UNL     1      -1.435  -1.731   4.802  0.00  0.00    +0.048 C 
ATOM     22  C   UNL     1      -1.556  -2.652   3.587  0.00  0.00    +0.226 C 
ENDBRANCH  20  22
ENDBRANCH   1  20
BRANCH   6  23
ATOM     23  O   UNL     1      -1.339  -0.499   0.012  0.00  0.00    -0.478 OA
BRANCH  23  24
ATOM     24  C   UNL     1       0.002  -0.004   0.002  0.00  0.00    +0.325 C 
BRANCH  24  25
ATOM     25  C   UNL     1      -0.018   1.503   0.010  0.00  0.00    +0.253 C 
ATOM     26  O   UNL     1      -1.077   2.095   0.018  0.00  0.00    -0.272 OA
ATOM     27  N   UNL     1       1.139   2.192   0.003  0.00  0.00    -0.305 N 
ATOM     28  C   UNL     1       1.120   3.657   0.011  0.00  0.00    +0.131 C 
ATOM     29  C   UNL     1       2.418   1.477  -0.013  0.00  0.00    +0.131 C 
ENDBRANCH  24  25
ENDBRANCH  23  24
ENDBRANCH   6  23
TORSDOF 8
