REMARK  Name = ZINC03628466
REMARK  9 active torsions:
REMARK  status: ('A' for Active; 'I' for Inactive)
REMARK    1  A    between atoms: C_1  and  C_2
REMARK    2  A    between atoms: C_2  and  C_4
REMARK    3  A    between atoms: C_2  and  N_10
REMARK    4  A    between atoms: C_11  and  C_13
REMARK    5  A    between atoms: C_13  and  O_14
REMARK    6  A    between atoms: O_14  and  C_15
REMARK    7  A    between atoms: C_18  and  C_21
REMARK    8  A    between atoms: N_33  and  C_34
REMARK    9  A    between atoms: C_34  and  C_35
REMARK                            x       y       z     vdW  Elec       q    Type
REMARK                         _______ _______ _______ _____ _____    ______ ____
ROOT
ATOM      1  C   UNL     1      -1.650  -4.794   3.237  0.00  0.00    +0.121 A 
ATOM      2  C   UNL     1      -2.159  -3.803   4.064  0.00  0.00    +0.046 A 
ATOM      3  C   UNL     1      -2.017  -2.474   3.716  0.00  0.00    +0.010 A 
ATOM      4  C   UNL     1      -1.368  -2.130   2.544  0.00  0.00    -0.011 A 
ATOM      5  C   UNL     1      -0.865  -3.116   1.716  0.00  0.00    +0.010 A 
ATOM      6  C   UNL     1      -0.999  -4.446   2.062  0.00  0.00    +0.046 A 
ENDROOT
BRANCH   4   7
ATOM      7  C   UNL     1      -1.215  -0.679   2.167  0.00  0.00    +0.194 C 
ATOM      8  N   UNL     1      -1.123   0.135   3.376  0.00  0.00    -0.322 N 
ATOM      9  C   UNL     1      -0.025   0.114   4.231  0.00  0.00    +0.055 A 
ATOM     10  C   UNL     1      -0.190   0.538   5.549  0.00  0.00    +0.025 A 
ATOM     11  C   UNL     1       0.883   0.545   6.415  0.00  0.00    +0.002 A 
ATOM     12  C   UNL     1       2.131   0.134   5.984  0.00  0.00    +0.002 A 
ATOM     13  C   UNL     1       2.301  -0.294   4.680  0.00  0.00    +0.030 A 
ATOM     14  C   UNL     1       1.229  -0.311   3.813  0.00  0.00    +0.126 A 
ATOM     15  S   UNL     1       1.443  -0.903   2.156  0.00  0.00    +0.065 S 
ATOM     16  O   UNL     1       1.492  -2.321   2.221  0.00  0.00    -0.153 OA
ATOM     17  O   UNL     1       2.474  -0.123   1.566  0.00  0.00    -0.153 OA
ATOM     18  N   UNL     1       0.022  -0.500   1.381  0.00  0.00    -0.148 NA
ATOM     19  H   UNL     1      -1.866   0.720   3.595  0.00  0.00    +0.148 HD
BRANCH  18  20
ATOM     20  C   UNL     1       0.002  -0.004   0.002  0.00  0.00    +0.147 C 
BRANCH  20  21
ATOM     21  C   UNL     1      -0.018   1.503   0.010  0.00  0.00    -0.032 A 
ATOM     22  C   UNL     1      -1.225   2.178   0.020  0.00  0.00    +0.005 A 
ATOM     23  C   UNL     1      -1.244   3.560   0.033  0.00  0.00    +0.000 A 
ATOM     24  C   UNL     1      -0.056   4.267   0.025  0.00  0.00    +0.000 A 
ATOM     25  C   UNL     1       1.151   3.592   0.010  0.00  0.00    +0.000 A 
ATOM     26  C   UNL     1       1.169   2.210   0.003  0.00  0.00    +0.005 A 
ENDBRANCH  20  21
ENDBRANCH  18  20
ENDBRANCH   4   7
BRANCH   1  27
ATOM     27  O   UNL     1      -1.788  -6.102   3.577  0.00  0.00    -0.483 OA
BRANCH  27  28
ATOM     28  C   UNL     1      -1.239  -7.068   2.678  0.00  0.00    +0.324 C 
BRANCH  28  30
ATOM     29  N   UNL     1      -1.055  -9.530   2.531  0.00  0.00    -0.306 N 
ATOM     30  C   UNL     1      -1.487  -8.453   3.216  0.00  0.00    +0.251 C 
ATOM     31  O   UNL     1      -2.076  -8.600   4.266  0.00  0.00    -0.272 OA
ATOM     32  H   UNL     1      -0.584  -9.413   1.691  0.00  0.00    +0.149 HD
BRANCH  29  34
ATOM     33  C   UNL     1      -0.189 -11.245   4.044  0.00  0.00    +0.033 C 
ATOM     34  C   UNL     1      -1.296 -10.877   3.054  0.00  0.00    +0.100 C 
BRANCH  34  35
ATOM     35  C   UNL     1      -1.301 -11.865   1.916  0.00  0.00    -0.027 A 
ATOM     36  C   UNL     1      -0.390 -11.735   0.884  0.00  0.00    +0.005 A 
ATOM     37  C   UNL     1      -0.392 -12.643  -0.158  0.00  0.00    +0.000 A 
ATOM     38  C   UNL     1      -1.310 -13.676  -0.172  0.00  0.00    +0.000 A 
ATOM     39  C   UNL     1      -2.225 -13.803   0.857  0.00  0.00    +0.000 A 
ATOM     40  C   UNL     1      -2.220 -12.897   1.901  0.00  0.00    +0.005 A 
ENDBRANCH  34  35
ENDBRANCH  29  34
ENDBRANCH  28  30
ENDBRANCH  27  28
ENDBRANCH   1  27
TORSDOF 8
