REMARK  Name = ZINC09237750
REMARK  8 active torsions:
REMARK  status: ('A' for Active; 'I' for Inactive)
REMARK    1  A    between atoms: C_1  and  C_2
REMARK    2  A    between atoms: C_2  and  C_3
REMARK    3  A    between atoms: C_6  and  N_9
REMARK    4  A    between atoms: C_10  and  C_12
REMARK    5  A    between atoms: C_14  and  C_24
REMARK    6  A    between atoms: C_18  and  C_23
REMARK    7  A    between atoms: C_27  and  O_31
REMARK    8  A    between atoms: O_31  and  C_32
REMARK                            x       y       z     vdW  Elec       q    Type
REMARK                         _______ _______ _______ _____ _____    ______ ____
ROOT
ATOM      1  C   UNL     1      -3.110   3.891   1.482  0.00  0.00    +0.166 C 
ATOM      2  C   UNL     1      -2.562   3.866   0.050  0.00  0.00    +0.140 C 
ATOM      3  N   UNL     1      -3.507   3.200  -0.848  0.00  0.00    -0.272 N 
ATOM      4  N   UNL     1      -4.727   3.797  -0.897  0.00  0.00    -0.225 N 
ATOM      5  C   UNL     1      -5.665   3.697  -1.884  0.00  0.00    +0.148 A 
ATOM      6  N   UNL     1      -6.691   4.415  -1.519  0.00  0.00    -0.132 NA
ATOM      7  N   UNL     1      -6.465   4.963  -0.375  0.00  0.00    -0.121 NA
ATOM      8  C   UNL     1      -5.278   4.621   0.043  0.00  0.00    +0.209 A 
ATOM      9  S   UNL     1      -4.469   5.097   1.538  0.00  0.00    -0.069 S 
ATOM     10  C   UNL     1      -5.538   2.904  -3.159  0.00  0.00    +0.090 C 
ATOM     11  H   UNL     1      -3.118   3.099  -1.773  0.00  0.00    +0.167 HD
ENDROOT
BRANCH   2  12
ATOM     12  C   UNL     1      -1.250   3.123   0.030  0.00  0.00    -0.023 A 
ATOM     13  C   UNL     1      -1.240   1.741   0.018  0.00  0.00    +0.009 A 
ATOM     14  C   UNL     1      -0.040   1.057   0.007  0.00  0.00    +0.047 A 
ATOM     15  C   UNL     1       1.157   1.760  -0.004  0.00  0.00    +0.134 A 
ATOM     16  C   UNL     1       1.144   3.147   0.002  0.00  0.00    +0.060 A 
ATOM     17  C   UNL     1      -0.060   3.826   0.019  0.00  0.00    +0.024 A 
ATOM     18 BR   UNL     1       2.772   4.109  -0.014  0.00  0.00    -0.047 Br
BRANCH  15  19
ATOM     19  O   UNL     1       2.339   1.089  -0.021  0.00  0.00    -0.494 OA
ATOM     20  C   UNL     1       2.276  -0.338  -0.027  0.00  0.00    +0.277 C 
ENDBRANCH  15  19
ENDBRANCH   2  12
BRANCH   1  22
ATOM     21  N   UNL     1      -1.970   3.769   3.674  0.00  0.00    -0.285 N 
ATOM     22  C   UNL     1      -2.020   4.304   2.438  0.00  0.00    +0.233 C 
ATOM     23  O   UNL     1      -1.188   5.117   2.095  0.00  0.00    -0.274 OA
ATOM     24  H   UNL     1      -2.672   3.170   3.973  0.00  0.00    +0.155 HD
BRANCH  21  28
ATOM     25  C   UNL     1       1.202   4.689   6.214  0.00  0.00    -0.048 A 
ATOM     26  C   UNL     1       0.712   5.648   5.347  0.00  0.00    +0.005 A 
ATOM     27  C   UNL     1      -0.339   5.346   4.503  0.00  0.00    +0.023 A 
ATOM     28  C   UNL     1      -0.904   4.078   4.527  0.00  0.00    +0.033 A 
ATOM     29  C   UNL     1      -0.414   3.119   5.404  0.00  0.00    +0.023 A 
ATOM     30  C   UNL     1       0.642   3.425   6.240  0.00  0.00    +0.005 A 
BRANCH  25  32
ATOM     31  C   UNL     1       1.803   5.570   8.453  0.00  0.00    +0.009 C 
ATOM     32  C   UNL     1       2.349   5.022   7.133  0.00  0.00    +0.032 C 
ENDBRANCH  25  32
ENDBRANCH  21  28
ENDBRANCH   1  22
TORSDOF 5
