REMARK  Name = ZINC39665501
REMARK  9 active torsions:
REMARK  status: ('A' for Active; 'I' for Inactive)
REMARK    1  A    between atoms: C_1  and  C_2
REMARK    2  A    between atoms: C_2  and  C_4
REMARK    3  A    between atoms: C_2  and  O_29
REMARK    4  A    between atoms: C_4  and  N_5
REMARK    5  A    between atoms: C_6  and  C_8
REMARK    6  A    between atoms: C_19  and  C_21
REMARK    7  A    between atoms: O_29  and  C_30
REMARK    8  A    between atoms: C_33  and  O_36
REMARK    9  A    between atoms: O_36  and  C_37
REMARK                            x       y       z     vdW  Elec       q    Type
REMARK                         _______ _______ _______ _____ _____    ______ ____
ROOT
ATOM      1  C   UNL     1       1.446  -2.787  -1.782  0.00  0.00    +0.100 C 
ATOM      2  C   UNL     1       0.034  -3.380  -1.986  0.00  0.00    +0.121 C 
ATOM      3  N   UNL     1      -0.002  -3.781  -3.412  0.00  0.00    -0.296 N 
ATOM      4  C   UNL     1       1.346  -4.341  -3.672  0.00  0.00    +0.115 C 
ATOM      5  C   UNL     1       2.305  -3.422  -2.888  0.00  0.00    -0.004 C 
ATOM      6  C   UNL     1       2.867  -2.342  -3.807  0.00  0.00    -0.010 C 
ATOM      7  C   UNL     1       3.763  -2.994  -4.864  0.00  0.00    -0.082 C 
ATOM      8  N   UNL     1       4.855  -3.719  -4.203  0.00  0.00    +0.379 N 
ATOM      9  C   UNL     1       4.310  -4.815  -3.393  0.00  0.00    -0.082 C 
ATOM     10  C   UNL     1       3.436  -4.241  -2.274  0.00  0.00    -0.010 C 
ATOM     11  C   UNL     1      -1.028  -3.663  -4.278  0.00  0.00    +0.248 C 
ATOM     12  O   UNL     1      -2.050  -3.100  -3.937  0.00  0.00    -0.270 OA
ATOM     13  H   UNL     1       5.478  -4.096  -4.901  0.00  0.00    -0.086 HD
ATOM     14  H   UNL     1       5.366  -3.085  -3.607  0.00  0.00    -0.086 HD
ENDROOT
BRANCH  11  15
ATOM     15  C   UNL     1      -0.910  -4.216  -5.643  0.00  0.00    +0.055 A 
ATOM     16  C   UNL     1      -0.220  -5.411  -5.858  0.00  0.00    +0.016 A 
ATOM     17  C   UNL     1      -0.114  -5.923  -7.133  0.00  0.00    +0.021 A 
ATOM     18  C   UNL     1      -0.689  -5.254  -8.202  0.00  0.00    +0.042 A 
ATOM     19  C   UNL     1      -1.374  -4.069  -7.997  0.00  0.00    +0.040 A 
ATOM     20  C   UNL     1      -1.494  -3.549  -6.723  0.00  0.00    +0.054 A 
ATOM     21 CL   UNL     1      -2.360  -2.067  -6.466  0.00  0.00    -0.083 Cl
ATOM     22 CL   UNL     1      -0.549  -5.906  -9.805  0.00  0.00    -0.083 Cl
ENDBRANCH  11  15
BRANCH   1  24
ATOM     23  N   UNL     1       2.350  -0.527  -1.341  0.00  0.00    -0.312 N 
ATOM     24  C   UNL     1       1.413  -1.288  -1.940  0.00  0.00    +0.218 C 
ATOM     25  O   UNL     1       0.542  -0.767  -2.604  0.00  0.00    -0.275 OA
ATOM     26  H   UNL     1       3.046  -0.944  -0.809  0.00  0.00    +0.149 HD
BRANCH  23  27
ATOM     27  C   UNL     1       2.318   0.929  -1.494  0.00  0.00    +0.148 C 
BRANCH  27  29
ATOM     28  C   UNL     1       3.450   3.070  -0.880  0.00  0.00    +0.053 C 
ATOM     29  C   UNL     1       3.484   1.549  -0.720  0.00  0.00    +0.187 C 
BRANCH  29  30
ATOM     30  O   UNL     1       3.369   1.213   0.664  0.00  0.00    -0.488 OA
BRANCH  30  31
ATOM     31  C   UNL     1       4.515   1.216   1.397  0.00  0.00    +0.121 A 
ATOM     32  C   UNL     1       5.701   1.654   0.827  0.00  0.00    +0.049 A 
ATOM     33  C   UNL     1       6.865   1.657   1.571  0.00  0.00    +0.049 A 
ATOM     34  C   UNL     1       6.847   1.225   2.889  0.00  0.00    +0.120 A 
ATOM     35  C   UNL     1       5.660   0.788   3.459  0.00  0.00    +0.049 A 
ATOM     36  C   UNL     1       4.496   0.789   2.716  0.00  0.00    +0.049 A 
BRANCH  34  37
ATOM     37  O   UNL     1       7.992   1.228   3.621  0.00  0.00    -0.495 OA
ATOM     38  C   UNL     1       7.900   0.769   4.971  0.00  0.00    +0.277 C 
ENDBRANCH  34  37
ENDBRANCH  30  31
ENDBRANCH  29  30
ENDBRANCH  27  29
ENDBRANCH  23  27
ENDBRANCH   1  24
TORSDOF 7
