REMARK  Name = ZINC09372382
REMARK  5 active torsions:
REMARK  status: ('A' for Active; 'I' for Inactive)
REMARK    1  A    between atoms: C_1  and  C_2
REMARK    2  A    between atoms: C_6  and  N_9
REMARK    3  A    between atoms: C_7  and  C_8
REMARK    4  A    between atoms: N_9  and  C_10
REMARK    5  A    between atoms: C_10  and  N_11
REMARK                            x       y       z     vdW  Elec       q    Type
REMARK                         _______ _______ _______ _____ _____    ______ ____
ROOT
ATOM      1  N   UNL     1      -4.183   2.922   1.433  0.00  0.00    -0.225 N 
ATOM      2  C   UNL     1      -4.987   3.811   2.027  0.00  0.00    +0.227 C 
ATOM      3  O   UNL     1      -5.413   4.822   1.512  0.00  0.00    -0.275 OA
ATOM      4  C   UNL     1      -5.280   3.360   3.439  0.00  0.00    +0.095 C 
ATOM      5  C   UNL     1      -4.535   4.315   4.424  0.00  0.00    +0.025 C 
ATOM      6  C   UNL     1      -4.186   3.294   5.585  0.00  0.00    +0.016 C 
ATOM      7  C   UNL     1      -3.387   2.347   4.617  0.00  0.00    +0.025 C 
ATOM      8  C   UNL     1      -4.489   2.024   3.560  0.00  0.00    +0.095 C 
ATOM      9  C   UNL     1      -3.846   1.878   2.200  0.00  0.00    +0.227 C 
ATOM     10  O   UNL     1      -3.133   0.959   1.857  0.00  0.00    -0.275 OA
ATOM     11  C   UNL     1      -2.491   3.379   3.921  0.00  0.00    -0.027 C 
ATOM     12  C   UNL     1      -3.155   4.510   3.785  0.00  0.00    -0.027 C 
ENDROOT
BRANCH   1  13
ATOM     13  C   UNL     1      -3.714   3.075   0.054  0.00  0.00    +0.221 C 
BRANCH  13  14
ATOM     14  N   UNL     1      -2.454   3.822   0.046  0.00  0.00    -0.328 N 
ATOM     15  H   UNL     1      -2.465   4.792   0.052  0.00  0.00    +0.148 HD
BRANCH  14  21
ATOM     16  C   UNL     1       2.459   3.932   0.000  0.00  0.00    +0.044 C 
ATOM     17  C   UNL     1       1.161   3.166   0.008  0.00  0.00    -0.046 A 
ATOM     18  C   UNL     1       1.176   1.783   0.000  0.00  0.00    +0.004 A 
ATOM     19  C   UNL     1      -0.013   1.076   0.008  0.00  0.00    +0.002 A 
ATOM     20  C   UNL     1      -1.218   1.749   0.017  0.00  0.00    +0.023 A 
ATOM     21  C   UNL     1      -1.236   3.138   0.031  0.00  0.00    +0.031 A 
ATOM     22  C   UNL     1      -0.040   3.845   0.024  0.00  0.00    -0.027 A 
ATOM     23  C   UNL     1      -0.055   5.352   0.032  0.00  0.00    +0.046 C 
ENDBRANCH  14  21
ENDBRANCH  13  14
ENDBRANCH   1  13
TORSDOF 3
