REMARK  Name = ZINC12744251
REMARK  11 active torsions:
REMARK  status: ('A' for Active; 'I' for Inactive)
REMARK    1  A    between atoms: C_1  and  C_2
REMARK    2  A    between atoms: C_2  and  C_4
REMARK    3  A    between atoms: C_2  and  N_73
REMARK    4  A    between atoms: C_7  and  S_15
REMARK    5  A    between atoms: N_8  and  C_9
REMARK    6  A    between atoms: S_15  and  C_16
REMARK    7  A    between atoms: C_16  and  C_17
REMARK    8  A    between atoms: N_19  and  C_20
REMARK    9  A    between atoms: C_27  and  C_31
REMARK   10  A    between atoms: C_28  and  C_29
REMARK   11  A    between atoms: C_28  and  C_30
REMARK                            x       y       z     vdW  Elec       q    Type
REMARK                         _______ _______ _______ _____ _____    ______ ____
ROOT
ATOM      1  C   UNL     1     -10.970   3.691   4.614  0.00  0.00    +0.125 A 
ATOM      2  N   UNL     1     -10.449   3.377   3.462  0.00  0.00    -0.135 NA
ATOM      3  N   UNL     1      -9.229   3.002   3.615  0.00  0.00    -0.122 NA
ATOM      4  C   UNL     1      -8.900   3.056   4.885  0.00  0.00    +0.197 A 
ATOM      5  N   UNL     1     -10.004   3.492   5.565  0.00  0.00    -0.275 N 
ENDROOT
BRANCH   5   6
ATOM      6  C   UNL     1     -10.121   3.696   6.948  0.00  0.00    +0.050 A 
ATOM      7  C   UNL     1     -10.996   2.918   7.694  0.00  0.00    +0.026 A 
ATOM      8  C   UNL     1     -11.105   3.117   9.056  0.00  0.00    +0.002 A 
ATOM      9  C   UNL     1     -10.353   4.099   9.675  0.00  0.00    +0.000 A 
ATOM     10  C   UNL     1      -9.485   4.880   8.933  0.00  0.00    +0.002 A 
ATOM     11  C   UNL     1      -9.368   4.681   7.572  0.00  0.00    +0.026 A 
ENDBRANCH   5   6
BRANCH   1  13
ATOM     12  C   UNL     1     -12.505   5.624   4.381  0.00  0.00    -0.005 C 
ATOM     13  C   UNL     1     -12.376   4.175   4.856  0.00  0.00    -0.002 C 
BRANCH  13  19
ATOM     14  C   UNL     1     -14.706   3.753   4.353  0.00  0.00    -0.078 C 
ATOM     15  C   UNL     1     -15.648   2.948   3.455  0.00  0.00    -0.019 C 
ATOM     16  C   UNL     1     -15.490   1.457   3.763  0.00  0.00    -0.004 C 
ATOM     17  C   UNL     1     -14.028   1.053   3.553  0.00  0.00    -0.019 C 
ATOM     18  C   UNL     1     -13.132   1.912   4.448  0.00  0.00    -0.078 C 
ATOM     19  N   UNL     1     -13.314   3.334   4.085  0.00  0.00    +0.386 N 
ATOM     20  H   UNL     1     -13.118   3.449   3.083  0.00  0.00    -0.081 HD
ENDBRANCH  13  19
ENDBRANCH   1  13
BRANCH   4  21
ATOM     21  S   UNL     1      -7.337   2.638   5.581  0.00  0.00    -0.076 S 
BRANCH  21  22
ATOM     22  C   UNL     1      -6.442   2.161   4.082  0.00  0.00    +0.173 C 
BRANCH  22  23
ATOM     23  C   UNL     1      -5.037   1.753   4.444  0.00  0.00    +0.224 C 
ATOM     24  O   UNL     1      -4.677   1.781   5.601  0.00  0.00    -0.275 OA
ATOM     25  N   UNL     1      -4.182   1.355   3.481  0.00  0.00    -0.311 N 
ATOM     26  H   UNL     1      -4.470   1.333   2.555  0.00  0.00    +0.149 HD
BRANCH  25  27
ATOM     27  C   UNL     1      -2.816   0.959   3.833  0.00  0.00    +0.080 C 
ATOM     28  C   UNL     1      -1.873   1.134   2.619  0.00  0.00    +0.027 C 
ATOM     29  C   UNL     1      -1.336  -0.301   2.327  0.00  0.00    -0.003 C 
ATOM     30  C   UNL     1      -2.568  -1.070   1.759  0.00  0.00    +0.005 C 
ATOM     31  C   UNL     1      -3.511  -1.246   2.971  0.00  0.00    +0.009 C 
ATOM     32  C   UNL     1      -2.760  -0.565   4.159  0.00  0.00    -0.008 C 
ATOM     33  C   UNL     1      -1.272  -0.888   3.780  0.00  0.00    -0.025 C 
ATOM     34  C   UNL     1      -0.993  -2.393   3.780  0.00  0.00    +0.012 C 
ATOM     35  C   UNL     1      -0.278  -0.129   4.662  0.00  0.00    +0.012 C 
ATOM     36  C   UNL     1      -3.207  -0.981   5.562  0.00  0.00    +0.013 C 
ENDBRANCH  25  27
ENDBRANCH  22  23
ENDBRANCH  21  22
ENDBRANCH   4  21
TORSDOF 7
