REMARK  Name = ZINC08851284
REMARK  10 active torsions:
REMARK  status: ('A' for Active; 'I' for Inactive)
REMARK    1  A    between atoms: C_1  and  C_2
REMARK    2  A    between atoms: C_5  and  C_35
REMARK    3  A    between atoms: C_5  and  C_36
REMARK    4  A    between atoms: N_11  and  C_15
REMARK    5  A    between atoms: C_15  and  N_70
REMARK    6  A    between atoms: C_20  and  O_33
REMARK    7  A    between atoms: C_21  and  O_31
REMARK    8  A    between atoms: C_24  and  C_26
REMARK    9  A    between atoms: O_31  and  C_32
REMARK   10  A    between atoms: O_33  and  C_34
REMARK                            x       y       z     vdW  Elec       q    Type
REMARK                         _______ _______ _______ _____ _____    ______ ____
ROOT
ATOM      1  C   UNL     1       0.322  -4.536   0.565  0.00  0.00    -0.071 C 
ATOM      2  C   UNL     1       0.407  -3.156  -0.088  0.00  0.00    +0.017 C 
ATOM      3  C   UNL     1       1.614  -2.415   0.429  0.00  0.00    -0.043 A 
ATOM      4  C   UNL     1       1.672  -1.041   0.248  0.00  0.00    +0.053 A 
ATOM      5  C   UNL     1       2.767  -0.323   0.694  0.00  0.00    +0.162 A 
ATOM      6  C   UNL     1       3.810  -0.983   1.336  0.00  0.00    +0.162 A 
ATOM      7  C   UNL     1       3.744  -2.353   1.520  0.00  0.00    +0.052 A 
ATOM      8  C   UNL     1       2.645  -3.070   1.069  0.00  0.00    -0.049 A 
ATOM      9  C   UNL     1       2.616  -4.558   1.305  0.00  0.00    +0.003 C 
ATOM     10  N   UNL     1       1.637  -5.192   0.407  0.00  0.00    +0.398 N 
ATOM     11  H   UNL     1       1.952  -5.083  -0.564  0.00  0.00    -0.078 HD
ENDROOT
BRANCH   9  12
ATOM     12  C   UNL     1       3.980  -5.132   1.021  0.00  0.00    -0.019 A 
ATOM     13  C   UNL     1       4.921  -5.569   1.893  0.00  0.00    +0.010 A 
ATOM     14  C   UNL     1       6.113  -6.066   1.400  0.00  0.00    +0.008 A 
ATOM     15  C   UNL     1       6.310  -6.092   0.059  0.00  0.00    +0.045 A 
ATOM     16  S   UNL     1       4.779  -5.407  -0.552  0.00  0.00    -0.103 S 
ENDBRANCH   9  12
BRANCH   6  17
ATOM     17  O   UNL     1       4.889  -0.286   1.781  0.00  0.00    -0.491 OA
ATOM     18  C   UNL     1       5.920  -1.031   2.431  0.00  0.00    +0.277 C 
ENDBRANCH   6  17
BRANCH   5  19
ATOM     19  O   UNL     1       2.821   1.024   0.510  0.00  0.00    -0.491 OA
ATOM     20  C   UNL     1       1.714   1.633  -0.157  0.00  0.00    +0.277 C 
ENDBRANCH   5  19
BRANCH  10  21
ATOM     21  C   UNL     1       1.524  -6.635   0.717  0.00  0.00    +0.044 C 
BRANCH  21  31
ATOM     22  C   UNL     1      -3.727  -7.221  -4.008  0.00  0.00    +0.007 C 
ATOM     23  C   UNL     1      -2.598  -8.036  -3.374  0.00  0.00    -0.011 C 
ATOM     24  C   UNL     1      -3.084  -9.464  -3.115  0.00  0.00    +0.009 C 
ATOM     25  C   UNL     1      -1.954 -10.284  -2.490  0.00  0.00    -0.032 C 
ATOM     26  C   UNL     1      -1.536  -9.647  -1.162  0.00  0.00    +0.041 C 
ATOM     27  C   UNL     1      -1.073  -8.215  -1.407  0.00  0.00    +0.113 C 
ATOM     28  C   UNL     1      -2.183  -7.391  -2.050  0.00  0.00    +0.038 C 
ATOM     29  C   UNL     1      -0.622  -7.581  -0.112  0.00  0.00    +0.245 C 
ATOM     30  O   UNL     1      -1.289  -7.388   0.882  0.00  0.00    -0.273 OA
ATOM     31  N   UNL     1       0.679  -7.274  -0.295  0.00  0.00    -0.241 N 
ATOM     32  C   UNL     1       1.103  -7.632  -1.513  0.00  0.00    +0.308 C 
ATOM     33  O   UNL     1       2.240  -7.462  -1.910  0.00  0.00    -0.252 OA
ATOM     34  N   UNL     1       0.130  -8.201  -2.249  0.00  0.00    -0.285 N 
ATOM     35  C   UNL     1      -2.438 -11.713  -2.240  0.00  0.00    +0.011 C 
ATOM     36  C   UNL     1      -0.756 -10.310  -3.442  0.00  0.00    +0.011 C 
ATOM     37  H   UNL     1       0.208  -8.535  -3.156  0.00  0.00    +0.151 HD
ENDBRANCH  21  31
ENDBRANCH  10  21
TORSDOF 5
