REMARK  Name = ZINC12564606
REMARK  7 active torsions:
REMARK  status: ('A' for Active; 'I' for Inactive)
REMARK    1  A    between atoms: C_1  and  C_2
REMARK    2  A    between atoms: C_3  and  C_27
REMARK    3  A    between atoms: C_4  and  C_10
REMARK    4  A    between atoms: C_13  and  N_16
REMARK    5  A    between atoms: C_19  and  C_21
REMARK    6  A    between atoms: N_29  and  C_30
REMARK    7  A    between atoms: C_33  and  N_36
REMARK                            x       y       z     vdW  Elec       q    Type
REMARK                         _______ _______ _______ _____ _____    ______ ____
ROOT
ATOM      1  C   UNL     1       5.270  -4.398   0.210  0.00  0.00    +0.061 C 
ATOM      2  C   UNL     1       3.914  -5.050   0.126  0.00  0.00    +0.019 C 
ATOM      3  C   UNL     1       2.811  -4.278   0.036  0.00  0.00    +0.056 C 
ATOM      4  C   UNL     1       1.467  -4.973  -0.040  0.00  0.00    +0.142 C 
ATOM      5  N   UNL     1       1.475  -6.446  -0.023  0.00  0.00    -0.288 N 
ATOM      6  C   UNL     1       2.661  -7.079   0.071  0.00  0.00    +0.304 C 
ATOM      7  O   UNL     1       2.679  -8.294   0.092  0.00  0.00    -0.252 OA
ATOM      8  N   UNL     1       3.821  -6.413   0.142  0.00  0.00    -0.273 N 
ATOM      9  H   UNL     1       0.647  -6.948  -0.073  0.00  0.00    +0.151 HD
ATOM     10  H   UNL     1       4.641  -6.927   0.208  0.00  0.00    +0.156 HD
ENDROOT
BRANCH   4  11
ATOM     11  C   UNL     1       0.787  -4.533  -1.311  0.00  0.00    -0.022 A 
ATOM     12  C   UNL     1       1.171  -5.079  -2.522  0.00  0.00    +0.007 A 
ATOM     13  C   UNL     1       0.546  -4.682  -3.689  0.00  0.00    +0.025 A 
ATOM     14  C   UNL     1      -0.460  -3.724  -3.645  0.00  0.00    +0.052 A 
ATOM     15  C   UNL     1      -0.838  -3.174  -2.426  0.00  0.00    +0.025 A 
ATOM     16  C   UNL     1      -0.214  -3.580  -1.263  0.00  0.00    +0.007 A 
BRANCH  14  17
ATOM     17  N   UNL     1      -1.088  -3.316  -4.822  0.00  0.00    -0.224 N 
ATOM     18  C   UNL     1      -0.781  -3.812  -6.173  0.00  0.00    +0.138 C 
ATOM     19  C   UNL     1      -1.760  -3.035  -7.075  0.00  0.00    +0.078 C 
ATOM     20  C   UNL     1      -2.526  -2.158  -6.111  0.00  0.00    +0.068 C 
ATOM     21  N   UNL     1      -2.105  -2.367  -4.911  0.00  0.00    -0.184 NA
BRANCH  20  22
ATOM     22  C   UNL     1      -3.591  -1.209  -6.485  0.00  0.00    -0.002 A 
ATOM     23  C   UNL     1      -3.960  -1.062  -7.824  0.00  0.00    +0.010 A 
ATOM     24  C   UNL     1      -4.961  -0.176  -8.167  0.00  0.00    +0.001 A 
ATOM     25  C   UNL     1      -5.591   0.574  -7.189  0.00  0.00    +0.000 A 
ATOM     26  C   UNL     1      -5.226   0.437  -5.861  0.00  0.00    +0.001 A 
ATOM     27  C   UNL     1      -4.231  -0.449  -5.503  0.00  0.00    +0.010 A 
ENDBRANCH  20  22
ENDBRANCH  14  17
ENDBRANCH   4  11
BRANCH   3  28
ATOM     28  C   UNL     1       2.906  -2.864   0.020  0.00  0.00    +0.248 C 
ATOM     29  O   UNL     1       2.591  -2.221   1.005  0.00  0.00    -0.270 OA
ATOM     30  N   UNL     1       3.345  -2.231  -1.086  0.00  0.00    -0.282 N 
ATOM     31  H   UNL     1       3.477  -2.727  -1.908  0.00  0.00    +0.155 HD
BRANCH  30  32
ATOM     32  C   UNL     1       3.609  -0.858  -1.047  0.00  0.00    +0.034 A 
ATOM     33  C   UNL     1       4.621  -0.322  -1.833  0.00  0.00    +0.025 A 
ATOM     34  C   UNL     1       4.879   1.034  -1.793  0.00  0.00    +0.034 A 
ATOM     35  C   UNL     1       4.132   1.858  -0.971  0.00  0.00    +0.126 A 
ATOM     36  C   UNL     1       3.125   1.327  -0.186  0.00  0.00    +0.034 A 
ATOM     37  C   UNL     1       2.861  -0.028  -0.222  0.00  0.00    +0.025 A 
BRANCH  35  38
ATOM     38  N   UNL     1       4.412   3.311  -0.930  0.00  0.00    +0.056 N 
ATOM     39  O   UNL     1       5.299   3.780  -1.620  0.00  0.00    -0.126 OA
ATOM     40  O   UNL     1       3.755   4.037  -0.206  0.00  0.00    -0.126 OA
ENDBRANCH  35  38
ENDBRANCH  30  32
ENDBRANCH   3  28
TORSDOF 6
