REMARK  Name = ZINC16610353
REMARK  11 active torsions:
REMARK  status: ('A' for Active; 'I' for Inactive)
REMARK    1  A    between atoms: C_1  and  C_2
REMARK    2  A    between atoms: C_2  and  N_3
REMARK    3  A    between atoms: C_4  and  C_35
REMARK    4  A    between atoms: C_5  and  C_30
REMARK    5  A    between atoms: C_6  and  C_11
REMARK    6  A    between atoms: C_14  and  N_17
REMARK    7  A    between atoms: N_20  and  C_21
REMARK    8  A    between atoms: C_24  and  N_27
REMARK    9  A    between atoms: C_30  and  O_32
REMARK   10  A    between atoms: O_32  and  C_33
REMARK   11  A    between atoms: C_33  and  C_34
REMARK                            x       y       z     vdW  Elec       q    Type
REMARK                         _______ _______ _______ _____ _____    ______ ____
ROOT
ATOM      1  C   UNL     1       0.130   3.500   0.847  0.00  0.00    -0.022 A 
ATOM      2  C   UNL     1       0.638   3.105   2.071  0.00  0.00    +0.007 A 
ATOM      3  C   UNL     1      -0.132   3.226   3.212  0.00  0.00    +0.024 A 
ATOM      4  C   UNL     1      -1.421   3.735   3.127  0.00  0.00    +0.035 A 
ATOM      5  C   UNL     1      -1.931   4.125   1.895  0.00  0.00    +0.024 A 
ATOM      6  C   UNL     1      -1.154   4.007   0.759  0.00  0.00    +0.007 A 
ENDROOT
BRANCH   1  10
ATOM      7  N   UNL     1       3.276   1.861  -0.657  0.00  0.00    -0.286 N 
ATOM      8  C   UNL     1       2.088   1.258  -0.955  0.00  0.00    +0.021 C 
ATOM      9  C   UNL     1       0.920   1.928  -0.849  0.00  0.00    +0.078 C 
ATOM     10  C   UNL     1       0.974   3.372  -0.394  0.00  0.00    +0.141 C 
ATOM     11  N   UNL     1       2.304   3.927  -0.092  0.00  0.00    -0.315 N 
ATOM     12  C   UNL     1       3.381   3.131  -0.246  0.00  0.00    +0.138 C 
ATOM     13  S   UNL     1       4.934   3.764   0.095  0.00  0.00    -0.018 S 
ATOM     14  C   UNL     1       2.080  -0.179  -1.409  0.00  0.00    +0.061 C 
ATOM     15  H   UNL     1       2.404   4.844   0.206  0.00  0.00    +0.149 HD
BRANCH   7  17
ATOM     16  C   UNL     1       4.972   1.110  -2.251  0.00  0.00    +0.025 C 
ATOM     17  C   UNL     1       4.504   1.074  -0.795  0.00  0.00    +0.109 C 
ENDBRANCH   7  17
BRANCH   9  18
ATOM     18  C   UNL     1      -0.311   1.304  -1.159  0.00  0.00    +0.339 C 
ATOM     19  O   UNL     1      -0.324   0.175  -1.613  0.00  0.00    -0.245 OA
BRANCH  18  20
ATOM     20  O   UNL     1      -1.471   1.963  -0.955  0.00  0.00    -0.462 OA
BRANCH  20  21
ATOM     21  C   UNL     1      -2.676   1.275  -1.295  0.00  0.00    +0.229 C 
ATOM     22  C   UNL     1      -3.878   2.173  -0.996  0.00  0.00    +0.048 C 
ENDBRANCH  20  21
ENDBRANCH  18  20
ENDBRANCH   9  18
ENDBRANCH   1  10
BRANCH   4  23
ATOM     23  N   UNL     1      -2.205   3.854   4.279  0.00  0.00    -0.269 N 
ATOM     24  C   UNL     1      -1.624   4.128   5.464  0.00  0.00    +0.308 C 
ATOM     25  O   UNL     1      -0.433   4.367   5.516  0.00  0.00    -0.252 OA
ATOM     26  N   UNL     1      -2.363   4.136   6.591  0.00  0.00    -0.269 N 
ATOM     27  H   UNL     1      -3.167   3.740   4.226  0.00  0.00    +0.156 HD
ATOM     28  H   UNL     1      -3.295   3.868   6.562  0.00  0.00    +0.156 HD
BRANCH  26  29
ATOM     29  C   UNL     1      -1.786   4.529   7.804  0.00  0.00    +0.035 A 
ATOM     30  C   UNL     1      -2.205   3.950   8.995  0.00  0.00    +0.025 A 
ATOM     31  C   UNL     1      -1.630   4.338  10.189  0.00  0.00    +0.034 A 
ATOM     32  C   UNL     1      -0.645   5.309  10.201  0.00  0.00    +0.126 A 
ATOM     33  C   UNL     1      -0.229   5.891   9.018  0.00  0.00    +0.034 A 
ATOM     34  C   UNL     1      -0.797   5.504   7.819  0.00  0.00    +0.025 A 
BRANCH  32  35
ATOM     35  N   UNL     1      -0.035   5.726  11.484  0.00  0.00    +0.056 N 
ATOM     36  O   UNL     1       0.832   6.581  11.496  0.00  0.00    -0.126 OA
ATOM     37  O   UNL     1      -0.401   5.214  12.527  0.00  0.00    -0.126 OA
ENDBRANCH  32  35
ENDBRANCH  26  29
ENDBRANCH   4  23
TORSDOF 8
