REMARK  Name = ZINC38604671
REMARK  8 active torsions:
REMARK  status: ('A' for Active; 'I' for Inactive)
REMARK    1  A    between atoms: C_1  and  C_2
REMARK    2  A    between atoms: C_3  and  S_9
REMARK    3  A    between atoms: S_9  and  N_12
REMARK    4  A    between atoms: N_12  and  C_13
REMARK    5  A    between atoms: C_13  and  C_14
REMARK    6  A    between atoms: C_14  and  C_16
REMARK    7  A    between atoms: C_14  and  N_21
REMARK    8  A    between atoms: N_24  and  C_27
REMARK                            x       y       z     vdW  Elec       q    Type
REMARK                         _______ _______ _______ _____ _____    ______ ____
ROOT
ATOM      1  C   UNL     1      -3.038   2.173  -2.685  0.00  0.00    +0.015 C 
ENDROOT
BRANCH   1   2
ATOM      2  N   UNL     1      -4.141   1.205  -2.623  0.00  0.00    +0.389 N 
ATOM      3  C   UNL     1      -3.718  -0.057  -3.242  0.00  0.00    -0.059 C 
ATOM      4  C   UNL     1      -4.826  -1.103  -3.076  0.00  0.00    +0.086 C 
ATOM      5  N   UNL     1      -6.075  -0.549  -3.619  0.00  0.00    -0.333 N 
ATOM      6  C   UNL     1      -6.492   0.790  -3.174  0.00  0.00    +0.086 C 
ATOM      7  C   UNL     1      -5.306   1.746  -3.335  0.00  0.00    -0.059 C 
ATOM      8  H   UNL     1      -4.387   1.038  -1.658  0.00  0.00    -0.081 HD
BRANCH   5   9
ATOM      9  C   UNL     1      -6.846  -1.275  -4.533  0.00  0.00    +0.030 A 
ATOM     10  C   UNL     1      -6.510  -2.587  -4.838  0.00  0.00    +0.026 A 
ATOM     11  C   UNL     1      -7.272  -3.302  -5.741  0.00  0.00    +0.040 A 
ATOM     12  C   UNL     1      -8.371  -2.711  -6.342  0.00  0.00    +0.124 A 
ATOM     13  C   UNL     1      -8.708  -1.403  -6.039  0.00  0.00    +0.040 A 
ATOM     14  C   UNL     1      -7.951  -0.686  -5.133  0.00  0.00    +0.026 A 
ATOM     15  F   UNL     1      -9.115  -3.412  -7.225  0.00  0.00    -0.205 F 
ENDBRANCH   5   9
ENDBRANCH   1   2
BRANCH   1  16
ATOM     16  C   UNL     1      -3.440   3.439  -1.974  0.00  0.00    +0.093 A 
ATOM     17  C   UNL     1      -3.168   4.692  -2.382  0.00  0.00    +0.043 A 
ATOM     18  C   UNL     1      -3.728   5.567  -1.423  0.00  0.00    +0.041 A 
ATOM     19  C   UNL     1      -4.309   4.797  -0.486  0.00  0.00    +0.195 A 
ATOM     20  O   UNL     1      -4.136   3.509  -0.827  0.00  0.00    -0.469 OA
ENDBRANCH   1  16
BRANCH   1  21
ATOM     21  C   UNL     1      -1.800   1.580  -2.009  0.00  0.00    +0.098 C 
BRANCH  21  22
ATOM     22  N   UNL     1      -2.146   1.143  -0.654  0.00  0.00    -0.191 NA
ATOM     23  H   UNL     1      -2.963   1.458  -0.236  0.00  0.00    +0.148 HD
BRANCH  22  24
ATOM     24  S   UNL     1      -1.142   0.111   0.165  0.00  0.00    +0.059 S 
ATOM     25  O   UNL     1      -0.857  -0.965  -0.719  0.00  0.00    -0.153 OA
ATOM     26  O   UNL     1      -1.723  -0.090   1.446  0.00  0.00    -0.153 OA
BRANCH  24  29
ATOM     27  C   UNL     1      -0.871   2.632   1.815  0.00  0.00    +0.047 C 
ATOM     28  C   UNL     1       0.402   2.110   1.200  0.00  0.00    -0.006 A 
ATOM     29  C   UNL     1       0.377   0.963   0.429  0.00  0.00    +0.110 A 
ATOM     30  C   UNL     1       1.545   0.484  -0.135  0.00  0.00    +0.029 A 
ATOM     31  C   UNL     1       2.738   1.151   0.072  0.00  0.00    +0.003 A 
ATOM     32  C   UNL     1       2.764   2.298   0.843  0.00  0.00    +0.020 A 
ATOM     33  C   UNL     1       1.594   2.781   1.403  0.00  0.00    +0.046 A 
ATOM     34 CL   UNL     1       1.624   4.225   2.366  0.00  0.00    -0.083 Cl
ENDBRANCH  24  29
ENDBRANCH  22  24
ENDBRANCH  21  22
ENDBRANCH   1  21
TORSDOF 7
