REMARK  Name = ZINC11783217
REMARK  9 active torsions:
REMARK  status: ('A' for Active; 'I' for Inactive)
REMARK    1  A    between atoms: C_1  and  C_2
REMARK    2  A    between atoms: C_5  and  C_7
REMARK    3  A    between atoms: C_7  and  N_67
REMARK    4  A    between atoms: C_10  and  C_13
REMARK    5  A    between atoms: C_13  and  C_28
REMARK    6  A    between atoms: N_16  and  C_20
REMARK    7  A    between atoms: C_20  and  C_21
REMARK    8  A    between atoms: C_21  and  C_22
REMARK    9  A    between atoms: C_28  and  C_29
REMARK                            x       y       z     vdW  Elec       q    Type
REMARK                         _______ _______ _______ _____ _____    ______ ____
ROOT
ATOM      1  C   UNL     1       5.818  -1.842  -5.181  0.00  0.00    +0.119 C 
ATOM      2  C   UNL     1       5.650  -0.448  -5.751  0.00  0.00    +0.247 C 
ATOM      3  O   UNL     1       4.621   0.187  -5.842  0.00  0.00    -0.273 OA
ATOM      4  N   UNL     1       6.887  -0.063  -6.136  0.00  0.00    -0.224 N 
ATOM      5  C   UNL     1       7.798  -1.013  -5.892  0.00  0.00    +0.309 C 
ATOM      6  O   UNL     1       8.979  -0.898  -6.152  0.00  0.00    -0.252 OA
ATOM      7  N   UNL     1       7.259  -2.108  -5.325  0.00  0.00    -0.284 N 
ATOM      8  H   UNL     1       7.729  -2.915  -5.064  0.00  0.00    +0.151 HD
ENDROOT
BRANCH   1  11
ATOM      9  C   UNL     1       3.509  -1.615  -2.108  0.00  0.00    -0.078 C 
ATOM     10  C   UNL     1       3.901  -1.642  -3.587  0.00  0.00    -0.013 C 
ATOM     11  C   UNL     1       5.410  -1.874  -3.707  0.00  0.00    +0.018 C 
ATOM     12  C   UNL     1       6.149  -0.769  -2.947  0.00  0.00    -0.013 C 
ATOM     13  C   UNL     1       5.693  -0.767  -1.487  0.00  0.00    -0.078 C 
ATOM     14  N   UNL     1       4.237  -0.515  -1.439  0.00  0.00    +0.383 N 
ATOM     15  H   UNL     1       4.035   0.364  -1.929  0.00  0.00    -0.081 HD
BRANCH  14  16
ATOM     16  C   UNL     1       3.791  -0.395  -0.036  0.00  0.00    -0.036 C 
BRANCH  16  21
ATOM     17  C   UNL     1      -1.200   2.284   0.020  0.00  0.00    +0.051 C 
ATOM     18  C   UNL     1      -0.016   1.351   0.009  0.00  0.00    -0.013 A 
ATOM     19  C   UNL     1       0.002  -0.004   0.002  0.00  0.00    +0.011 A 
ATOM     20  C   UNL     1       1.220  -0.658  -0.013  0.00  0.00    +0.009 A 
ATOM     21  C   UNL     1       2.360   0.076  -0.020  0.00  0.00    -0.026 A 
ATOM     22  S   UNL     1       1.725   1.744  -0.005  0.00  0.00    -0.100 S 
ENDBRANCH  16  21
ENDBRANCH  14  16
ENDBRANCH   1  11
BRANCH   4  23
ATOM     23  C   UNL     1       7.192   1.232  -6.747  0.00  0.00    +0.124 C 
BRANCH  23  24
ATOM     24  C   UNL     1       7.064   1.122  -8.268  0.00  0.00    +0.075 C 
BRANCH  24  25
ATOM     25  C   UNL     1       7.378   2.455  -8.896  0.00  0.00    +0.043 A 
ATOM     26  C   UNL     1       8.358   2.538  -9.868  0.00  0.00    +0.023 A 
ATOM     27  C   UNL     1       8.639   3.769 -10.441  0.00  0.00    +0.003 A 
ATOM     28  C   UNL     1       7.921   4.875 -10.012  0.00  0.00    +0.020 A 
ATOM     29  C   UNL     1       6.956   4.715  -9.037  0.00  0.00    +0.111 A 
ATOM     30  N   UNL     1       6.712   3.527  -8.518  0.00  0.00    -0.260 NA
ENDBRANCH  24  25
ENDBRANCH  23  24
ENDBRANCH   4  23
BRANCH   1  31
ATOM     31  C   UNL     1       5.000  -2.855  -5.986  0.00  0.00    +0.070 C 
BRANCH  31  32
ATOM     32  C   UNL     1       5.504  -2.892  -7.406  0.00  0.00    -0.045 A 
ATOM     33  C   UNL     1       4.956  -2.051  -8.356  0.00  0.00    +0.004 A 
ATOM     34  C   UNL     1       5.421  -2.082  -9.657  0.00  0.00    +0.000 A 
ATOM     35  C   UNL     1       6.428  -2.961 -10.011  0.00  0.00    +0.000 A 
ATOM     36  C   UNL     1       6.973  -3.805  -9.062  0.00  0.00    +0.000 A 
ATOM     37  C   UNL     1       6.511  -3.771  -7.759  0.00  0.00    +0.004 A 
ENDBRANCH  31  32
ENDBRANCH   1  31
TORSDOF 8
