REMARK  Name = ZINC64538243
REMARK  7 active torsions:
REMARK  status: ('A' for Active; 'I' for Inactive)
REMARK    1  A    between atoms: C_1  and  C_2
REMARK    2  A    between atoms: C_8  and  C_11
REMARK    3  A    between atoms: C_11  and  C_12
REMARK    4  A    between atoms: C_12  and  N_13
REMARK    5  A    between atoms: C_14  and  C_16
REMARK    6  A    between atoms: C_16  and  N_17
REMARK    7  A    between atoms: C_21  and  C_28
REMARK                            x       y       z     vdW  Elec       q    Type
REMARK                         _______ _______ _______ _____ _____    ______ ____
ROOT
ATOM      1  C   UNL     1      -2.534  -2.338   7.783  0.00  0.00    +0.205 C 
ENDROOT
BRANCH   1   2
ATOM      2  N   UNL     1      -3.908  -2.390   8.291  0.00  0.00    -0.272 N 
ATOM      3  C   UNL     1      -4.780  -1.213   8.349  0.00  0.00    +0.190 C 
ATOM      4  C   UNL     1      -4.426  -0.126   7.370  0.00  0.00    +0.037 C 
ATOM      5  C   UNL     1      -5.582   0.198   6.762  0.00  0.00    +0.048 C 
ATOM      6  N   UNL     1      -6.634  -0.573   7.287  0.00  0.00    -0.275 N 
ATOM      7  N   UNL     1      -6.085  -1.701   7.810  0.00  0.00    -0.204 NA
ATOM      8  C   UNL     1      -6.771  -2.459   8.834  0.00  0.00    +0.117 C 
ATOM      9  C   UNL     1      -5.838  -3.534   9.394  0.00  0.00    +0.113 C 
ATOM     10  C   UNL     1      -4.486  -3.537   8.743  0.00  0.00    +0.219 C 
ATOM     11  O   UNL     1      -3.891  -4.587   8.621  0.00  0.00    -0.275 OA
ATOM     12  H   UNL     1      -7.577  -0.343   7.284  0.00  0.00    +0.167 HD
BRANCH   5  13
ATOM     13  C   UNL     1      -5.725   1.218   5.698  0.00  0.00    -0.002 A 
ATOM     14  C   UNL     1      -4.608   1.923   5.249  0.00  0.00    +0.010 A 
ATOM     15  C   UNL     1      -4.747   2.872   4.257  0.00  0.00    +0.002 A 
ATOM     16  C   UNL     1      -5.991   3.125   3.707  0.00  0.00    +0.020 A 
ATOM     17  C   UNL     1      -7.103   2.430   4.148  0.00  0.00    +0.042 A 
ATOM     18  C   UNL     1      -6.975   1.474   5.137  0.00  0.00    +0.029 A 
ATOM     19 CL   UNL     1      -8.660   2.755   3.453  0.00  0.00    -0.084 Cl
ENDBRANCH   5  13
ENDBRANCH   1   2
BRANCH   1  21
ATOM     20  N   UNL     1      -1.377  -2.600   5.613  0.00  0.00    -0.314 N 
ATOM     21  C   UNL     1      -2.537  -2.599   6.299  0.00  0.00    +0.230 C 
ATOM     22  O   UNL     1      -3.583  -2.808   5.722  0.00  0.00    -0.274 OA
ATOM     23  H   UNL     1      -0.540  -2.433   6.075  0.00  0.00    +0.149 HD
BRANCH  20  24
ATOM     24  C   UNL     1      -1.379  -2.854   4.170  0.00  0.00    +0.108 C 
BRANCH  24  25
ATOM     25  C   UNL     1       0.055  -2.799   3.641  0.00  0.00    +0.052 C 
BRANCH  25  33
ATOM     26  C   UNL     1      -0.018   1.503   0.010  0.00  0.00    +0.044 C 
ATOM     27  C   UNL     1       0.002  -0.004   0.002  0.00  0.00    -0.050 A 
ATOM     28  C   UNL     1       0.005  -0.680  -1.226  0.00  0.00    +0.005 A 
ATOM     29  C   UNL     1       0.023  -2.026  -1.317  0.00  0.00    +0.026 A 
ATOM     30  C   UNL     1       0.039  -2.826  -0.141  0.00  0.00    +0.043 A 
ATOM     31  N   UNL     1       0.057  -4.126   0.030  0.00  0.00    -0.380 N 
ATOM     32  C   UNL     1       0.067  -4.408   1.470  0.00  0.00    +0.144 C 
ATOM     33  C   UNL     1       0.052  -3.060   2.156  0.00  0.00    -0.040 C 
ATOM     34  C   UNL     1       0.036  -2.137   1.168  0.00  0.00    -0.001 A 
ATOM     35  C   UNL     1       0.022  -0.669   1.180  0.00  0.00    +0.013 A 
ATOM     36  H   UNL     1       0.062  -4.790  -0.677  0.00  0.00    +0.160 HD
ENDBRANCH  25  33
ENDBRANCH  24  25
ENDBRANCH  20  24
ENDBRANCH   1  21
TORSDOF 6
