REMARK  Name = ZINC18177390
REMARK  5 active torsions:
REMARK  status: ('A' for Active; 'I' for Inactive)
REMARK    1  A    between atoms: C_1  and  S_2
REMARK    2  A    between atoms: S_2  and  C_3
REMARK    3  A    between atoms: C_6  and  C_9
REMARK    4  A    between atoms: N_17  and  C_20
REMARK    5  A    between atoms: N_28  and  C_29
REMARK                            x       y       z     vdW  Elec       q    Type
REMARK                         _______ _______ _______ _____ _____    ______ ____
ROOT
ATOM      1  C   UNL     1      -5.805  -1.588   0.078  0.00  0.00    +0.157 C 
ATOM      2  C   UNL     1      -6.278  -1.985  -1.339  0.00  0.00    +0.145 C 
ATOM      3  C   UNL     1      -6.195  -3.535  -1.326  0.00  0.00    +0.249 C 
ATOM      4  C   UNL     1      -5.133  -3.835  -2.362  0.00  0.00    +0.259 C 
ATOM      5  O   UNL     1      -4.768  -4.943  -2.691  0.00  0.00    -0.272 OA
ATOM      6  N   UNL     1      -4.660  -2.686  -2.858  0.00  0.00    -0.208 N 
ATOM      7  C   UNL     1      -5.235  -1.569  -2.350  0.00  0.00    +0.235 C 
ATOM      8  O   UNL     1      -4.964  -0.425  -2.647  0.00  0.00    -0.274 OA
ATOM      9  O   UNL     1      -5.705  -3.886  -0.019  0.00  0.00    -0.257 OA
ATOM     10  N   UNL     1      -6.048  -2.821   0.866  0.00  0.00    -0.244 N 
ENDROOT
BRANCH   6  11
ATOM     11  C   UNL     1      -3.652  -2.638  -3.832  0.00  0.00    +0.044 A 
ATOM     12  C   UNL     1      -2.367  -3.063  -3.524  0.00  0.00    +0.027 A 
ATOM     13  C   UNL     1      -1.375  -3.016  -4.484  0.00  0.00    +0.040 A 
ATOM     14  C   UNL     1      -1.663  -2.544  -5.754  0.00  0.00    +0.124 A 
ATOM     15  C   UNL     1      -2.944  -2.120  -6.064  0.00  0.00    +0.040 A 
ATOM     16  C   UNL     1      -3.939  -2.171  -5.107  0.00  0.00    +0.027 A 
ATOM     17  F   UNL     1      -0.692  -2.498  -6.692  0.00  0.00    -0.205 F 
ENDBRANCH   6  11
BRANCH   1  21
ATOM     18  C   UNL     1      -1.647  -0.594   0.065  0.00  0.00    +0.008 A 
ATOM     19  C   UNL     1      -2.604   0.413   0.099  0.00  0.00    +0.015 A 
ATOM     20  C   UNL     1      -3.946   0.089   0.103  0.00  0.00    +0.007 A 
ATOM     21  C   UNL     1      -4.339  -1.237   0.073  0.00  0.00    -0.022 A 
ATOM     22  C   UNL     1      -3.389  -2.242   0.040  0.00  0.00    +0.007 A 
ATOM     23  C   UNL     1      -2.046  -1.925   0.029  0.00  0.00    +0.015 A 
BRANCH  18  25
ATOM     24  C   UNL     1       0.084   1.629   0.114  0.00  0.00    +0.090 C 
ATOM     25  S   UNL     1       0.066  -0.184   0.059  0.00  0.00    -0.129 S 
ENDBRANCH  18  25
ENDBRANCH   1  21
BRANCH  10  26
ATOM     26  C   UNL     1      -6.520  -2.918   2.177  0.00  0.00    +0.065 A 
ATOM     27  C   UNL     1      -6.826  -1.768   2.894  0.00  0.00    +0.028 A 
ATOM     28  C   UNL     1      -7.294  -1.868   4.189  0.00  0.00    +0.002 A 
ATOM     29  C   UNL     1      -7.457  -3.111   4.773  0.00  0.00    +0.000 A 
ATOM     30  C   UNL     1      -7.153  -4.258   4.062  0.00  0.00    +0.002 A 
ATOM     31  C   UNL     1      -6.691  -4.165   2.764  0.00  0.00    +0.028 A 
ENDBRANCH  10  26
TORSDOF 4
