REMARK  Name = ZINC04545408
REMARK  5 active torsions:
REMARK  status: ('A' for Active; 'I' for Inactive)
REMARK    1  A    between atoms: C_1  and  C_2
REMARK    2  A    between atoms: C_2  and  C_3
REMARK    3  A    between atoms: C_12  and  O_26
REMARK    4  A    between atoms: C_14  and  C_17
REMARK    5  A    between atoms: C_22  and  N_23
REMARK                            x       y       z     vdW  Elec       q    Type
REMARK                         _______ _______ _______ _____ _____    ______ ____
ROOT
ATOM      1  C   UNL     1       0.218  -2.245  -1.657  0.00  0.00    -0.006 C 
ATOM      2  C   UNL     1       0.264  -3.721  -2.062  0.00  0.00    +0.008 C 
ATOM      3  C   UNL     1       0.888  -3.860  -3.453  0.00  0.00    +0.037 C 
ATOM      4  C   UNL     1       2.220  -3.125  -3.466  0.00  0.00    -0.023 A 
ATOM      5  C   UNL     1       2.517  -2.197  -2.527  0.00  0.00    -0.004 A 
ATOM      6  S   UNL     1       4.142  -1.630  -2.950  0.00  0.00    -0.078 S 
ATOM      7  C   UNL     1       4.416  -2.561  -4.294  0.00  0.00    +0.080 A 
ATOM      8  C   UNL     1       3.264  -3.340  -4.451  0.00  0.00    +0.068 A 
ATOM      9  C   UNL     1       3.234  -4.297  -5.588  0.00  0.00    +0.220 C 
ATOM     10  N   UNL     1       4.157  -4.179  -6.503  0.00  0.00    -0.223 NA
ATOM     11  C   UNL     1       5.175  -3.136  -6.521  0.00  0.00    +0.226 C 
ATOM     12  N   UNL     1       5.481  -2.651  -5.163  0.00  0.00    -0.313 N 
ATOM     13  C   UNL     1       1.649  -1.756  -1.390  0.00  0.00    +0.046 C 
ATOM     14  H   UNL     1       6.381  -2.409  -4.896  0.00  0.00    +0.149 HD
ENDROOT
BRANCH  11  15
ATOM     15  C   UNL     1       4.681  -1.981  -7.354  0.00  0.00    +0.025 A 
ATOM     16  C   UNL     1       3.324  -1.788  -7.532  0.00  0.00    +0.009 A 
ATOM     17  C   UNL     1       2.871  -0.729  -8.296  0.00  0.00    +0.001 A 
ATOM     18  C   UNL     1       3.775   0.137  -8.882  0.00  0.00    +0.002 A 
ATOM     19  C   UNL     1       5.132  -0.056  -8.704  0.00  0.00    +0.033 A 
ATOM     20  C   UNL     1       5.585  -1.113  -7.936  0.00  0.00    +0.133 A 
BRANCH  20  21
ATOM     21  N   UNL     1       7.038  -1.316  -7.741  0.00  0.00    +0.057 N 
ATOM     22  O   UNL     1       7.831  -0.630  -8.344  0.00  0.00    -0.126 OA
ATOM     23  O   UNL     1       7.432  -2.169  -6.980  0.00  0.00    -0.126 OA
ENDBRANCH  20  21
ENDBRANCH  11  15
BRANCH   1  25
ATOM     24  C   UNL     1      -0.766  -0.602  -0.052  0.00  0.00    +0.004 C 
ATOM     25  C   UNL     1      -0.623  -2.088  -0.388  0.00  0.00    +0.000 C 
ENDBRANCH   1  25
BRANCH   9  26
ATOM     26  O   UNL     1       2.284  -5.256  -5.671  0.00  0.00    -0.492 OA
ATOM     27  H   UNL     1       2.362  -5.821  -6.452  0.00  0.00    +0.294 HD
ENDBRANCH   9  26
TORSDOF 4
