REMARK  Name = ZINC47145538
REMARK  5 active torsions:
REMARK  status: ('A' for Active; 'I' for Inactive)
REMARK    1  A    between atoms: C_1  and  N_2
REMARK    2  A    between atoms: N_2  and  C_3
REMARK    3  A    between atoms: N_2  and  C_4
REMARK    4  A    between atoms: C_7  and  C_10
REMARK    5  A    between atoms: N_26  and  C_29
REMARK                            x       y       z     vdW  Elec       q    Type
REMARK                         _______ _______ _______ _____ _____    ______ ____
ROOT
ATOM      1  C   UNL     1      -4.870  -2.906   0.033  0.00  0.00    +0.072 C 
ATOM      2  C   UNL     1      -5.532  -2.691   1.346  0.00  0.00    +0.033 A 
ATOM      3  C   UNL     1      -6.815  -2.377   1.600  0.00  0.00    +0.088 A 
ATOM      4  N   UNL     1      -7.133  -2.276   2.936  0.00  0.00    -0.311 N 
ATOM      5  H   UNL     1      -8.043  -2.073   3.203  0.00  0.00    +0.170 HD
ATOM      6  C   UNL     1      -6.183  -2.460   3.870  0.00  0.00    +0.289 A 
ATOM      7  O   UNL     1      -6.294  -2.401   5.082  0.00  0.00    -0.260 OA
ATOM      8  S   UNL     1      -4.807  -2.792   2.963  0.00  0.00    -0.030 S 
ATOM      9  S   UNL     1      -7.973  -2.098   0.285  0.00  0.00    -0.093 S 
ATOM     10  C   UNL     1      -7.158  -2.821  -1.174  0.00  0.00    +0.152 C 
ATOM     11  C   UNL     1      -5.659  -2.500  -1.153  0.00  0.00    +0.110 C 
ATOM     12  C   UNL     1      -5.598  -1.080  -1.621  0.00  0.00    +0.232 C 
ATOM     13  O   UNL     1      -4.744  -0.260  -1.360  0.00  0.00    -0.274 OA
ATOM     14  N   UNL     1      -6.692  -0.897  -2.398  0.00  0.00    -0.209 N 
ATOM     15  C   UNL     1      -7.568  -1.925  -2.356  0.00  0.00    +0.240 C 
ATOM     16  O   UNL     1      -8.506  -2.103  -3.102  0.00  0.00    -0.274 OA
ENDROOT
BRANCH  14  17
ATOM     17  C   UNL     1      -6.893   0.248  -3.181  0.00  0.00    +0.044 A 
ATOM     18  C   UNL     1      -5.942   1.260  -3.189  0.00  0.00    +0.025 A 
ATOM     19  C   UNL     1      -6.142   2.388  -3.962  0.00  0.00    +0.017 A 
ATOM     20  C   UNL     1      -7.288   2.509  -4.727  0.00  0.00    +0.018 A 
ATOM     21  C   UNL     1      -8.237   1.502  -4.721  0.00  0.00    +0.017 A 
ATOM     22  C   UNL     1      -8.039   0.370  -3.955  0.00  0.00    +0.025 A 
ATOM     23 BR   UNL     1      -7.559   4.054  -5.783  0.00  0.00    -0.050 Br
ENDBRANCH  14  17
BRANCH   1  27
ATOM     24  C   UNL     1      -1.198  -0.718   0.010  0.00  0.00    +0.029 A 
ATOM     25  C   UNL     1      -1.298  -1.919  -0.682  0.00  0.00    +0.023 A 
ATOM     26  C   UNL     1      -2.485  -2.623  -0.672  0.00  0.00    +0.006 A 
ATOM     27  C   UNL     1      -3.575  -2.135   0.025  0.00  0.00    -0.038 A 
ATOM     28  C   UNL     1      -3.480  -0.940   0.715  0.00  0.00    +0.006 A 
ATOM     29  C   UNL     1      -2.293  -0.233   0.714  0.00  0.00    +0.023 A 
BRANCH  24  31
ATOM     30  C   UNL     1       0.106   1.260   0.737  0.00  0.00    +0.129 C 
ATOM     31  N   UNL     1       0.002  -0.003   0.002  0.00  0.00    -0.336 N 
ATOM     32  C   UNL     1       1.155  -0.516  -0.740  0.00  0.00    +0.129 C 
ENDBRANCH  24  31
ENDBRANCH   1  27
TORSDOF 3
