REMARK  Name = ZINC39665751
REMARK  14 active torsions:
REMARK  status: ('A' for Active; 'I' for Inactive)
REMARK    1  A    between atoms: C_1  and  C_2
REMARK    2  A    between atoms: C_2  and  C_3
REMARK    3  A    between atoms: C_3  and  C_4
REMARK    4  A    between atoms: C_4  and  C_5
REMARK    5  A    between atoms: C_5  and  C_6
REMARK    6  A    between atoms: C_6  and  C_7
REMARK    7  A    between atoms: C_11  and  C_20
REMARK    8  A    between atoms: N_22  and  C_23
REMARK    9  A    between atoms: C_23  and  C_24
REMARK   10  A    between atoms: C_24  and  C_26
REMARK   11  A    between atoms: C_24  and  O_27
REMARK   12  A    between atoms: O_27  and  C_28
REMARK   13  A    between atoms: C_31  and  O_34
REMARK   14  A    between atoms: O_34  and  C_35
REMARK                            x       y       z     vdW  Elec       q    Type
REMARK                         _______ _______ _______ _____ _____    ______ ____
ROOT
ATOM      1  C   UNL     1       1.151  -4.276  -1.986  0.00  0.00    +0.216 C 
ATOM      2  O   UNL     1       1.706  -3.353  -2.543  0.00  0.00    -0.276 OA
ATOM      3  N   UNL     1       1.495  -5.545  -2.280  0.00  0.00    -0.300 N 
ATOM      4  C   UNL     1       0.931  -6.793  -1.714  0.00  0.00    +0.121 C 
ATOM      5  C   UNL     1       0.847  -7.763  -2.914  0.00  0.00    +0.100 C 
ATOM      6  C   UNL     1       1.896  -7.244  -3.912  0.00  0.00    -0.004 C 
ATOM      7  C   UNL     1       2.520  -6.009  -3.246  0.00  0.00    +0.115 C 
ATOM      8  C   UNL     1       1.227  -6.847  -5.224  0.00  0.00    -0.010 C 
ATOM      9  C   UNL     1       2.296  -6.389  -6.219  0.00  0.00    -0.082 C 
ATOM     10  N   UNL     1       3.255  -7.477  -6.445  0.00  0.00    +0.379 N 
ATOM     11  C   UNL     1       3.962  -7.790  -5.197  0.00  0.00    -0.082 C 
ATOM     12  C   UNL     1       2.962  -8.307  -4.159  0.00  0.00    -0.010 C 
ATOM     13  H   UNL     1       2.762  -8.297  -6.765  0.00  0.00    -0.086 HD
ATOM     14  H   UNL     1       3.923  -7.194  -7.146  0.00  0.00    -0.086 HD
ENDROOT
BRANCH   5  15
ATOM     15  C   UNL     1      -0.529  -7.722  -3.527  0.00  0.00    +0.218 C 
ATOM     16  O   UNL     1      -1.189  -6.706  -3.468  0.00  0.00    -0.275 OA
ATOM     17  N   UNL     1      -1.026  -8.814  -4.141  0.00  0.00    -0.312 N 
ATOM     18  H   UNL     1      -0.498  -9.626  -4.188  0.00  0.00    +0.149 HD
BRANCH  17  19
ATOM     19  C   UNL     1      -2.364  -8.774  -4.737  0.00  0.00    +0.148 C 
BRANCH  19  20
ATOM     20  C   UNL     1      -2.684 -10.132  -5.364  0.00  0.00    +0.187 C 
ATOM     21  C   UNL     1      -4.026 -10.053  -6.094  0.00  0.00    +0.053 C 
BRANCH  20  22
ATOM     22  O   UNL     1      -2.756 -11.125  -4.339  0.00  0.00    -0.488 OA
BRANCH  22  23
ATOM     23  C   UNL     1      -2.509 -12.411  -4.707  0.00  0.00    +0.121 A 
ATOM     24  C   UNL     1      -2.461 -13.410  -3.745  0.00  0.00    +0.049 A 
ATOM     25  C   UNL     1      -2.210 -14.716  -4.119  0.00  0.00    +0.049 A 
ATOM     26  C   UNL     1      -2.006 -15.028  -5.455  0.00  0.00    +0.120 A 
ATOM     27  C   UNL     1      -2.055 -14.030  -6.416  0.00  0.00    +0.049 A 
ATOM     28  C   UNL     1      -2.311 -12.724  -6.043  0.00  0.00    +0.049 A 
BRANCH  26  29
ATOM     29  O   UNL     1      -1.759 -16.314  -5.822  0.00  0.00    -0.495 OA
ATOM     30  C   UNL     1      -1.558 -16.564  -7.215  0.00  0.00    +0.277 C 
ENDBRANCH  26  29
ENDBRANCH  22  23
ENDBRANCH  20  22
ENDBRANCH  19  20
ENDBRANCH  17  19
ENDBRANCH   5  15
BRANCH   1  31
ATOM     31  C   UNL     1       0.076  -4.003  -0.966  0.00  0.00    +0.096 C 
BRANCH  31  32
ATOM     32  C   UNL     1      -0.119  -2.492  -0.823  0.00  0.00    +0.009 C 
BRANCH  32  33
ATOM     33  C   UNL     1      -1.211  -2.215   0.213  0.00  0.00    +0.000 C 
BRANCH  33  34
ATOM     34  C   UNL     1      -1.406  -0.705   0.357  0.00  0.00    -0.000 C 
BRANCH  34  36
ATOM     35  C   UNL     1      -2.693   1.083   1.536  0.00  0.00    +0.004 C 
ATOM     36  C   UNL     1      -2.498  -0.428   1.393  0.00  0.00    -0.003 C 
ENDBRANCH  34  36
ENDBRANCH  33  34
ENDBRANCH  32  33
ENDBRANCH  31  32
ENDBRANCH   1  31
TORSDOF 11
