REMARK  Name = ZINC24142782
REMARK  13 active torsions:
REMARK  status: ('A' for Active; 'I' for Inactive)
REMARK    1  A    between atoms: C_1  and  C_2
REMARK    2  A    between atoms: C_2  and  N_3
REMARK    3  A    between atoms: C_4  and  C_26
REMARK    4  A    between atoms: C_7  and  S_8
REMARK    5  A    between atoms: S_8  and  C_9
REMARK    6  A    between atoms: C_9  and  C_10
REMARK    7  A    between atoms: N_12  and  C_13
REMARK    8  A    between atoms: N_17  and  C_19
REMARK    9  A    between atoms: C_19  and  C_20
REMARK   10  A    between atoms: C_29  and  C_32
REMARK   11  A    between atoms: C_32  and  C_33
REMARK   12  A    between atoms: C_32  and  C_34
REMARK   13  A    between atoms: C_32  and  C_35
REMARK                            x       y       z     vdW  Elec       q    Type
REMARK                         _______ _______ _______ _____ _____    ______ ____
ROOT
ATOM      1  S   UNL     1       4.910   0.228   1.514  0.00  0.00    -0.077 S 
ENDROOT
BRANCH   1   6
ATOM      2  N   UNL     1       7.548   0.971   2.074  0.00  0.00    -0.302 N 
ATOM      3  C   UNL     1       8.418   1.943   1.639  0.00  0.00    +0.165 A 
ATOM      4  N   UNL     1       7.777   2.664   0.749  0.00  0.00    -0.128 NA
ATOM      5  N   UNL     1       6.584   2.212   0.596  0.00  0.00    -0.122 NA
ATOM      6  C   UNL     1       6.390   1.175   1.380  0.00  0.00    +0.192 A 
BRANCH   3   7
ATOM      7  C   UNL     1       9.812   2.142   2.092  0.00  0.00    +0.019 A 
ATOM      8  C   UNL     1      10.448   3.367   1.884  0.00  0.00    +0.012 A 
ATOM      9  C   UNL     1      11.746   3.548   2.315  0.00  0.00    +0.005 A 
ATOM     10  C   UNL     1      12.421   2.515   2.941  0.00  0.00    -0.042 A 
ATOM     11  C   UNL     1      11.797   1.297   3.146  0.00  0.00    +0.005 A 
ATOM     12  C   UNL     1      10.498   1.105   2.725  0.00  0.00    +0.012 A 
BRANCH  10  13
ATOM     13  C   UNL     1      13.841   2.718   3.404  0.00  0.00    -0.013 C 
ATOM     14  C   UNL     1      14.754   1.711   2.702  0.00  0.00    +0.015 C 
ATOM     15  C   UNL     1      14.290   4.140   3.060  0.00  0.00    +0.015 C 
ATOM     16  C   UNL     1      13.919   2.510   4.917  0.00  0.00    +0.015 C 
ENDBRANCH  10  13
ENDBRANCH   3   7
BRANCH   2  18
ATOM     17  C   UNL     1       8.283  -1.343   2.370  0.00  0.00    +0.027 C 
ATOM     18  C   UNL     1       7.810  -0.069   3.073  0.00  0.00    +0.122 C 
ENDBRANCH   2  18
ENDBRANCH   1   6
BRANCH   1  19
ATOM     19  C   UNL     1       3.869   1.101   0.318  0.00  0.00    +0.173 C 
BRANCH  19  20
ATOM     20  C   UNL     1       2.512   0.447   0.261  0.00  0.00    +0.223 C 
ATOM     21  O   UNL     1       2.273  -0.514   0.961  0.00  0.00    -0.275 OA
ATOM     22  N   UNL     1       1.565   0.931  -0.567  0.00  0.00    -0.314 N 
ATOM     23  H   UNL     1       1.782   1.803  -1.201  0.00  0.00    +0.149 HD
BRANCH  22  24
ATOM     24  C   UNL     1       0.246   0.296  -0.621  0.00  0.00    +0.055 C 
ATOM     25  C   UNL     1      -0.689   0.907   0.448  0.00  0.00    +0.002 C 
ATOM     26  C   UNL     1      -1.491   1.961  -0.358  0.00  0.00    -0.077 C 
ATOM     27  N   UNL     1      -1.697   1.301  -1.673  0.00  0.00    +0.384 N 
ATOM     28  C   UNL     1      -0.434   0.592  -1.971  0.00  0.00    -0.056 C 
ATOM     29  H   UNL     1      -2.553   0.610  -1.655  0.00  0.00    -0.081 HD
BRANCH  27  30
ATOM     30  C   UNL     1      -2.004   2.289  -2.716  0.00  0.00    -0.043 C 
BRANCH  30  31
ATOM     31  C   UNL     1      -3.151   3.156  -2.264  0.00  0.00    -0.064 A 
ATOM     32  C   UNL     1      -4.451   2.791  -2.560  0.00  0.00    +0.002 A 
ATOM     33  C   UNL     1      -5.504   3.584  -2.142  0.00  0.00    +0.000 A 
ATOM     34  C   UNL     1      -5.256   4.747  -1.437  0.00  0.00    +0.000 A 
ATOM     35  C   UNL     1      -3.955   5.114  -1.145  0.00  0.00    +0.000 A 
ATOM     36  C   UNL     1      -2.903   4.319  -1.560  0.00  0.00    +0.002 A 
ENDBRANCH  30  31
ENDBRANCH  27  30
ENDBRANCH  22  24
ENDBRANCH  19  20
ENDBRANCH   1  19
TORSDOF 9
