REMARK  Name = ZINC57718389
REMARK  8 active torsions:
REMARK  status: ('A' for Active; 'I' for Inactive)
REMARK    1  A    between atoms: C_1  and  C_2
REMARK    2  A    between atoms: C_5  and  C_32
REMARK    3  A    between atoms: N_8  and  C_10
REMARK    4  A    between atoms: C_13  and  N_16
REMARK    5  A    between atoms: N_16  and  C_17
REMARK    6  A    between atoms: C_17  and  C_18
REMARK    7  A    between atoms: C_22  and  O_30
REMARK    8  A    between atoms: O_30  and  C_31
REMARK                            x       y       z     vdW  Elec       q    Type
REMARK                         _______ _______ _______ _____ _____    ______ ____
ROOT
ATOM      1  N   UNL     1       3.693  -3.802   5.598  0.00  0.00    -0.340 N 
ATOM      2  H   UNL     1       3.411  -3.581   6.499  0.00  0.00    +0.146 HD
ENDROOT
BRANCH   1   6
ATOM      3  C   UNL     1       1.496  -2.438   2.334  0.00  0.00    +0.014 A 
ATOM      4  C   UNL     1       1.092  -2.122   3.619  0.00  0.00    +0.023 A 
ATOM      5  C   UNL     1       1.818  -2.573   4.703  0.00  0.00    +0.025 A 
ATOM      6  C   UNL     1       2.956  -3.345   4.503  0.00  0.00    +0.027 A 
ATOM      7  C   UNL     1       3.359  -3.660   3.212  0.00  0.00    +0.025 A 
ATOM      8  C   UNL     1       2.625  -3.211   2.132  0.00  0.00    +0.023 A 
BRANCH   3  14
ATOM      9  C   UNL     1      -0.019   1.526   0.010  0.00  0.00    +0.009 C 
ATOM     10  C   UNL     1       0.002  -0.004   0.002  0.00  0.00    +0.002 C 
ATOM     11  C   UNL     1      -1.434  -0.535   0.015  0.00  0.00    +0.009 C 
ATOM     12  C   UNL     1      -1.402  -2.064   0.086  0.00  0.00    +0.002 C 
ATOM     13  C   UNL     1      -0.613  -2.496   1.324  0.00  0.00    +0.088 C 
ATOM     14  N   UNL     1       0.758  -1.980   1.239  0.00  0.00    -0.393 NA
ATOM     15  C   UNL     1       0.740  -0.512   1.242  0.00  0.00    +0.088 C 
ATOM     16  C   UNL     1      -0.728  -2.620  -1.170  0.00  0.00    +0.009 C 
ATOM     17  H   UNL     1       1.188  -2.307   0.386  0.00  0.00    +0.126 HD
ENDBRANCH   3  14
ENDBRANCH   1   6
BRANCH   1  18
ATOM     18  C   UNL     1       4.893  -4.616   5.385  0.00  0.00    +0.142 C 
BRANCH  18  19
ATOM     19  C   UNL     1       5.498  -4.976   6.716  0.00  0.00    +0.034 A 
ATOM     20  C   UNL     1       5.195  -6.164   7.297  0.00  0.00    +0.020 A 
ATOM     21  C   UNL     1       5.800  -6.484   8.591  0.00  0.00    +0.002 A 
ATOM     22  C   UNL     1       5.524  -7.695   9.237  0.00  0.00    +0.055 A 
ATOM     23  C   UNL     1       6.112  -7.965  10.456  0.00  0.00    +0.121 A 
ATOM     24  C   UNL     1       6.974  -7.041  11.042  0.00  0.00    +0.047 A 
ATOM     25  C   UNL     1       7.253  -5.846  10.416  0.00  0.00    +0.030 A 
ATOM     26  C   UNL     1       6.672  -5.554   9.187  0.00  0.00    +0.049 A 
ATOM     27  N   UNL     1       6.939  -4.362   8.543  0.00  0.00    -0.322 N 
ATOM     28  H   UNL     1       7.540  -3.721   8.955  0.00  0.00    +0.169 HD
ATOM     29  C   UNL     1       6.383  -4.080   7.352  0.00  0.00    +0.254 A 
ATOM     30  O   UNL     1       6.646  -3.020   6.811  0.00  0.00    -0.268 OA
BRANCH  23  31
ATOM     31  O   UNL     1       5.848  -9.139  11.089  0.00  0.00    -0.495 OA
ATOM     32  C   UNL     1       6.488  -9.357  12.347  0.00  0.00    +0.277 C 
ENDBRANCH  23  31
ENDBRANCH  18  19
ENDBRANCH   1  18
TORSDOF 5
