REMARK  Name = ZINC60359462
REMARK  11 active torsions:
REMARK  status: ('A' for Active; 'I' for Inactive)
REMARK    1  A    between atoms: C_1  and  C_2
REMARK    2  A    between atoms: C_5  and  S_8
REMARK    3  A    between atoms: S_8  and  N_11
REMARK    4  A    between atoms: N_11  and  C_12
REMARK    5  A    between atoms: C_12  and  C_13
REMARK    6  A    between atoms: C_20  and  C_22
REMARK    7  A    between atoms: C_22  and  C_24
REMARK    8  A    between atoms: C_22  and  O_25
REMARK    9  A    between atoms: O_25  and  C_26
REMARK   10  A    between atoms: C_30  and  C_32
REMARK   11  A    between atoms: C_32  and  C_34
REMARK                            x       y       z     vdW  Elec       q    Type
REMARK                         _______ _______ _______ _____ _____    ______ ____
ROOT
ATOM      1  C   UNL     1       3.877  -6.790   0.514  0.00  0.00    +0.022 C 
ATOM      2  C   UNL     1       4.717  -6.451  -0.720  0.00  0.00    +0.008 C 
ATOM      3  C   UNL     1       6.126  -7.024  -0.552  0.00  0.00    +0.019 C 
ATOM      4  C   UNL     1       6.789  -6.388   0.674  0.00  0.00    +0.108 C 
ATOM      5  N   UNL     1       5.915  -6.585   1.839  0.00  0.00    -0.298 N 
ATOM      6  C   UNL     1       4.514  -6.153   1.752  0.00  0.00    +0.112 C 
ATOM      7  C   UNL     1       6.390  -7.151   2.966  0.00  0.00    +0.256 C 
ATOM      8  O   UNL     1       7.525  -7.579   2.998  0.00  0.00    -0.272 OA
ENDROOT
BRANCH   7   9
ATOM      9  C   UNL     1       5.512  -7.253   4.186  0.00  0.00    +0.256 C 
ATOM     10  C   UNL     1       5.253  -5.854   4.746  0.00  0.00    +0.062 C 
BRANCH   9  11
ATOM     11  O   UNL     1       6.164  -8.050   5.177  0.00  0.00    -0.480 OA
BRANCH  11  12
ATOM     12  C   UNL     1       5.370  -8.696   6.070  0.00  0.00    +0.122 A 
ATOM     13  C   UNL     1       3.998  -8.479   6.063  0.00  0.00    +0.046 A 
ATOM     14  C   UNL     1       3.183  -9.133   6.969  0.00  0.00    +0.004 A 
ATOM     15  C   UNL     1       3.727 -10.006   7.887  0.00  0.00    +0.011 A 
ATOM     16  C   UNL     1       5.107 -10.232   7.904  0.00  0.00    +0.021 A 
ATOM     17  C   UNL     1       5.927  -9.574   6.983  0.00  0.00    +0.057 A 
BRANCH  16  18
ATOM     18  C   UNL     1       5.692 -11.163   8.882  0.00  0.00    +0.160 C 
ATOM     19  O   UNL     1       6.888 -11.357   8.894  0.00  0.00    -0.292 OA
ATOM     20  C   UNL     1       4.803 -11.875   9.870  0.00  0.00    +0.091 C 
ENDBRANCH  16  18
ENDBRANCH  11  12
ENDBRANCH   9  11
ENDBRANCH   7   9
BRANCH   1  21
ATOM     21  C   UNL     1       2.458  -6.246   0.331  0.00  0.00    +0.111 C 
BRANCH  21  22
ATOM     22  N   UNL     1       1.808  -6.941  -0.782  0.00  0.00    -0.190 NA
ATOM     23  H   UNL     1       2.338  -7.464  -1.404  0.00  0.00    +0.148 HD
BRANCH  22  24
ATOM     24  S   UNL     1       0.167  -6.835  -0.979  0.00  0.00    +0.058 S 
ATOM     25  O   UNL     1      -0.413  -7.114   0.288  0.00  0.00    -0.153 OA
ATOM     26  O   UNL     1      -0.152  -7.584  -2.144  0.00  0.00    -0.153 OA
BRANCH  24  31
ATOM     27  C   UNL     1      -1.114  -1.073  -2.230  0.00  0.00    +0.044 C 
ATOM     28  C   UNL     1      -0.794  -2.513  -1.918  0.00  0.00    -0.050 A 
ATOM     29  C   UNL     1      -0.521  -3.398  -2.943  0.00  0.00    +0.005 A 
ATOM     30  C   UNL     1      -0.227  -4.718  -2.657  0.00  0.00    +0.029 A 
ATOM     31  C   UNL     1      -0.206  -5.152  -1.344  0.00  0.00    +0.105 A 
ATOM     32  C   UNL     1      -0.479  -4.266  -0.319  0.00  0.00    +0.029 A 
ATOM     33  C   UNL     1      -0.768  -2.946  -0.605  0.00  0.00    +0.005 A 
ENDBRANCH  24  31
ENDBRANCH  22  24
ENDBRANCH  21  22
ENDBRANCH   1  21
TORSDOF 8
