REMARK  Name = ZINC33938641
REMARK  10 active torsions:
REMARK  status: ('A' for Active; 'I' for Inactive)
REMARK    1  A    between atoms: C_1  and  C_2
REMARK    2  A    between atoms: C_2  and  O_3
REMARK    3  A    between atoms: O_3  and  C_4
REMARK    4  A    between atoms: C_7  and  N_10
REMARK    5  A    between atoms: C_15  and  C_33
REMARK    6  A    between atoms: C_18  and  C_23
REMARK    7  A    between atoms: C_18  and  C_29
REMARK    8  A    between atoms: C_29  and  O_31
REMARK    9  A    between atoms: O_31  and  C_32
REMARK   10  A    between atoms: C_38  and  C_39
REMARK                            x       y       z     vdW  Elec       q    Type
REMARK                         _______ _______ _______ _____ _____    ______ ____
ROOT
ATOM      1  N   UNL     1       1.161  -5.665  -1.982  0.00  0.00    -0.210 N 
ATOM      2  C   UNL     1       0.600  -6.494  -1.042  0.00  0.00    +0.229 C 
ATOM      3  O   UNL     1      -0.181  -6.197  -0.164  0.00  0.00    -0.275 OA
ATOM      4  C   UNL     1       1.149  -7.798  -1.331  0.00  0.00    +0.078 C 
ATOM      5  C   UNL     1       0.885  -9.218  -1.062  0.00  0.00    -0.026 C 
ATOM      6  N   UNL     1       1.669  -9.947  -2.112  0.00  0.00    +0.398 N 
ATOM      7  C   UNL     1       2.261  -8.918  -3.029  0.00  0.00    +0.070 C 
ATOM      8  C   UNL     1       1.248  -7.760  -2.909  0.00  0.00    +0.090 C 
ATOM      9  C   UNL     1       1.766  -6.350  -2.997  0.00  0.00    +0.229 C 
ATOM     10  O   UNL     1       2.560  -5.914  -3.802  0.00  0.00    -0.275 OA
ATOM     11  H   UNL     1       2.406 -10.484  -1.679  0.00  0.00    -0.083 HD
ATOM     12  H   UNL     1       1.059 -10.559  -2.633  0.00  0.00    -0.083 HD
ENDROOT
BRANCH   5  13
ATOM     13  C   UNL     1      -0.586  -9.515  -1.198  0.00  0.00    -0.058 A 
ATOM     14  C   UNL     1      -1.419  -8.610  -1.830  0.00  0.00    +0.002 A 
ATOM     15  C   UNL     1      -2.768  -8.882  -1.955  0.00  0.00    +0.000 A 
ATOM     16  C   UNL     1      -3.285 -10.060  -1.449  0.00  0.00    +0.000 A 
ATOM     17  C   UNL     1      -2.453 -10.966  -0.818  0.00  0.00    +0.003 A 
ATOM     18  C   UNL     1      -1.103 -10.695  -0.697  0.00  0.00    -0.049 A 
ATOM     19  C   UNL     1      -0.194 -11.685  -0.014  0.00  0.00    +0.044 C 
ENDBRANCH   5  13
BRANCH   1  23
ATOM     20  C   UNL     1       1.017  -1.501  -1.771  0.00  0.00    +0.121 A 
ATOM     21  C   UNL     1       0.429  -2.267  -0.775  0.00  0.00    +0.047 A 
ATOM     22  C   UNL     1       0.476  -3.645  -0.844  0.00  0.00    +0.027 A 
ATOM     23  C   UNL     1       1.112  -4.264  -1.911  0.00  0.00    +0.044 A 
ATOM     24  C   UNL     1       1.700  -3.498  -2.908  0.00  0.00    +0.027 A 
ATOM     25  C   UNL     1       1.648  -2.120  -2.841  0.00  0.00    +0.047 A 
BRANCH  20  26
ATOM     26  O   UNL     1       0.970  -0.144  -1.703  0.00  0.00    -0.492 OA
BRANCH  26  28
ATOM     27  C   UNL     1       0.352   1.952  -0.670  0.00  0.00    +0.048 C 
ATOM     28  C   UNL     1       0.304   0.426  -0.574  0.00  0.00    +0.225 C 
ENDBRANCH  26  28
ENDBRANCH  20  26
ENDBRANCH   1  23
BRANCH   7  29
ATOM     29  C   UNL     1       3.634  -8.511  -2.559  0.00  0.00    -0.047 A 
ATOM     30  C   UNL     1       4.049  -8.829  -1.280  0.00  0.00    +0.003 A 
ATOM     31  C   UNL     1       5.308  -8.456  -0.849  0.00  0.00    +0.000 A 
ATOM     32  C   UNL     1       6.152  -7.764  -1.698  0.00  0.00    +0.000 A 
ATOM     33  C   UNL     1       5.737  -7.447  -2.978  0.00  0.00    +0.000 A 
ATOM     34  C   UNL     1       4.479  -7.824  -3.410  0.00  0.00    +0.003 A 
ENDBRANCH   7  29
BRANCH   7  35
ATOM     35  C   UNL     1       2.309  -9.430  -4.446  0.00  0.00    +0.301 C 
ATOM     36  O   UNL     1       2.107  -8.676  -5.367  0.00  0.00    -0.252 OA
BRANCH  35  37
ATOM     37  O   UNL     1       2.578 -10.724  -4.683  0.00  0.00    -0.469 OA
ATOM     38  C   UNL     1       2.608 -11.139  -6.050  0.00  0.00    +0.280 C 
ENDBRANCH  35  37
ENDBRANCH   7  35
TORSDOF 7
