REMARK  Name = ZINC63761351
REMARK  12 active torsions:
REMARK  status: ('A' for Active; 'I' for Inactive)
REMARK    1  A    between atoms: C_1  and  C_2
REMARK    2  A    between atoms: C_2  and  C_3
REMARK    3  A    between atoms: C_2  and  C_4
REMARK    4  A    between atoms: C_4  and  C_6
REMARK    5  A    between atoms: C_4  and  N_10
REMARK    6  A    between atoms: C_6  and  O_8
REMARK    7  A    between atoms: O_8  and  C_9
REMARK    8  A    between atoms: C_11  and  C_13
REMARK    9  A    between atoms: C_13  and  C_15
REMARK   10  A    between atoms: C_13  and  N_25
REMARK   11  A    between atoms: C_15  and  C_16
REMARK   12  A    between atoms: C_26  and  C_28
REMARK                            x       y       z     vdW  Elec       q    Type
REMARK                         _______ _______ _______ _____ _____    ______ ____
ROOT
ATOM      1  C   UNL     1      -2.809   0.034   3.540  0.00  0.00    +0.163 C 
ENDROOT
BRANCH   1   3
ATOM      2  N   UNL     1      -2.155   0.035   1.154  0.00  0.00    -0.301 N 
ATOM      3  C   UNL     1      -2.067  -0.550   2.366  0.00  0.00    +0.234 C 
ATOM      4  O   UNL     1      -1.391  -1.546   2.511  0.00  0.00    -0.274 OA
ATOM      5  H   UNL     1      -2.696   0.831   1.038  0.00  0.00    +0.150 HD
BRANCH   2   6
ATOM      6  C   UNL     1      -1.433  -0.534   0.013  0.00  0.00    +0.184 C 
BRANCH   6   8
ATOM      7  C   UNL     1      -0.019   1.526   0.010  0.00  0.00    +0.009 C 
ATOM      8  C   UNL     1       0.002  -0.004   0.002  0.00  0.00    +0.014 C 
ATOM      9  C   UNL     1       0.742  -0.511   1.242  0.00  0.00    +0.009 C 
ENDBRANCH   6   8
BRANCH   6  10
ATOM     10  C   UNL     1      -2.125  -0.137  -1.266  0.00  0.00    +0.328 C 
ATOM     11  O   UNL     1      -3.118   0.549  -1.228  0.00  0.00    -0.249 OA
BRANCH  10  12
ATOM     12  O   UNL     1      -1.637  -0.547  -2.448  0.00  0.00    -0.467 OA
ATOM     13  C   UNL     1      -2.343  -0.134  -3.619  0.00  0.00    +0.280 C 
ENDBRANCH  10  12
ENDBRANCH   6  10
ENDBRANCH   2   6
ENDBRANCH   1   3
BRANCH   1  14
ATOM     14  N   UNL     1      -2.553  -0.777   4.732  0.00  0.00    -0.303 N 
ATOM     15  C   UNL     1      -1.455  -0.550   5.479  0.00  0.00    +0.220 C 
ATOM     16  O   UNL     1      -0.678   0.326   5.164  0.00  0.00    -0.275 OA
ATOM     17  H   UNL     1      -3.175  -1.478   4.984  0.00  0.00    +0.149 HD
BRANCH  15  18
ATOM     18  C   UNL     1      -1.191  -1.385   6.706  0.00  0.00    +0.048 C 
ATOM     19  C   UNL     1      -1.068  -2.856   6.304  0.00  0.00    +0.019 C 
ATOM     20  C   UNL     1      -0.801  -3.704   7.550  0.00  0.00    -0.009 C 
ATOM     21  C   UNL     1       0.501  -3.244   8.210  0.00  0.00    +0.007 C 
ATOM     22  C   UNL     1       0.377  -1.773   8.611  0.00  0.00    -0.009 C 
ATOM     23  C   UNL     1       0.110  -0.925   7.366  0.00  0.00    +0.019 C 
ATOM     24  C   UNL     1      -0.780  -1.609   9.598  0.00  0.00    +0.007 C 
ATOM     25  C   UNL     1      -2.082  -2.068   8.938  0.00  0.00    -0.009 C 
ATOM     26  C   UNL     1      -1.958  -3.540   8.536  0.00  0.00    +0.007 C 
ATOM     27  C   UNL     1      -2.349  -1.221   7.692  0.00  0.00    +0.019 C 
ENDBRANCH  15  18
ENDBRANCH   1  14
BRANCH   1  28
ATOM     28  C   UNL     1      -4.310   0.043   3.241  0.00  0.00    +0.065 C 
BRANCH  28  29
ATOM     29  C   UNL     1      -5.041   0.739   4.361  0.00  0.00    -0.039 C 
ATOM     30  C   UNL     1      -5.414   2.038   4.405  0.00  0.00    -0.001 A 
ATOM     31  C   UNL     1      -5.256   3.150   3.461  0.00  0.00    +0.010 A 
ATOM     32  C   UNL     1      -5.746   4.367   3.792  0.00  0.00    +0.001 A 
ATOM     33  C   UNL     1      -6.398   4.591   5.013  0.00  0.00    +0.002 A 
ATOM     34  C   UNL     1      -6.581   3.619   5.931  0.00  0.00    +0.026 A 
ATOM     35  C   UNL     1      -6.107   2.301   5.687  0.00  0.00    +0.043 A 
ATOM     36  N   UNL     1      -6.160   1.207   6.407  0.00  0.00    -0.380 N 
ATOM     37  C   UNL     1      -5.511   0.123   5.660  0.00  0.00    +0.144 C 
ATOM     38  H   UNL     1      -6.564   1.126   7.285  0.00  0.00    +0.160 HD
ENDBRANCH  28  29
ENDBRANCH   1  28
TORSDOF 9
