REMARK  Name = ZINC32642408
REMARK  14 active torsions:
REMARK  status: ('A' for Active; 'I' for Inactive)
REMARK    1  A    between atoms: C_1  and  C_2
REMARK    2  A    between atoms: C_2  and  N_3
REMARK    3  A    between atoms: N_3  and  C_4
REMARK    4  A    between atoms: N_3  and  C_6
REMARK    5  A    between atoms: C_4  and  C_5
REMARK    6  A    between atoms: C_6  and  C_7
REMARK    7  A    between atoms: C_7  and  C_8
REMARK    8  A    between atoms: C_8  and  C_9
REMARK    9  A    between atoms: C_9  and  C_11
REMARK   10  A    between atoms: C_9  and  N_12
REMARK   11  A    between atoms: C_13  and  C_15
REMARK   12  A    between atoms: N_25  and  S_26
REMARK   13  A    between atoms: S_26  and  C_29
REMARK   14  A    between atoms: C_32  and  C_35
REMARK                            x       y       z     vdW  Elec       q    Type
REMARK                         _______ _______ _______ _____ _____    ______ ____
ROOT
ATOM      1  C   UNL     1       2.217  -4.250  -2.523  0.00  0.00    +0.170 C 
ATOM      2  C   UNL     1       1.206  -5.287  -3.011  0.00  0.00    +0.065 C 
ATOM      3  C   UNL     1       1.863  -6.630  -3.195  0.00  0.00    -0.041 A 
ATOM      4  C   UNL     1       1.042  -7.751  -3.216  0.00  0.00    +0.004 A 
ATOM      5  C   UNL     1       1.578  -9.010  -3.391  0.00  0.00    +0.000 A 
ATOM      6  C   UNL     1       2.944  -9.160  -3.548  0.00  0.00    +0.000 A 
ATOM      7  C   UNL     1       3.761  -8.049  -3.525  0.00  0.00    +0.005 A 
ATOM      8  C   UNL     1       3.224  -6.782  -3.343  0.00  0.00    -0.028 A 
ATOM      9  C   UNL     1       4.176  -5.613  -3.302  0.00  0.00    +0.145 C 
ATOM     10  N   UNL     1       3.419  -4.358  -3.365  0.00  0.00    -0.160 NA
ENDROOT
BRANCH   1  12
ATOM     11  N   UNL     1       1.613  -2.044  -1.581  0.00  0.00    -0.311 N 
ATOM     12  C   UNL     1       1.629  -2.868  -2.647  0.00  0.00    +0.232 C 
ATOM     13  O   UNL     1       1.171  -2.497  -3.707  0.00  0.00    -0.274 OA
ATOM     14  H   UNL     1       2.028  -2.380  -0.620  0.00  0.00    +0.149 HD
BRANCH  11  15
ATOM     15  C   UNL     1       1.042  -0.700  -1.702  0.00  0.00    +0.070 C 
ATOM     16  C   UNL     1      -0.472  -0.768  -1.488  0.00  0.00    +0.028 C 
BRANCH  15  17
ATOM     17  C   UNL     1       1.665   0.216  -0.648  0.00  0.00    +0.020 C 
BRANCH  17  18
ATOM     18  C   UNL     1       3.158   0.384  -0.936  0.00  0.00    -0.017 C 
BRANCH  18  19
ATOM     19  C   UNL     1       3.782   1.300   0.118  0.00  0.00    -0.079 C 
BRANCH  19  20
ATOM     20  N   UNL     1       5.215   1.461  -0.158  0.00  0.00    +0.379 N 
ATOM     21  H   UNL     1       5.654   0.457  -0.264  0.00  0.00    -0.082 HD
BRANCH  20  23
ATOM     22  C   UNL     1       4.893   3.609  -1.289  0.00  0.00    -0.017 C 
ATOM     23  C   UNL     1       5.430   2.183  -1.420  0.00  0.00    -0.082 C 
ENDBRANCH  20  23
BRANCH  20  24
ATOM     24  C   UNL     1       5.895   2.135   0.956  0.00  0.00    -0.082 C 
ATOM     25  C   UNL     1       7.409   1.987   0.795  0.00  0.00    -0.017 C 
ENDBRANCH  20  24
ENDBRANCH  19  20
ENDBRANCH  18  19
ENDBRANCH  17  18
ENDBRANCH  15  17
ENDBRANCH  11  15
ENDBRANCH   1  12
BRANCH  10  26
ATOM     26  S   UNL     1       3.900  -3.111  -4.344  0.00  0.00    +0.062 S 
ATOM     27  O   UNL     1       3.429  -1.915  -3.739  0.00  0.00    -0.153 OA
ATOM     28  O   UNL     1       5.274  -3.329  -4.634  0.00  0.00    -0.153 OA
BRANCH  26  29
ATOM     29  C   UNL     1       3.031  -3.281  -5.867  0.00  0.00    +0.106 A 
ATOM     30  C   UNL     1       3.448  -4.210  -6.801  0.00  0.00    +0.029 A 
ATOM     31  C   UNL     1       2.764  -4.346  -7.995  0.00  0.00    +0.014 A 
ATOM     32  C   UNL     1       1.667  -3.546  -8.258  0.00  0.00    +0.055 A 
ATOM     33  C   UNL     1       1.253  -2.613  -7.326  0.00  0.00    +0.014 A 
ATOM     34  C   UNL     1       1.935  -2.480  -6.130  0.00  0.00    +0.029 A 
BRANCH  32  35
ATOM     35  C   UNL     1       0.923  -3.692  -9.560  0.00  0.00    +0.417 C 
ATOM     36  F   UNL     1       1.483  -2.835 -10.515  0.00  0.00    -0.166 F 
ATOM     37  F   UNL     1       1.019  -5.014 -10.007  0.00  0.00    -0.166 F 
ATOM     38  F   UNL     1      -0.422  -3.360  -9.368  0.00  0.00    -0.166 F 
ENDBRANCH  32  35
ENDBRANCH  26  29
ENDBRANCH  10  26
TORSDOF 11
