REMARK  Name = ZINC12878571
REMARK  4 active torsions:
REMARK  status: ('A' for Active; 'I' for Inactive)
REMARK    1  A    between atoms: C_11  and  C_13
REMARK    2  A    between atoms: C_13  and  C_14
REMARK    3  A    between atoms: C_14  and  C_15
REMARK    4  A    between atoms: N_17  and  C_18
REMARK                            x       y       z     vdW  Elec       q    Type
REMARK                         _______ _______ _______ _____ _____    ______ ____
ROOT
ATOM      1  C   UNL     1      -2.277   5.483   0.071  0.00  0.00    +0.104 C 
ENDROOT
BRANCH   1   2
ATOM      2  C   UNL     1      -3.605   6.197   0.076  0.00  0.00    +0.218 C 
ATOM      3  O   UNL     1      -4.636   5.559   0.079  0.00  0.00    -0.275 OA
ATOM      4  N   UNL     1      -3.646   7.544   0.078  0.00  0.00    -0.284 N 
ATOM      5  H   UNL     1      -2.824   8.054   0.141  0.00  0.00    +0.155 HD
BRANCH   4   6
ATOM      6  C   UNL     1      -4.877   8.207  -0.013  0.00  0.00    +0.056 A 
ATOM      7  C   UNL     1      -6.005   7.663   0.587  0.00  0.00    +0.074 A 
ATOM      8  C   UNL     1      -7.221   8.319   0.497  0.00  0.00    +0.168 A 
ATOM      9  C   UNL     1      -7.311   9.525  -0.195  0.00  0.00    +0.168 A 
ATOM     10  C   UNL     1      -6.183  10.065  -0.792  0.00  0.00    +0.071 A 
ATOM     11  C   UNL     1      -4.968   9.412  -0.698  0.00  0.00    +0.066 A 
ATOM     12 CL   UNL     1      -3.556  10.097  -1.440  0.00  0.00    -0.082 Cl
ATOM     13  O   UNL     1      -8.602   9.965  -0.138  0.00  0.00    -0.453 OA
ATOM     14  C   UNL     1      -9.383   8.817   0.243  0.00  0.00    +0.466 C 
ATOM     15  O   UNL     1      -8.456   8.005   0.987  0.00  0.00    -0.453 OA
ENDBRANCH   4   6
ENDBRANCH   1   2
BRANCH   1  16
ATOM     16  C   UNL     1      -2.511   3.971   0.071  0.00  0.00    +0.083 C 
BRANCH  16  27
ATOM     17  C   UNL     1       3.618   2.161   0.049  0.00  0.00    +0.001 A 
ATOM     18  C   UNL     1       3.523   3.546   0.050  0.00  0.00    +0.002 A 
ATOM     19  C   UNL     1       2.296   4.170   0.056  0.00  0.00    +0.028 A 
ATOM     20  C   UNL     1       1.130   3.401   0.059  0.00  0.00    +0.078 A 
ATOM     21  C   UNL     1       1.230   1.992   0.057  0.00  0.00    +0.065 A 
ATOM     22  C   UNL     1       2.482   1.381   0.052  0.00  0.00    +0.015 A 
ATOM     23  C   UNL     1      -0.017   1.212   0.060  0.00  0.00    +0.259 A 
ATOM     24  O   UNL     1      -0.001  -0.006   0.059  0.00  0.00    -0.267 OA
ATOM     25  N   UNL     1      -1.182   1.899   0.059  0.00  0.00    -0.310 N 
ATOM     26  H   UNL     1      -2.024   1.418   0.056  0.00  0.00    +0.170 HD
ATOM     27  C   UNL     1      -1.184   3.258   0.066  0.00  0.00    +0.111 A 
ATOM     28  N   UNL     1      -0.100   3.973   0.063  0.00  0.00    -0.234 NA
ENDBRANCH  16  27
ENDBRANCH   1  16
TORSDOF 4
