REMARK  Name = ZINC40824665
REMARK  10 active torsions:
REMARK  status: ('A' for Active; 'I' for Inactive)
REMARK    1  A    between atoms: C_1  and  C_2
REMARK    2  A    between atoms: C_6  and  C_7
REMARK    3  A    between atoms: N_9  and  C_10
REMARK    4  A    between atoms: C_12  and  C_18
REMARK    5  A    between atoms: C_12  and  C_19
REMARK    6  A    between atoms: C_14  and  C_16
REMARK    7  A    between atoms: C_14  and  C_17
REMARK    8  A    between atoms: N_24  and  N_25
REMARK    9  A    between atoms: N_25  and  C_26
REMARK   10  A    between atoms: C_26  and  N_28
REMARK                            x       y       z     vdW  Elec       q    Type
REMARK                         _______ _______ _______ _____ _____    ______ ____
ROOT
ATOM      1  C   UNL     1       0.028   2.035   0.693  0.00  0.00    +0.048 C 
ATOM      2  C   UNL     1       0.097   0.535   0.571  0.00  0.00    +0.009 A 
ATOM      3  C   UNL     1       0.174  -0.209  -0.612  0.00  0.00    +0.042 A 
ATOM      4  C   UNL     1       0.218  -1.538  -0.262  0.00  0.00    +0.115 A 
ATOM      5  O   UNL     1       0.173  -1.615   1.066  0.00  0.00    -0.454 OA
ATOM      6  C   UNL     1       0.104  -0.372   1.594  0.00  0.00    +0.193 A 
ATOM      7  C   UNL     1       0.299  -2.651  -1.276  0.00  0.00    +0.075 C 
ATOM      8  C   UNL     1      -0.186  -2.139  -2.634  0.00  0.00    +0.014 C 
ATOM      9  C   UNL     1       0.564  -0.862  -3.029  0.00  0.00    +0.058 C 
ATOM     10  C   UNL     1       0.212   0.227  -2.026  0.00  0.00    +0.070 C 
ATOM     11  N   UNL     1      -0.038   1.448  -2.385  0.00  0.00    -0.185 NA
ENDROOT
BRANCH   6  12
ATOM     12  C   UNL     1       0.042  -0.051   3.024  0.00  0.00    +0.280 C 
ATOM     13  O   UNL     1      -0.021   1.110   3.385  0.00  0.00    -0.267 OA
ATOM     14  N   UNL     1       0.056  -1.041   3.939  0.00  0.00    -0.306 N 
ATOM     15  H   UNL     1       0.106  -1.966   3.651  0.00  0.00    +0.149 HD
BRANCH  14  16
ATOM     16  C   UNL     1      -0.006  -0.719   5.370  0.00  0.00    +0.071 C 
ATOM     17  C   UNL     1      -1.471  -0.593   5.794  0.00  0.00    +0.009 C 
ATOM     18  C   UNL     1      -1.552  -0.270   7.285  0.00  0.00    -0.072 C 
ATOM     19  N   UNL     1      -0.817  -1.231   8.095  0.00  0.00    +0.386 N 
ATOM     20  C   UNL     1       0.526  -1.588   7.668  0.00  0.00    -0.072 C 
ATOM     21  C   UNL     1       0.629  -1.856   6.170  0.00  0.00    +0.009 C 
ATOM     22  C   UNL     1       0.912  -2.897   8.396  0.00  0.00    -0.010 C 
ATOM     23  C   UNL     1       1.552  -0.529   8.080  0.00  0.00    -0.010 C 
ATOM     24  C   UNL     1      -3.041  -0.358   7.693  0.00  0.00    -0.010 C 
ATOM     25  C   UNL     1      -1.096   1.166   7.541  0.00  0.00    -0.010 C 
ATOM     26  H   UNL     1      -0.767  -0.872   9.052  0.00  0.00    -0.084 HD
ATOM     27  H   UNL     1      -1.373  -2.087   8.159  0.00  0.00    -0.084 HD
ENDBRANCH  14  16
ENDBRANCH   6  12
BRANCH  11  28
ATOM     28  N   UNL     1       0.012   1.806  -3.738  0.00  0.00    -0.218 N 
ATOM     29  H   UNL     1       0.233   1.139  -4.408  0.00  0.00    +0.176 HD
BRANCH  28  30
ATOM     30  C   UNL     1      -0.248   3.075  -4.111  0.00  0.00    +0.147 C 
ATOM     31  S   UNL     1      -0.187   3.511  -5.765  0.00  0.00    -0.017 S 
BRANCH  30  32
ATOM     32  N   UNL     1      -0.556   4.000  -3.180  0.00  0.00    -0.339 N 
ATOM     33  H   UNL     1      -0.590   3.753  -2.243  0.00  0.00    +0.144 HD
ATOM     34  H   UNL     1      -0.743   4.913  -3.448  0.00  0.00    +0.144 HD
ENDBRANCH  30  32
ENDBRANCH  28  30
ENDBRANCH  11  28
TORSDOF 5
