REMARK  Name = ZINC63375636
REMARK  8 active torsions:
REMARK  status: ('A' for Active; 'I' for Inactive)
REMARK    1  A    between atoms: C_1  and  C_2
REMARK    2  A    between atoms: C_2  and  C_3
REMARK    3  A    between atoms: C_2  and  C_4
REMARK    4  A    between atoms: C_4  and  C_5
REMARK    5  A    between atoms: C_5  and  N_6
REMARK    6  A    between atoms: C_7  and  C_9
REMARK    7  A    between atoms: C_14  and  N_15
REMARK    8  A    between atoms: C_31  and  C_36
REMARK                            x       y       z     vdW  Elec       q    Type
REMARK                         _______ _______ _______ _____ _____    ______ ____
ROOT
ATOM      1  N   UNL     1      -3.584  -6.670  -0.438  0.00  0.00    -0.192 N 
ATOM      2  C   UNL     1      -2.966  -7.256   0.608  0.00  0.00    +0.248 C 
ATOM      3  O   UNL     1      -3.202  -7.090   1.785  0.00  0.00    -0.273 OA
ATOM      4  C   UNL     1      -1.917  -8.166   0.005  0.00  0.00    +0.169 C 
ATOM      5  C   UNL     1      -0.521  -7.758   0.507  0.00  0.00    +0.065 C 
ATOM      6  C   UNL     1       0.465  -8.237  -0.532  0.00  0.00    -0.034 C 
ATOM      7  C   UNL     1       1.771  -8.025  -0.651  0.00  0.00    -0.001 A 
ATOM      8  C   UNL     1       2.733  -7.333   0.222  0.00  0.00    +0.010 A 
ATOM      9  C   UNL     1       4.018  -7.287  -0.220  0.00  0.00    +0.001 A 
ATOM     10  C   UNL     1       4.436  -7.852  -1.429  0.00  0.00    +0.002 A 
ATOM     11  C   UNL     1       3.621  -8.511  -2.290  0.00  0.00    +0.026 A 
ATOM     12  C   UNL     1       2.247  -8.632  -1.931  0.00  0.00    +0.043 A 
ATOM     13  N   UNL     1       1.264  -9.217  -2.549  0.00  0.00    -0.375 N 
ATOM     14  C   UNL     1       0.062  -9.103  -1.720  0.00  0.00    +0.131 C 
ATOM     15  C   UNL     1      -1.062  -8.363  -2.457  0.00  0.00    +0.135 C 
ATOM     16  N   UNL     1      -2.009  -7.877  -1.441  0.00  0.00    -0.264 N 
ATOM     17  C   UNL     1      -3.054  -7.056  -1.607  0.00  0.00    +0.317 C 
ATOM     18  O   UNL     1      -3.471  -6.699  -2.691  0.00  0.00    -0.252 OA
ATOM     19  H   UNL     1       1.317  -9.655  -3.413  0.00  0.00    +0.160 HD
ENDROOT
BRANCH   1  25
ATOM     20  C   UNL     1      -4.405  -4.399  -0.207  0.00  0.00    +0.059 A 
ATOM     21  C   UNL     1      -5.480  -3.514  -0.093  0.00  0.00    +0.015 A 
ATOM     22  C   UNL     1      -6.770  -3.997  -0.084  0.00  0.00    +0.001 A 
ATOM     23  C   UNL     1      -7.008  -5.358  -0.188  0.00  0.00    +0.002 A 
ATOM     24  C   UNL     1      -5.956  -6.245  -0.301  0.00  0.00    +0.025 A 
ATOM     25  C   UNL     1      -4.650  -5.775  -0.318  0.00  0.00    +0.058 A 
BRANCH  20  27
ATOM     26  N   UNL     1      -2.790  -2.565  -0.111  0.00  0.00    -0.311 N 
ATOM     27  C   UNL     1      -3.021  -3.888  -0.217  0.00  0.00    +0.246 C 
ATOM     28  O   UNL     1      -2.088  -4.662  -0.322  0.00  0.00    -0.270 OA
ATOM     29  H   UNL     1      -3.534  -1.948  -0.027  0.00  0.00    +0.149 HD
BRANCH  26  30
ATOM     30  C   UNL     1      -1.416  -2.058  -0.121  0.00  0.00    +0.105 C 
BRANCH  30  31
ATOM     31  C   UNL     1      -1.433  -0.534   0.013  0.00  0.00    +0.022 C 
BRANCH  31  33
ATOM     32  C   UNL     1      -0.019   1.526   0.010  0.00  0.00    +0.007 C 
ATOM     33  C   UNL     1       0.002  -0.004   0.002  0.00  0.00    -0.016 C 
ATOM     34  C   UNL     1       0.742  -0.511   1.242  0.00  0.00    +0.007 C 
ENDBRANCH  31  33
ENDBRANCH  30  31
ENDBRANCH  26  30
ENDBRANCH  20  27
ENDBRANCH   1  25
BRANCH  15  35
ATOM     35  C   UNL     1      -1.778  -9.310  -3.385  0.00  0.00    -0.025 A 
ATOM     36  C   UNL     1      -2.735 -10.174  -2.886  0.00  0.00    +0.005 A 
ATOM     37  C   UNL     1      -3.392 -11.043  -3.737  0.00  0.00    +0.000 A 
ATOM     38  C   UNL     1      -3.092 -11.049  -5.086  0.00  0.00    +0.000 A 
ATOM     39  C   UNL     1      -2.135 -10.184  -5.585  0.00  0.00    +0.000 A 
ATOM     40  C   UNL     1      -1.482  -9.312  -4.735  0.00  0.00    +0.005 A 
ENDBRANCH  15  35
TORSDOF 6
