REMARK  Name = ZINC11790355
REMARK  7 active torsions:
REMARK  status: ('A' for Active; 'I' for Inactive)
REMARK    1  A    between atoms: C_1  and  C_2
REMARK    2  A    between atoms: C_6  and  S_8
REMARK    3  A    between atoms: S_8  and  C_9
REMARK    4  A    between atoms: C_12  and  C_23
REMARK    5  A    between atoms: C_15  and  C_16
REMARK    6  A    between atoms: C_15  and  N_65
REMARK    7  A    between atoms: N_28  and  C_31
REMARK                            x       y       z     vdW  Elec       q    Type
REMARK                         _______ _______ _______ _____ _____    ______ ____
ROOT
ATOM      1  C   UNL     1      -0.013   1.086   0.008  0.00  0.00    +0.037 C 
ATOM      2  C   UNL     1      -0.633   1.606   1.321  0.00  0.00    +0.006 C 
ATOM      3  C   UNL     1       0.484   2.432   1.993  0.00  0.00    +0.021 C 
ATOM      4  C   UNL     1       1.427   1.642  -0.003  0.00  0.00    -0.063 C 
ATOM      5  N   UNL     1       1.713   1.883   1.409  0.00  0.00    +0.391 N 
ATOM      6  H   UNL     1       1.959   1.000   1.873  0.00  0.00    -0.080 HD
ENDROOT
BRANCH   3   7
ATOM      7  C   UNL     1       0.452   2.242   3.488  0.00  0.00    +0.202 C 
ATOM      8  O   UNL     1       1.383   1.704   4.050  0.00  0.00    -0.277 OA
ATOM      9  N   UNL     1      -0.610   2.669   4.199  0.00  0.00    -0.300 N 
ATOM     10  C   UNL     1      -1.745   3.329   3.538  0.00  0.00    +0.126 C 
ATOM     11  C   UNL     1      -3.038   2.627   3.984  0.00  0.00    +0.124 C 
ATOM     12  N   UNL     1      -3.098   2.611   5.452  0.00  0.00    -0.325 N 
ATOM     13  C   UNL     1      -1.993   1.829   6.022  0.00  0.00    +0.124 C 
ATOM     14  C   UNL     1      -0.661   2.493   5.658  0.00  0.00    +0.126 C 
BRANCH  12  15
ATOM     15  C   UNL     1      -4.334   2.132   5.897  0.00  0.00    +0.065 A 
ATOM     16  C   UNL     1      -4.712   0.824   5.625  0.00  0.00    +0.026 A 
ATOM     17  C   UNL     1      -5.932   0.351   6.070  0.00  0.00    +0.002 A 
ATOM     18  C   UNL     1      -6.781   1.182   6.777  0.00  0.00    +0.003 A 
ATOM     19  C   UNL     1      -6.411   2.487   7.047  0.00  0.00    +0.040 A 
ATOM     20  C   UNL     1      -5.190   2.966   6.609  0.00  0.00    +0.144 A 
ATOM     21  F   UNL     1      -4.829   4.241   6.871  0.00  0.00    -0.204 F 
ENDBRANCH  12  15
ENDBRANCH   3   7
BRANCH   1  22
ATOM     22  S   UNL     1      -0.938   1.709  -1.418  0.00  0.00    -0.085 S 
BRANCH  22  28
ATOM     23  C   UNL     1      -0.297   0.705  -6.395  0.00  0.00    +0.066 C 
ATOM     24  C   UNL     1       0.148   0.477  -4.973  0.00  0.00    +0.043 A 
ATOM     25  C   UNL     1       1.212  -0.370  -4.699  0.00  0.00    +0.043 A 
ATOM     26  C   UNL     1       1.589  -0.553  -3.378  0.00  0.00    +0.115 A 
ATOM     27  N   UNL     1       0.928   0.081  -2.424  0.00  0.00    -0.230 NA
ATOM     28  C   UNL     1      -0.085   0.884  -2.720  0.00  0.00    +0.189 A 
ATOM     29  N   UNL     1      -0.474   1.076  -3.973  0.00  0.00    -0.227 NA
ENDBRANCH  22  28
ENDBRANCH   1  22
BRANCH   5  30
ATOM     30  C   UNL     1       2.844   2.851   1.565  0.00  0.00    -0.042 C 
BRANCH  30  31
ATOM     31  C   UNL     1       2.368   4.219   1.150  0.00  0.00    -0.064 A 
ATOM     32  C   UNL     1       2.492   4.624  -0.166  0.00  0.00    +0.003 A 
ATOM     33  C   UNL     1       2.050   5.876  -0.549  0.00  0.00    +0.020 A 
ATOM     34  C   UNL     1       1.493   6.729   0.387  0.00  0.00    +0.041 A 
ATOM     35  C   UNL     1       1.374   6.325   1.705  0.00  0.00    +0.020 A 
ATOM     36  C   UNL     1       1.811   5.071   2.086  0.00  0.00    +0.003 A 
ATOM     37 CL   UNL     1       0.944   8.305  -0.091  0.00  0.00    -0.084 Cl
ENDBRANCH  30  31
ENDBRANCH   5  30
TORSDOF 6
