REMARK  Name = ZINC24630921
REMARK  9 active torsions:
REMARK  status: ('A' for Active; 'I' for Inactive)
REMARK    1  A    between atoms: C_1  and  C_2
REMARK    2  A    between atoms: C_2  and  C_4
REMARK    3  A    between atoms: C_7  and  S_10
REMARK    4  A    between atoms: S_10  and  N_13
REMARK    5  A    between atoms: C_16  and  C_19
REMARK    6  A    between atoms: N_21  and  C_22
REMARK    7  A    between atoms: C_22  and  C_23
REMARK    8  A    between atoms: C_23  and  C_25
REMARK    9  A    between atoms: C_23  and  N_30
REMARK                            x       y       z     vdW  Elec       q    Type
REMARK                         _______ _______ _______ _____ _____    ______ ____
ROOT
ATOM      1  N   UNL     1       6.167   9.427  -2.631  0.00  0.00    -0.177 NA
ATOM      2  C   UNL     1       6.822   8.361  -3.401  0.00  0.00    +0.110 C 
ATOM      3  C   UNL     1       5.840   7.196  -3.564  0.00  0.00    +0.030 C 
ATOM      4  C   UNL     1       5.340   6.759  -2.185  0.00  0.00    +0.077 C 
ATOM      5  C   UNL     1       4.603   7.921  -1.516  0.00  0.00    +0.030 C 
ATOM      6  C   UNL     1       5.570   9.094  -1.330  0.00  0.00    +0.110 C 
ENDROOT
BRANCH   4   7
ATOM      7  C   UNL     1       4.400   5.591  -2.340  0.00  0.00    +0.216 C 
ATOM      8  O   UNL     1       4.155   5.151  -3.443  0.00  0.00    -0.276 OA
ATOM      9  N   UNL     1       3.832   5.035  -1.251  0.00  0.00    -0.316 N 
ATOM     10  H   UNL     1       4.055   5.433  -0.250  0.00  0.00    +0.149 HD
BRANCH   9  11
ATOM     11  C   UNL     1       2.919   3.899  -1.401  0.00  0.00    +0.094 C 
BRANCH  11  12
ATOM     12  C   UNL     1       2.301   3.558  -0.043  0.00  0.00    -0.013 C 
BRANCH  12  13
ATOM     13  N   UNL     1       1.490   4.690   0.424  0.00  0.00    +0.386 N 
ATOM     14  C   UNL     1       0.658   4.303   1.592  0.00  0.00    -0.078 C 
ATOM     15  C   UNL     1       0.313   5.664   2.248  0.00  0.00    -0.020 C 
ATOM     16  C   UNL     1       1.614   6.477   2.063  0.00  0.00    -0.020 C 
ATOM     17  C   UNL     1       2.348   5.801   0.890  0.00  0.00    -0.078 C 
ATOM     18  H   UNL     1       0.873   4.991  -0.436  0.00  0.00    -0.081 HD
ENDBRANCH  12  13
BRANCH  12  19
ATOM     19  C   UNL     1       1.429   2.337  -0.180  0.00  0.00    -0.022 A 
ATOM     20  C   UNL     1       1.669   1.067   0.226  0.00  0.00    +0.009 A 
ATOM     21  C   UNL     1       0.713   0.096  -0.009  0.00  0.00    +0.008 A 
ATOM     22  C   UNL     1      -0.436   0.444  -0.638  0.00  0.00    +0.045 A 
ATOM     23  S   UNL     1      -0.189   2.189  -0.920  0.00  0.00    -0.103 S 
ENDBRANCH  12  19
ENDBRANCH  11  12
ENDBRANCH   9  11
ENDBRANCH   4   7
BRANCH   1  24
ATOM     24  S   UNL     1       6.102  10.974  -3.218  0.00  0.00    +0.061 S 
ATOM     25  O   UNL     1       5.947  11.829  -2.093  0.00  0.00    -0.153 OA
ATOM     26  O   UNL     1       7.181  11.106  -4.133  0.00  0.00    -0.153 OA
BRANCH  24  30
ATOM     27  C   UNL     1       2.292  11.328  -5.647  0.00  0.00    +0.017 A 
ATOM     28  C   UNL     1       2.284  11.623  -4.280  0.00  0.00    +0.013 A 
ATOM     29  C   UNL     1       3.447  11.513  -3.548  0.00  0.00    +0.029 A 
ATOM     30  C   UNL     1       4.621  11.111  -4.162  0.00  0.00    +0.106 A 
ATOM     31  C   UNL     1       4.638  10.822  -5.516  0.00  0.00    +0.029 A 
ATOM     32  C   UNL     1       3.482  10.922  -6.261  0.00  0.00    +0.013 A 
BRANCH  27  34
ATOM     33  C   UNL     1       1.068  11.123  -7.908  0.00  0.00    +0.091 C 
ATOM     34  C   UNL     1       1.055  11.442  -6.436  0.00  0.00    +0.160 C 
ATOM     35  O   UNL     1       0.025  11.793  -5.901  0.00  0.00    -0.292 OA
ENDBRANCH  27  34
ENDBRANCH  24  30
ENDBRANCH   1  24
TORSDOF 8
