REMARK  Name = ZINC20837404
REMARK  7 active torsions:
REMARK  status: ('A' for Active; 'I' for Inactive)
REMARK    1  A    between atoms: C_1  and  C_2
REMARK    2  A    between atoms: C_2  and  C_25
REMARK    3  A    between atoms: N_3  and  N_4
REMARK    4  A    between atoms: C_7  and  S_10
REMARK    5  A    between atoms: S_10  and  C_11
REMARK    6  A    between atoms: C_11  and  C_12
REMARK    7  A    between atoms: C_12  and  C_13
REMARK                            x       y       z     vdW  Elec       q    Type
REMARK                         _______ _______ _______ _____ _____    ______ ____
ROOT
ATOM      1  N   UNL     1      -3.163   4.769   3.564  0.00  0.00    -0.205 N 
ATOM      2  C   UNL     1      -4.303   5.553   3.452  0.00  0.00    +0.232 A 
ATOM      3  N   UNL     1      -5.037   6.058   4.489  0.00  0.00    -0.186 NA
ATOM      4  C   UNL     1      -6.076   6.771   3.963  0.00  0.00    +0.210 A 
ATOM      5  N   UNL     1      -5.990   6.710   2.656  0.00  0.00    -0.144 NA
ATOM      6  N   UNL     1      -4.863   5.943   2.333  0.00  0.00    -0.245 N 
ATOM      7  H   UNL     1      -2.774   4.503   4.558  0.00  0.00    +0.177 HD
ATOM      8  H   UNL     1      -4.424   5.650   1.367  0.00  0.00    +0.192 HD
ENDROOT
BRANCH   1  11
ATOM      9  C   UNL     1      -0.922   3.231   3.877  0.00  0.00    +0.063 C 
ATOM     10  C   UNL     1      -1.455   3.595   2.515  0.00  0.00    +0.040 C 
ATOM     11  N   UNL     1      -2.507   4.317   2.412  0.00  0.00    -0.189 NA
BRANCH  10  12
ATOM     12  C   UNL     1      -0.750   3.109   1.275  0.00  0.00    +0.011 C 
ATOM     13  C   UNL     1      -0.729   1.579   1.267  0.00  0.00    +0.016 C 
ATOM     14  C   UNL     1      -0.013   1.086   0.008  0.00  0.00    -0.010 C 
ATOM     15  C   UNL     1      -0.753   1.593  -1.232  0.00  0.00    +0.007 C 
ATOM     16  C   UNL     1      -0.773   3.123  -1.223  0.00  0.00    -0.010 C 
ATOM     17  C   UNL     1      -1.490   3.616   0.036  0.00  0.00    +0.016 C 
ATOM     18  C   UNL     1       0.662   3.652  -1.234  0.00  0.00    +0.007 C 
ATOM     19  C   UNL     1       1.402   3.145   0.006  0.00  0.00    -0.010 C 
ATOM     20  C   UNL     1       1.423   1.615  -0.003  0.00  0.00    +0.007 C 
ATOM     21  C   UNL     1       0.686   3.639   1.264  0.00  0.00    +0.016 C 
ENDBRANCH  10  12
ENDBRANCH   1  11
BRANCH   4  22
ATOM     22  S   UNL     1      -7.315   7.625   4.881  0.00  0.00    -0.084 S 
BRANCH  22  23
ATOM     23  C   UNL     1      -8.380   8.354   3.606  0.00  0.00    +0.086 C 
BRANCH  23  24
ATOM     24  C   UNL     1      -9.514   9.134   4.274  0.00  0.00    +0.107 C 
BRANCH  24  25
ATOM     25  C   UNL     1     -10.399   9.740   3.216  0.00  0.00    +0.219 C 
ATOM     26  O   UNL     1     -10.147   9.565   2.042  0.00  0.00    -0.275 OA
ATOM     27  N   UNL     1     -11.470  10.477   3.573  0.00  0.00    -0.265 N 
ATOM     28  C   UNL     1     -12.283  11.034   2.599  0.00  0.00    +0.165 A 
ATOM     29  N   UNL     1     -13.357  11.773   2.748  0.00  0.00    -0.225 NA
ATOM     30  C   UNL     1     -14.059  12.254   1.700  0.00  0.00    +0.080 A 
ATOM     31  C   UNL     1     -15.224  13.055   1.722  0.00  0.00    +0.029 A 
ATOM     32  C   UNL     1     -15.817  13.461   0.555  0.00  0.00    +0.002 A 
ATOM     33  C   UNL     1     -15.301  13.104  -0.683  0.00  0.00    +0.001 A 
ATOM     34  C   UNL     1     -14.163  12.322  -0.742  0.00  0.00    +0.017 A 
ATOM     35  C   UNL     1     -13.562  11.910   0.421  0.00  0.00    +0.041 A 
ATOM     36  S   UNL     1     -12.131  10.936   0.821  0.00  0.00    -0.052 S 
ATOM     37  H   UNL     1     -11.698  10.636   4.637  0.00  0.00    +0.157 HD
ENDBRANCH  24  25
ENDBRANCH  23  24
ENDBRANCH  22  23
ENDBRANCH   4  22
TORSDOF 6
