REMARK  Name = ZINC03841357
REMARK  7 active torsions:
REMARK  status: ('A' for Active; 'I' for Inactive)
REMARK    1  A    between atoms: C_1  and  O_2
REMARK    2  A    between atoms: O_2  and  C_3
REMARK    3  A    between atoms: C_6  and  S_9
REMARK    4  A    between atoms: S_9  and  N_12
REMARK    5  A    between atoms: N_12  and  C_13
REMARK    6  A    between atoms: C_28  and  C_29
REMARK    7  A    between atoms: C_28  and  N_66
REMARK                            x       y       z     vdW  Elec       q    Type
REMARK                         _______ _______ _______ _____ _____    ______ ____
ROOT
ATOM      1  C   UNL     1      -1.071   1.389  -0.844  0.00  0.00    +0.112 A 
ATOM      2  C   UNL     1      -0.822   2.497  -1.608  0.00  0.00    +0.031 A 
ATOM      3  C   UNL     1       0.437   3.103  -1.530  0.00  0.00    +0.023 A 
ATOM      4  C   UNL     1       1.400   2.593  -0.719  0.00  0.00    +0.023 A 
ATOM      5  N   UNL     1       1.186   1.447  -0.028  0.00  0.00    -0.310 N 
ATOM      6  C   UNL     1      -0.049   0.887  -0.014  0.00  0.00    +0.274 A 
ATOM      7  O   UNL     1      -0.276  -0.062   0.719  0.00  0.00    -0.266 OA
ATOM      8  C   UNL     1       2.249   0.731   0.678  0.00  0.00    +0.127 C 
ATOM      9  C   UNL     1       3.433   1.629   0.999  0.00  0.00    -0.007 C 
ATOM     10  C   UNL     1       3.830   2.416  -0.253  0.00  0.00    +0.011 C 
ATOM     11  C   UNL     1       2.684   3.380  -0.580  0.00  0.00    +0.020 C 
ATOM     12  C   UNL     1       2.514   4.338   0.611  0.00  0.00    -0.069 C 
ATOM     13  C   UNL     1       3.127   2.572   2.153  0.00  0.00    -0.074 C 
ATOM     14  N   UNL     1       2.071   3.532   1.771  0.00  0.00    +0.381 N 
ATOM     15  H   UNL     1       1.225   3.011   1.512  0.00  0.00    -0.082 HD
ENDROOT
BRANCH   1  16
ATOM     16  N   UNL     1      -2.325   0.767  -0.881  0.00  0.00    -0.211 N 
ATOM     17  H   UNL     1      -2.473  -0.055  -0.389  0.00  0.00    +0.174 HD
BRANCH  16  18
ATOM     18  S   UNL     1      -3.555   1.436  -1.766  0.00  0.00    +0.073 S 
ATOM     19  O   UNL     1      -3.005   1.781  -3.030  0.00  0.00    -0.150 OA
ATOM     20  O   UNL     1      -4.671   0.567  -1.632  0.00  0.00    -0.150 OA
BRANCH  18  24
ATOM     21  C   UNL     1      -4.695   5.326   0.254  0.00  0.00    +0.120 A 
ATOM     22  C   UNL     1      -3.798   5.329  -0.805  0.00  0.00    +0.047 A 
ATOM     23  C   UNL     1      -3.453   4.141  -1.420  0.00  0.00    +0.032 A 
ATOM     24  C   UNL     1      -3.998   2.950  -0.980  0.00  0.00    +0.109 A 
ATOM     25  C   UNL     1      -4.896   2.944   0.071  0.00  0.00    +0.032 A 
ATOM     26  C   UNL     1      -5.241   4.128   0.693  0.00  0.00    +0.047 A 
BRANCH  21  28
ATOM     27  C   UNL     1      -5.965   6.413   1.943  0.00  0.00    +0.277 C 
ATOM     28  O   UNL     1      -5.037   6.493   0.860  0.00  0.00    -0.495 OA
ENDBRANCH  21  28
ENDBRANCH  18  24
ENDBRANCH  16  18
ENDBRANCH   1  16
BRANCH  14  29
ATOM     29  C   UNL     1       1.758   4.417   2.911  0.00  0.00    -0.075 C 
BRANCH  29  30
ATOM     30  C   UNL     1       3.013   5.155   3.380  0.00  0.00    -0.028 C 
ATOM     31  C   UNL     1       2.939   5.377   4.892  0.00  0.00    +0.002 C 
ATOM     32  C   UNL     1       4.195   6.115   5.361  0.00  0.00    +0.000 C 
ATOM     33  C   UNL     1       4.286   7.467   4.652  0.00  0.00    +0.000 C 
ATOM     34  C   UNL     1       4.360   7.246   3.140  0.00  0.00    +0.000 C 
ATOM     35  C   UNL     1       3.105   6.508   2.671  0.00  0.00    +0.002 C 
ENDBRANCH  29  30
ENDBRANCH  14  29
TORSDOF 6
