REMARK  Name = ZINC05705855
REMARK  8 active torsions:
REMARK  status: ('A' for Active; 'I' for Inactive)
REMARK    1  A    between atoms: C_1  and  C_2
REMARK    2  A    between atoms: C_6  and  C_31
REMARK    3  A    between atoms: C_6  and  C_32
REMARK    4  A    between atoms: C_11  and  C_29
REMARK    5  A    between atoms: C_11  and  O_30
REMARK    6  A    between atoms: C_12  and  C_14
REMARK    7  A    between atoms: C_14  and  C_15
REMARK    8  A    between atoms: N_17  and  N_18
REMARK                            x       y       z     vdW  Elec       q    Type
REMARK                         _______ _______ _______ _____ _____    ______ ____
ROOT
ATOM      1  C   UNL     1      -0.096   0.372  -2.084  0.00  0.00    +0.104 C 
ENDROOT
BRANCH   1  12
ATOM      2  C   UNL     1       0.078   1.368   0.500  0.00  0.00    +0.012 C 
ATOM      3  C   UNL     1       0.552  -0.069   0.285  0.00  0.00    -0.023 C 
ATOM      4  C   UNL     1      -0.635  -1.010   0.545  0.00  0.00    +0.007 C 
ATOM      5  C   UNL     1      -1.056  -0.917   2.010  0.00  0.00    +0.001 C 
ATOM      6  C   UNL     1       0.086  -1.377   2.907  0.00  0.00    +0.007 C 
ATOM      7  C   UNL     1       1.354  -0.555   2.673  0.00  0.00    -0.032 C 
ATOM      8  C   UNL     1       1.701  -0.458   1.203  0.00  0.00    +0.001 C 
ATOM      9  C   UNL     1       2.898   0.454   0.944  0.00  0.00    +0.007 C 
ATOM     10  C   UNL     1       3.402   0.196  -0.475  0.00  0.00    +0.035 C 
ATOM     11  C   UNL     1       2.322   0.385  -1.525  0.00  0.00    +0.067 C 
ATOM     12  C   UNL     1       0.983  -0.238  -1.174  0.00  0.00    +0.035 C 
ATOM     13  C   UNL     1       2.169   1.873  -1.861  0.00  0.00    +0.041 C 
ATOM     14  C   UNL     1       2.500  -1.315   3.388  0.00  0.00    +0.011 C 
ATOM     15  C   UNL     1       1.230   0.807   3.351  0.00  0.00    +0.011 C 
BRANCH  11  16
ATOM     16  O   UNL     1       2.788  -0.263  -2.736  0.00  0.00    -0.389 OA
ATOM     17  H   UNL     1       3.616   0.098  -3.081  0.00  0.00    +0.210 HD
ENDBRANCH  11  16
ENDBRANCH   1  12
BRANCH   1  18
ATOM     18  C   UNL     1       0.198   0.016  -3.519  0.00  0.00    +0.233 C 
ATOM     19  O   UNL     1       0.952  -0.898  -3.775  0.00  0.00    -0.274 OA
ATOM     20  N   UNL     1      -0.379   0.714  -4.518  0.00  0.00    -0.206 N 
ATOM     21  H   UNL     1      -0.982   1.446  -4.313  0.00  0.00    +0.177 HD
BRANCH  20  22
ATOM     22  N   UNL     1      -0.106   0.384  -5.851  0.00  0.00    -0.175 NA
ATOM     23  C   UNL     1      -0.666   1.062  -6.823  0.00  0.00    +0.152 C 
ATOM     24  C   UNL     1      -0.503   0.854  -8.280  0.00  0.00    +0.028 A 
ATOM     25  C   UNL     1       0.235  -0.051  -9.036  0.00  0.00    +0.012 A 
ATOM     26  C   UNL     1       0.182   0.005 -10.414  0.00  0.00    +0.001 A 
ATOM     27  C   UNL     1      -0.602   0.959 -11.040  0.00  0.00    +0.002 A 
ATOM     28  C   UNL     1      -1.337   1.862 -10.299  0.00  0.00    +0.024 A 
ATOM     29  C   UNL     1      -1.297   1.821  -8.910  0.00  0.00    +0.043 A 
ATOM     30  N   UNL     1      -1.929   2.597  -7.944  0.00  0.00    -0.280 N 
ATOM     31  C   UNL     1      -1.604   2.197  -6.703  0.00  0.00    +0.269 C 
ATOM     32  O   UNL     1      -2.008   2.686  -5.664  0.00  0.00    -0.268 OA
ATOM     33  H   UNL     1      -2.531   3.331  -8.141  0.00  0.00    +0.155 HD
ENDBRANCH  20  22
ENDBRANCH   1  18
TORSDOF 4
