REMARK  Name = ZINC11381507
REMARK  11 active torsions:
REMARK  status: ('A' for Active; 'I' for Inactive)
REMARK    1  A    between atoms: C_1  and  C_2
REMARK    2  A    between atoms: C_2  and  C_25
REMARK    3  A    between atoms: N_5  and  C_9
REMARK    4  A    between atoms: C_9  and  C_10
REMARK    5  A    between atoms: N_12  and  C_13
REMARK    6  A    between atoms: C_13  and  C_14
REMARK    7  A    between atoms: C_14  and  C_15
REMARK    8  A    between atoms: C_28  and  C_31
REMARK    9  A    between atoms: C_31  and  C_32
REMARK   10  A    between atoms: C_31  and  C_33
REMARK   11  A    between atoms: C_31  and  C_34
REMARK                            x       y       z     vdW  Elec       q    Type
REMARK                         _______ _______ _______ _____ _____    ______ ____
ROOT
ATOM      1  C   UNL     1      10.104  -3.048  -6.469  0.00  0.00    +0.047 C 
ATOM      2  C   UNL     1       8.628  -2.768  -6.182  0.00  0.00    +0.135 C 
ATOM      3  C   UNL     1       8.463  -2.122  -4.820  0.00  0.00    +0.251 C 
ATOM      4  O   UNL     1       8.919  -1.060  -4.453  0.00  0.00    -0.272 OA
ATOM      5  N   UNL     1       7.704  -2.974  -4.103  0.00  0.00    -0.215 N 
ATOM      6  C   UNL     1       7.373  -4.059  -4.813  0.00  0.00    +0.310 C 
ATOM      7  O   UNL     1       6.697  -4.970  -4.379  0.00  0.00    -0.252 OA
ATOM      8  N   UNL     1       7.871  -4.026  -6.062  0.00  0.00    -0.281 N 
ATOM      9  H   UNL     1       7.758  -4.701  -6.749  0.00  0.00    +0.152 HD
ENDROOT
BRANCH   2  10
ATOM     10  C   UNL     1       8.037  -1.894  -7.258  0.00  0.00    -0.015 A 
ATOM     11  C   UNL     1       8.014  -0.521  -7.099  0.00  0.00    +0.006 A 
ATOM     12  C   UNL     1       7.476   0.281  -8.088  0.00  0.00    +0.004 A 
ATOM     13  C   UNL     1       6.951  -0.291  -9.232  0.00  0.00    -0.042 A 
ATOM     14  C   UNL     1       6.969  -1.664  -9.389  0.00  0.00    +0.004 A 
ATOM     15  C   UNL     1       7.511  -2.465  -8.402  0.00  0.00    +0.006 A 
BRANCH  13  16
ATOM     16  C   UNL     1       6.360   0.583 -10.308  0.00  0.00    -0.013 C 
ATOM     17  C   UNL     1       4.889   0.216 -10.512  0.00  0.00    +0.015 C 
ATOM     18  C   UNL     1       6.465   2.051  -9.888  0.00  0.00    +0.015 C 
ATOM     19  C   UNL     1       7.125   0.371 -11.615  0.00  0.00    +0.015 C 
ENDBRANCH  13  16
ENDBRANCH   2  10
BRANCH   5  20
ATOM     20  C   UNL     1       7.295  -2.743  -2.715  0.00  0.00    +0.213 C 
BRANCH  20  21
ATOM     21  C   UNL     1       5.983  -2.002  -2.694  0.00  0.00    +0.231 C 
ATOM     22  O   UNL     1       5.442  -1.697  -3.736  0.00  0.00    -0.274 OA
ATOM     23  N   UNL     1       5.411  -1.679  -1.517  0.00  0.00    -0.314 N 
ATOM     24  H   UNL     1       5.844  -1.923  -0.684  0.00  0.00    +0.149 HD
BRANCH  23  25
ATOM     25  C   UNL     1       4.136  -0.958  -1.497  0.00  0.00    +0.109 C 
BRANCH  25  26
ATOM     26  C   UNL     1       3.709  -0.717  -0.047  0.00  0.00    +0.054 C 
BRANCH  26  27
ATOM     27  C   UNL     1       2.397   0.024  -0.026  0.00  0.00    -0.042 A 
ATOM     28  C   UNL     1       1.207  -0.680  -0.016  0.00  0.00    +0.007 A 
ATOM     29  C   UNL     1       0.002  -0.004   0.002  0.00  0.00    +0.050 A 
ATOM     30  C   UNL     1      -0.017   1.383   0.010  0.00  0.00    +0.162 A 
ATOM     31  C   UNL     1       1.179   2.090   0.002  0.00  0.00    +0.162 A 
ATOM     32  C   UNL     1       2.386   1.406  -0.017  0.00  0.00    +0.053 A 
ATOM     33  O   UNL     1       1.184   3.451   0.018  0.00  0.00    -0.485 OA
ATOM     34  C   UNL     1      -0.040   4.103  -0.340  0.00  0.00    +0.270 C 
ATOM     35  C   UNL     1      -1.189   3.413   0.408  0.00  0.00    +0.270 C 
ATOM     36  O   UNL     1      -1.212   2.035   0.019  0.00  0.00    -0.485 OA
ENDBRANCH  26  27
ENDBRANCH  25  26
ENDBRANCH  23  25
ENDBRANCH  20  21
ENDBRANCH   5  20
TORSDOF 7
