REMARK  Name = ZINC02272316
REMARK  8 active torsions:
REMARK  status: ('A' for Active; 'I' for Inactive)
REMARK    1  A    between atoms: C_1  and  C_2
REMARK    2  A    between atoms: C_2  and  O_3
REMARK    3  A    between atoms: O_3  and  C_4
REMARK    4  A    between atoms: C_4  and  C_6
REMARK    5  A    between atoms: C_7  and  N_34
REMARK    6  A    between atoms: C_11  and  C_13
REMARK    7  A    between atoms: C_18  and  N_19
REMARK    8  A    between atoms: C_25  and  C_28
REMARK                            x       y       z     vdW  Elec       q    Type
REMARK                         _______ _______ _______ _____ _____    ______ ____
ROOT
ATOM      1  C   UNL     1      -2.702   1.987   0.497  0.00  0.00    +0.105 C 
ATOM      2  C   UNL     1      -2.449   3.309   0.310  0.00  0.00    +0.195 C 
ATOM      3  O   UNL     1      -1.330   3.724  -0.303  0.00  0.00    -0.446 OA
ATOM      4  C   UNL     1      -0.254   2.916  -0.352  0.00  0.00    +0.115 C 
ATOM      5  C   UNL     1      -0.373   1.583  -0.220  0.00  0.00    +0.045 C 
ATOM      6  C   UNL     1      -1.723   0.951   0.021  0.00  0.00    +0.100 C 
ATOM      7  C   UNL     1       0.753   0.738  -0.284  0.00  0.00    +0.164 C 
ATOM      8  O   UNL     1       0.609  -0.459  -0.136  0.00  0.00    -0.292 OA
ATOM      9  C   UNL     1       2.129   1.291  -0.538  0.00  0.00    +0.088 C 
ATOM     10  C   UNL     1       2.001   2.588  -1.344  0.00  0.00    +0.034 C 
ATOM     11  C   UNL     1       1.099   3.552  -0.571  0.00  0.00    +0.083 C 
ENDROOT
BRANCH   6  12
ATOM     12  C   UNL     1      -2.222   0.345  -1.265  0.00  0.00    -0.005 A 
ATOM     13  C   UNL     1      -2.287   1.115  -2.412  0.00  0.00    +0.007 A 
ATOM     14  C   UNL     1      -2.745   0.559  -3.592  0.00  0.00    +0.000 A 
ATOM     15  C   UNL     1      -3.138  -0.766  -3.625  0.00  0.00    +0.002 A 
ATOM     16  C   UNL     1      -3.072  -1.535  -2.479  0.00  0.00    +0.033 A 
ATOM     17  C   UNL     1      -2.610  -0.981  -1.300  0.00  0.00    +0.130 A 
BRANCH  17  18
ATOM     18  N   UNL     1      -2.536  -1.806  -0.073  0.00  0.00    +0.057 N 
ATOM     19  O   UNL     1      -2.132  -2.953  -0.135  0.00  0.00    -0.126 OA
ATOM     20  O   UNL     1      -2.878  -1.337   0.998  0.00  0.00    -0.126 OA
ENDBRANCH  17  18
ENDBRANCH   6  12
BRANCH  10  21
ATOM     21  C   UNL     1       3.363   3.206  -1.528  0.00  0.00    -0.043 A 
ATOM     22  C   UNL     1       4.107   3.579  -0.425  0.00  0.00    +0.004 A 
ATOM     23  C   UNL     1       5.359   4.142  -0.594  0.00  0.00    +0.000 A 
ATOM     24  C   UNL     1       5.861   4.341  -1.866  0.00  0.00    +0.000 A 
ATOM     25  C   UNL     1       5.114   3.973  -2.969  0.00  0.00    +0.000 A 
ATOM     26  C   UNL     1       3.865   3.406  -2.800  0.00  0.00    +0.004 A 
ENDBRANCH  10  21
BRANCH   2  27
ATOM     27  N   UNL     1      -3.353   4.235   0.755  0.00  0.00    -0.329 N 
ATOM     28  H   UNL     1      -3.148   5.181   0.696  0.00  0.00    +0.145 HD
ATOM     29  H   UNL     1      -4.200   3.945   1.130  0.00  0.00    +0.145 HD
ENDBRANCH   2  27
BRANCH   1  30
ATOM     30  C   UNL     1      -3.885   1.587   1.139  0.00  0.00    +0.341 C 
ATOM     31  O   UNL     1      -3.855   1.231   2.303  0.00  0.00    -0.245 OA
BRANCH  30  32
ATOM     32  O   UNL     1      -5.055   1.598   0.465  0.00  0.00    -0.462 OA
BRANCH  32  34
ATOM     33  C   UNL     1      -7.439   1.257   0.260  0.00  0.00    +0.048 C 
ATOM     34  C   UNL     1      -6.219   1.178   1.180  0.00  0.00    +0.229 C 
ENDBRANCH  32  34
ENDBRANCH  30  32
ENDBRANCH   1  30
TORSDOF 7
