REMARK  Name = ZINC06149117
REMARK  14 active torsions:
REMARK  status: ('A' for Active; 'I' for Inactive)
REMARK    1  A    between atoms: C_1  and  C_2
REMARK    2  A    between atoms: C_2  and  C_3
REMARK    3  A    between atoms: C_3  and  C_4
REMARK    4  A    between atoms: C_3  and  C_5
REMARK    5  A    between atoms: C_3  and  N_6
REMARK    6  A    between atoms: C_7  and  C_11
REMARK    7  A    between atoms: C_11  and  C_13
REMARK    8  A    between atoms: C_11  and  N_73
REMARK    9  A    between atoms: C_17  and  C_26
REMARK   10  A    between atoms: C_19  and  C_25
REMARK   11  A    between atoms: C_27  and  C_28
REMARK   12  A    between atoms: C_27  and  N_73
REMARK   13  A    between atoms: C_33  and  C_34
REMARK   14  A    between atoms: C_33  and  N_73
REMARK                            x       y       z     vdW  Elec       q    Type
REMARK                         _______ _______ _______ _____ _____    ______ ____
ROOT
ATOM      1  C   UNL     1      -0.883  -0.172  -0.711  0.00  0.00    +0.039 C 
ENDROOT
BRANCH   1   2
ATOM      2  C   UNL     1       0.205   0.652  -1.351  0.00  0.00    +0.011 A 
ATOM      3  C   UNL     1       1.389   0.076  -1.671  0.00  0.00    +0.017 A 
ATOM      4  C   UNL     1       2.425   0.904  -2.292  0.00  0.00    -0.001 A 
ATOM      5  C   UNL     1       3.667   0.366  -2.645  0.00  0.00    +0.013 A 
ATOM      6  C   UNL     1       4.612   1.166  -3.222  0.00  0.00    -0.050 A 
ATOM      7  C   UNL     1       4.351   2.508  -3.462  0.00  0.00    +0.008 A 
ATOM      8  C   UNL     1       3.135   3.059  -3.123  0.00  0.00    -0.026 A 
ATOM      9  C   UNL     1       2.156   2.265  -2.533  0.00  0.00    +0.052 A 
ATOM     10  N   UNL     1       0.931   2.790  -2.183  0.00  0.00    -0.322 N 
ATOM     11  H   UNL     1       0.742   3.757  -2.355  0.00  0.00    +0.169 HD
ATOM     12  C   UNL     1      -0.014   2.021  -1.614  0.00  0.00    +0.251 A 
ATOM     13  O   UNL     1      -1.088   2.518  -1.322  0.00  0.00    -0.268 OA
ATOM     14  C   UNL     1       2.865   4.518  -3.389  0.00  0.00    +0.046 C 
ATOM     15  C   UNL     1       5.950   0.586  -3.602  0.00  0.00    +0.044 C 
ENDBRANCH   1   2
BRANCH   1  17
ATOM     16  N   UNL     1      -2.458  -1.243  -2.408  0.00  0.00    -0.225 N 
ATOM     17  C   UNL     1      -2.082  -0.216  -1.623  0.00  0.00    +0.143 A 
ATOM     18  N   UNL     1      -2.965   0.736  -1.801  0.00  0.00    -0.115 NA
ATOM     19  N   UNL     1      -3.833   0.319  -2.656  0.00  0.00    -0.023 NA
ATOM     20  N   UNL     1      -3.531  -0.877  -3.023  0.00  0.00    -0.043 NA
BRANCH  16  21
ATOM     21  C   UNL     1      -1.776  -2.533  -2.539  0.00  0.00    +0.061 C 
ATOM     22  C   UNL     1      -0.293  -2.298  -2.834  0.00  0.00    +0.036 C 
ATOM     23  C   UNL     1      -1.918  -3.320  -1.234  0.00  0.00    +0.036 C 
BRANCH  21  25
ATOM     24  C   UNL     1      -1.692  -4.675  -3.822  0.00  0.00    +0.006 C 
ATOM     25  C   UNL     1      -2.405  -3.328  -3.685  0.00  0.00    +0.026 C 
ENDBRANCH  21  25
ENDBRANCH  16  21
ENDBRANCH   1  17
BRANCH   1  26
ATOM     26  N   UNL     1      -1.280   0.456   0.566  0.00  0.00    +0.396 N 
ATOM     27  H   UNL     1      -1.838   1.294   0.367  0.00  0.00    -0.080 HD
BRANCH  26  28
ATOM     28  C   UNL     1      -0.078   0.849   1.331  0.00  0.00    -0.002 C 
BRANCH  28  29
ATOM     29  C   UNL     1      -0.502   1.712   2.491  0.00  0.00    +0.089 A 
ATOM     30  C   UNL     1      -0.703   1.291   3.753  0.00  0.00    +0.042 A 
ATOM     31  C   UNL     1      -1.085   2.424   4.507  0.00  0.00    +0.041 A 
ATOM     32  C   UNL     1      -1.104   3.469   3.659  0.00  0.00    +0.195 A 
ATOM     33  O   UNL     1      -0.750   3.031   2.440  0.00  0.00    -0.470 OA
ENDBRANCH  28  29
ENDBRANCH  26  28
BRANCH  26  34
ATOM     34  C   UNL     1      -2.097  -0.487   1.359  0.00  0.00    -0.045 C 
BRANCH  34  35
ATOM     35  C   UNL     1      -1.265  -1.702   1.772  0.00  0.00    +0.102 C 
ATOM     36  C   UNL     1      -2.169  -2.783   2.407  0.00  0.00    +0.032 C 
ATOM     37  C   UNL     1      -1.304  -3.379   3.539  0.00  0.00    +0.030 C 
ATOM     38  C   UNL     1       0.021  -2.588   3.455  0.00  0.00    +0.160 C 
ATOM     39  O   UNL     1      -0.333  -1.343   2.815  0.00  0.00    -0.378 OA
ENDBRANCH  34  35
ENDBRANCH  26  34
ENDBRANCH   1  26
TORSDOF 9
