REMARK  Name = ZINC39711158
REMARK  14 active torsions:
REMARK  status: ('A' for Active; 'I' for Inactive)
REMARK    1  A    between atoms: C_1  and  C_2
REMARK    2  A    between atoms: C_2  and  C_3
REMARK    3  A    between atoms: C_3  and  C_4
REMARK    4  A    between atoms: C_3  and  C_5
REMARK    5  A    between atoms: C_3  and  N_6
REMARK    6  A    between atoms: C_7  and  C_12
REMARK    7  A    between atoms: C_12  and  C_14
REMARK    8  A    between atoms: C_12  and  N_28
REMARK    9  A    between atoms: C_18  and  C_27
REMARK   10  A    between atoms: C_20  and  C_26
REMARK   11  A    between atoms: N_28  and  C_29
REMARK   12  A    between atoms: N_28  and  C_35
REMARK   13  A    between atoms: C_29  and  C_30
REMARK   14  A    between atoms: C_35  and  C_36
REMARK                            x       y       z     vdW  Elec       q    Type
REMARK                         _______ _______ _______ _____ _____    ______ ____
ROOT
ATOM      1  C   UNL     1      -1.690  -2.919   1.804  0.00  0.00    -0.010 C 
ENDROOT
BRANCH   1   2
ATOM      2  C   UNL     1      -0.673  -2.044   2.540  0.00  0.00    +0.088 C 
ATOM      3  C   UNL     1      -1.367  -1.434   3.742  0.00  0.00    -0.006 C 
ATOM      4  C   UNL     1      -1.391  -0.074   3.826  0.00  0.00    -0.004 A 
ATOM      5  C   UNL     1      -2.040   0.597   4.953  0.00  0.00    -0.042 A 
ATOM      6  C   UNL     1      -2.040   1.954   4.995  0.00  0.00    +0.007 A 
ATOM      7  C   UNL     1      -1.437   2.712   3.991  0.00  0.00    -0.048 A 
ATOM      8  C   UNL     1      -0.819   2.150   2.920  0.00  0.00    +0.027 A 
ATOM      9  C   UNL     1      -0.762   0.751   2.781  0.00  0.00    +0.041 A 
ATOM     10  N   UNL     1      -0.152   0.211   1.726  0.00  0.00    -0.285 N 
ATOM     11  C   UNL     1      -0.065  -1.094   1.533  0.00  0.00    +0.223 C 
ATOM     12  O   UNL     1       0.505  -1.528   0.550  0.00  0.00    -0.275 OA
ATOM     13  C   UNL     1      -1.473   4.215   4.099  0.00  0.00    +0.044 C 
ATOM     14  C   UNL     1      -2.698  -0.204   6.047  0.00  0.00    +0.044 C 
ATOM     15  H   UNL     1       0.246   0.803   1.069  0.00  0.00    +0.155 HD
ENDBRANCH   1   2
BRANCH   1  17
ATOM     16  N   UNL     1      -0.498  -3.356  -0.318  0.00  0.00    -0.211 N 
ATOM     17  C   UNL     1      -0.951  -3.953   0.952  0.00  0.00    +0.183 C 
ATOM     18  N   UNL     1       0.314  -4.357   1.595  0.00  0.00    -0.229 N 
ATOM     19  N   UNL     1       1.330  -3.987   0.707  0.00  0.00    -0.064 NA
ATOM     20  N   UNL     1       0.898  -3.459  -0.314  0.00  0.00    -0.061 NA
ATOM     21  H   UNL     1       0.419  -4.790   2.457  0.00  0.00    +0.172 HD
BRANCH  16  22
ATOM     22  C   UNL     1      -1.338  -2.779  -1.371  0.00  0.00    +0.050 C 
ATOM     23  C   UNL     1      -2.317  -1.779  -0.752  0.00  0.00    +0.033 C 
ATOM     24  C   UNL     1      -2.120  -3.893  -2.068  0.00  0.00    +0.033 C 
BRANCH  22  26
ATOM     25  C   UNL     1      -1.313  -1.576  -3.561  0.00  0.00    +0.006 C 
ATOM     26  C   UNL     1      -0.453  -2.060  -2.392  0.00  0.00    +0.023 C 
ENDBRANCH  22  26
ENDBRANCH  16  22
ENDBRANCH   1  17
BRANCH   1  27
ATOM     27  N   UNL     1      -2.541  -3.609   2.783  0.00  0.00    +0.392 N 
ATOM     28  H   UNL     1      -2.937  -2.933   3.420  0.00  0.00    -0.080 HD
BRANCH  27  29
ATOM     29  C   UNL     1      -3.623  -4.312   2.081  0.00  0.00    -0.002 C 
BRANCH  29  30
ATOM     30  C   UNL     1      -4.641  -3.313   1.597  0.00  0.00    +0.089 A 
ATOM     31  C   UNL     1      -4.774  -2.874   0.332  0.00  0.00    +0.042 A 
ATOM     32  C   UNL     1      -5.845  -1.952   0.328  0.00  0.00    +0.041 A 
ATOM     33  C   UNL     1      -6.304  -1.882   1.591  0.00  0.00    +0.195 A 
ATOM     34  O   UNL     1      -5.574  -2.713   2.354  0.00  0.00    -0.470 OA
ENDBRANCH  29  30
ENDBRANCH  27  29
BRANCH  27  35
ATOM     35  C   UNL     1      -1.734  -4.578   3.536  0.00  0.00    -0.034 C 
BRANCH  35  36
ATOM     36  C   UNL     1      -1.288  -3.958   4.835  0.00  0.00    -0.027 A 
ATOM     37  C   UNL     1      -1.886  -3.998   6.051  0.00  0.00    +0.009 A 
ATOM     38  C   UNL     1      -1.287  -3.349   7.114  0.00  0.00    +0.008 A 
ATOM     39  C   UNL     1      -0.120  -2.692   6.910  0.00  0.00    +0.045 A 
ATOM     40  S   UNL     1       0.172  -2.986   5.174  0.00  0.00    -0.103 S 
ENDBRANCH  35  36
ENDBRANCH  27  35
ENDBRANCH   1  27
TORSDOF 9
