REMARK  Name = ZINC06321166
REMARK  9 active torsions:
REMARK  status: ('A' for Active; 'I' for Inactive)
REMARK    1  A    between atoms: C_1  and  C_2
REMARK    2  A    between atoms: C_6  and  C_15
REMARK    3  A    between atoms: C_13  and  C_14
REMARK    4  A    between atoms: C_15  and  C_17
REMARK    5  A    between atoms: C_15  and  N_73
REMARK    6  A    between atoms: N_21  and  C_22
REMARK    7  A    between atoms: C_22  and  C_23
REMARK    8  A    between atoms: C_31  and  C_34
REMARK    9  A    between atoms: C_34  and  C_35
REMARK                            x       y       z     vdW  Elec       q    Type
REMARK                         _______ _______ _______ _____ _____    ______ ____
ROOT
ATOM      1  C   UNL     1       4.339   2.720  -1.886  0.00  0.00    +0.039 C 
ENDROOT
BRANCH   1   7
ATOM      2  C   UNL     1      -2.146   4.394  -5.166  0.00  0.00    +0.044 C 
ATOM      3  C   UNL     1      -0.778   4.796  -4.677  0.00  0.00    -0.047 A 
ATOM      4  C   UNL     1       0.025   3.868  -4.077  0.00  0.00    +0.013 A 
ATOM      5  C   UNL     1       1.295   4.240  -3.623  0.00  0.00    -0.001 A 
ATOM      6  C   UNL     1       2.182   3.272  -2.976  0.00  0.00    +0.017 A 
ATOM      7  C   UNL     1       3.401   3.691  -2.556  0.00  0.00    +0.011 A 
ATOM      8  C   UNL     1       3.794   5.034  -2.740  0.00  0.00    +0.251 A 
ATOM      9  O   UNL     1       4.893   5.390  -2.351  0.00  0.00    -0.268 OA
ATOM     10  N   UNL     1       2.989   5.929  -3.338  0.00  0.00    -0.322 N 
ATOM     11  H   UNL     1       3.291   6.844  -3.451  0.00  0.00    +0.169 HD
ATOM     12  C   UNL     1       1.736   5.567  -3.787  0.00  0.00    +0.049 A 
ATOM     13  C   UNL     1       0.901   6.494  -4.401  0.00  0.00    +0.030 A 
ATOM     14  C   UNL     1      -0.346   6.104  -4.841  0.00  0.00    -0.046 A 
ATOM     15  C   UNL     1      -1.250   7.110  -5.506  0.00  0.00    +0.044 C 
ENDBRANCH   1   7
BRANCH   1  21
ATOM     16  C   UNL     1       5.280   2.218  -4.059  0.00  0.00    -0.077 C 
ATOM     17  C   UNL     1       6.568   2.252  -4.884  0.00  0.00    -0.015 C 
ATOM     18  C   UNL     1       7.588   1.290  -4.269  0.00  0.00    -0.010 C 
ATOM     19  C   UNL     1       7.840   1.687  -2.812  0.00  0.00    -0.015 C 
ATOM     20  C   UNL     1       6.514   1.669  -2.047  0.00  0.00    -0.077 C 
ATOM     21  N   UNL     1       5.586   2.634  -2.674  0.00  0.00    +0.389 N 
ATOM     22  H   UNL     1       6.031   3.559  -2.695  0.00  0.00    -0.080 HD
BRANCH  18  23
ATOM     23  C   UNL     1       8.900   1.363  -5.053  0.00  0.00    +0.038 C 
BRANCH  23  24
ATOM     24  C   UNL     1       8.677   0.854  -6.454  0.00  0.00    -0.047 A 
ATOM     25  C   UNL     1       8.856  -0.486  -6.739  0.00  0.00    +0.003 A 
ATOM     26  C   UNL     1       8.648  -0.953  -8.024  0.00  0.00    +0.000 A 
ATOM     27  C   UNL     1       8.269  -0.078  -9.024  0.00  0.00    +0.000 A 
ATOM     28  C   UNL     1       8.094   1.263  -8.740  0.00  0.00    +0.000 A 
ATOM     29  C   UNL     1       8.299   1.730  -7.455  0.00  0.00    +0.003 A 
ENDBRANCH  23  24
ENDBRANCH  18  23
ENDBRANCH   1  21
BRANCH   1  30
ATOM     30  C   UNL     1       3.678   1.368  -1.791  0.00  0.00    +0.143 A 
ATOM     31  N   UNL     1       3.454   0.536  -2.778  0.00  0.00    -0.115 NA
ATOM     32  N   UNL     1       2.873  -0.508  -2.295  0.00  0.00    -0.023 NA
ATOM     33  N   UNL     1       2.727  -0.365  -1.024  0.00  0.00    -0.044 NA
ATOM     34  N   UNL     1       3.206   0.781  -0.676  0.00  0.00    -0.226 N 
BRANCH  34  35
ATOM     35  C   UNL     1       3.235   1.337   0.679  0.00  0.00    +0.182 C 
BRANCH  35  36
ATOM     36  C   UNL     1       1.924   2.021   0.970  0.00  0.00    -0.026 A 
ATOM     37  C   UNL     1       0.848   1.285   1.431  0.00  0.00    +0.005 A 
ATOM     38  C   UNL     1      -0.356   1.912   1.693  0.00  0.00    +0.000 A 
ATOM     39  C   UNL     1      -0.482   3.275   1.503  0.00  0.00    +0.000 A 
ATOM     40  C   UNL     1       0.595   4.011   1.043  0.00  0.00    +0.000 A 
ATOM     41  C   UNL     1       1.797   3.384   0.777  0.00  0.00    +0.005 A 
ENDBRANCH  35  36
ENDBRANCH  34  35
ENDBRANCH   1  30
TORSDOF 7
