REMARK  Name = ZINC39941884
REMARK  6 active torsions:
REMARK  status: ('A' for Active; 'I' for Inactive)
REMARK    1  A    between atoms: C_1  and  C_2
REMARK    2  A    between atoms: C_2  and  O_4
REMARK    3  A    between atoms: O_4  and  C_5
REMARK    4  A    between atoms: C_9  and  C_30
REMARK    5  A    between atoms: C_14  and  C_29
REMARK    6  A    between atoms: C_22  and  O_28
REMARK                            x       y       z     vdW  Elec       q    Type
REMARK                         _______ _______ _______ _____ _____    ______ ____
ROOT
ATOM      1  C   UNL     1      -1.210  -2.530  -0.159  0.00  0.00    +0.177 C 
ATOM      2  C   UNL     1       0.304  -2.734  -0.199  0.00  0.00    +0.045 C 
ATOM      3  C   UNL     1       0.629  -4.217  -0.377  0.00  0.00    +0.011 C 
ATOM      4  C   UNL     1      -0.009  -4.759  -1.649  0.00  0.00    -0.026 C 
ATOM      5  C   UNL     1       0.265  -6.265  -1.790  0.00  0.00    +0.001 C 
ATOM      6  C   UNL     1       1.749  -6.559  -1.924  0.00  0.00    +0.005 C 
ATOM      7  C   UNL     1       2.059  -8.057  -2.034  0.00  0.00    +0.007 C 
ATOM      8  C   UNL     1       0.838  -8.898  -1.777  0.00  0.00    -0.029 C 
ATOM      9  C   UNL     1       1.130 -10.369  -1.408  0.00  0.00    +0.007 C 
ATOM     10  C   UNL     1      -0.150 -10.817  -0.659  0.00  0.00    +0.001 C 
ATOM     11  C   UNL     1      -0.927  -9.520  -0.296  0.00  0.00    +0.004 C 
ATOM     12  C   UNL     1       0.116  -8.416  -0.503  0.00  0.00    +0.001 C 
ATOM     13  C   UNL     1      -0.349  -6.998  -0.598  0.00  0.00    +0.025 C 
ATOM     14  C   UNL     1      -1.865  -6.827  -0.629  0.00  0.00    +0.118 C 
ATOM     15  C   UNL     1      -2.177  -5.331  -0.494  0.00  0.00    +0.035 C 
ATOM     16  C   UNL     1      -1.523  -4.539  -1.624  0.00  0.00    +0.001 C 
ATOM     17  C   UNL     1      -1.845  -3.055  -1.445  0.00  0.00    +0.048 C 
ATOM     18  C   UNL     1      -0.079  -8.944  -3.000  0.00  0.00    +0.011 C 
ATOM     19  C   UNL     1       0.577  -4.044  -2.874  0.00  0.00    +0.012 C 
ENDROOT
BRANCH  14  20
ATOM     20  O   UNL     1      -2.457  -7.511   0.479  0.00  0.00    -0.391 OA
ATOM     21  H   UNL     1      -3.421  -7.440   0.516  0.00  0.00    +0.210 HD
ENDBRANCH  14  20
BRANCH   1  22
ATOM     22  O   UNL     1      -1.495  -1.134  -0.026  0.00  0.00    -0.462 OA
BRANCH  22  24
ATOM     23  C   UNL     1      -1.891   0.813   1.440  0.00  0.00    +0.136 C 
ATOM     24  C   UNL     1      -1.593  -0.648   1.222  0.00  0.00    +0.304 C 
ATOM     25  O   UNL     1      -1.441  -1.382   2.170  0.00  0.00    -0.251 OA
ENDBRANCH  22  24
ENDBRANCH   1  22
TORSDOF 3
