REMARK  Name = ZINC39315422
REMARK  10 active torsions:
REMARK  status: ('A' for Active; 'I' for Inactive)
REMARK    1  A    between atoms: C_1  and  C_2
REMARK    2  A    between atoms: C_4  and  C_31
REMARK    3  A    between atoms: N_5  and  C_7
REMARK    4  A    between atoms: C_7  and  C_8
REMARK    5  A    between atoms: C_10  and  C_16
REMARK    6  A    between atoms: C_13  and  O_14
REMARK    7  A    between atoms: O_14  and  C_15
REMARK    8  A    between atoms: C_18  and  C_29
REMARK    9  A    between atoms: C_19  and  N_28
REMARK   10  A    between atoms: C_24  and  C_27
REMARK                            x       y       z     vdW  Elec       q    Type
REMARK                         _______ _______ _______ _____ _____    ______ ____
ROOT
ATOM      1  C   UNL     1       1.481  -3.682   1.774  0.00  0.00    +0.016 A 
ATOM      2  C   UNL     1       2.062  -3.332   2.978  0.00  0.00    +0.013 A 
ATOM      3  C   UNL     1       3.372  -3.686   3.243  0.00  0.00    -0.034 A 
ATOM      4  C   UNL     1       4.103  -4.392   2.305  0.00  0.00    +0.008 A 
ATOM      5  C   UNL     1       3.526  -4.745   1.101  0.00  0.00    +0.046 A 
ATOM      6  C   UNL     1       2.211  -4.395   0.834  0.00  0.00    +0.125 A 
ENDROOT
BRANCH   3   7
ATOM      7  C   UNL     1       4.004  -3.302   4.556  0.00  0.00    +0.098 C 
ATOM      8  C   UNL     1       4.486  -4.541   5.289  0.00  0.00    +0.097 C 
ATOM      9  C   UNL     1       5.800  -4.811   5.439  0.00  0.00    +0.195 C 
ATOM     10  O   UNL     1       6.829  -4.057   5.011  0.00  0.00    -0.448 OA
ATOM     11  C   UNL     1       6.569  -3.131   3.953  0.00  0.00    +0.343 C 
ATOM     12  C   UNL     1       5.234  -2.470   4.318  0.00  0.00    +0.030 C 
ATOM     13  C   UNL     1       5.487  -1.185   4.359  0.00  0.00    +0.066 C 
ATOM     14  N   UNL     1       6.812  -0.959   4.172  0.00  0.00    -0.155 NA
ATOM     15  N   UNL     1       7.495  -1.995   3.960  0.00  0.00    -0.138 NA
ATOM     16  C   UNL     1       4.453  -0.111   4.581  0.00  0.00    +0.067 C 
BRANCH   9  17
ATOM     17  N   UNL     1       6.119  -5.972   6.097  0.00  0.00    -0.329 N 
ATOM     18  H   UNL     1       5.414  -6.552   6.427  0.00  0.00    +0.145 HD
ATOM     19  H   UNL     1       7.048  -6.213   6.232  0.00  0.00    +0.145 HD
ENDBRANCH   9  17
BRANCH   8  20
ATOM     20  C   UNL     1       3.521  -5.447   5.836  0.00  0.00    +0.101 C 
ATOM     21  N   UNL     1       2.756  -6.165   6.270  0.00  0.00    -0.191 NA
ENDBRANCH   8  20
ENDBRANCH   3   7
BRANCH   6  22
ATOM     22  O   UNL     1       1.639  -4.745  -0.348  0.00  0.00    -0.495 OA
ATOM     23  C   UNL     1       2.450  -5.479  -1.268  0.00  0.00    +0.277 C 
ENDBRANCH   6  22
BRANCH   1  24
ATOM     24  C   UNL     1       0.053  -3.295   1.486  0.00  0.00    +0.182 C 
BRANCH  24  29
ATOM     25  C   UNL     1      -0.018   1.503   0.010  0.00  0.00    +0.068 C 
ATOM     26  C   UNL     1       0.002  -0.004   0.002  0.00  0.00    +0.074 A 
ATOM     27  C   UNL     1       0.008  -0.818  -1.136  0.00  0.00    +0.061 A 
ATOM     28  C   UNL     1       0.027  -2.108  -0.725  0.00  0.00    +0.051 A 
ATOM     29  N   UNL     1       0.034  -2.109   0.625  0.00  0.00    -0.263 N 
ATOM     30  N   UNL     1       0.023  -0.777   1.058  0.00  0.00    -0.175 NA
ATOM     31  C   UNL     1       0.039  -3.324  -1.615  0.00  0.00    +0.066 C 
ATOM     32 BR   UNL     1      -0.009  -0.222  -2.930  0.00  0.00    -0.047 Br
ENDBRANCH  24  29
ENDBRANCH   1  24
TORSDOF 6
