REMARK  Name = ZINC15026434
REMARK  6 active torsions:
REMARK  status: ('A' for Active; 'I' for Inactive)
REMARK    1  A    between atoms: C_1  and  C_2
REMARK    2  A    between atoms: C_2  and  C_4
REMARK    3  A    between atoms: C_2  and  N_14
REMARK    4  A    between atoms: C_15  and  C_17
REMARK    5  A    between atoms: N_26  and  S_27
REMARK    6  A    between atoms: S_27  and  C_30
REMARK                            x       y       z     vdW  Elec       q    Type
REMARK                         _______ _______ _______ _____ _____    ______ ____
ROOT
ATOM      1  N   UNL     1       5.931   1.221  -4.400  0.00  0.00    -0.305 N 
ATOM      2  C   UNL     1       4.892   0.448  -4.030  0.00  0.00    +0.245 C 
ATOM      3  O   UNL     1       4.653  -0.580  -4.635  0.00  0.00    -0.270 OA
ATOM      4  H   UNL     1       6.122   2.041  -3.918  0.00  0.00    +0.150 HD
ENDROOT
BRANCH   2   5
ATOM      5  C   UNL     1       4.044   0.847  -2.891  0.00  0.00    +0.037 A 
ATOM      6  C   UNL     1       4.316   2.028  -2.195  0.00  0.00    +0.015 A 
ATOM      7  C   UNL     1       3.522   2.394  -1.134  0.00  0.00    +0.026 A 
ATOM      8  C   UNL     1       2.449   1.591  -0.750  0.00  0.00    +0.054 A 
ATOM      9  C   UNL     1       2.171   0.417  -1.440  0.00  0.00    -0.024 A 
ATOM     10  C   UNL     1       2.966   0.046  -2.506  0.00  0.00    +0.018 A 
ATOM     11  C   UNL     1       1.016  -0.469  -1.054  0.00  0.00    +0.038 C 
ATOM     12  C   UNL     1       0.590  -0.191   0.388  0.00  0.00    +0.025 C 
ATOM     13  C   UNL     1       0.376   1.318   0.559  0.00  0.00    +0.131 C 
ATOM     14  N   UNL     1       1.666   1.983   0.334  0.00  0.00    -0.207 N 
BRANCH  14  15
ATOM     15  S   UNL     1       2.184   3.181   1.354  0.00  0.00    +0.043 S 
ATOM     16  O   UNL     1       1.403   3.017   2.530  0.00  0.00    -0.155 OA
ATOM     17  O   UNL     1       3.597   3.035   1.396  0.00  0.00    -0.155 OA
ATOM     18  C   UNL     1       1.739   4.729   0.519  0.00  0.00    +0.218 C 
ENDBRANCH  14  15
ENDBRANCH   2   5
BRANCH   1  20
ATOM     19  C   UNL     1       7.910  -0.069  -5.032  0.00  0.00    +0.033 C 
ATOM     20  C   UNL     1       6.774   0.825  -5.531  0.00  0.00    +0.101 C 
BRANCH  20  21
ATOM     21  C   UNL     1       7.351   2.055  -6.183  0.00  0.00    -0.020 A 
ATOM     22  C   UNL     1       7.534   3.192  -5.458  0.00  0.00    +0.006 A 
ATOM     23  C   UNL     1       8.067   4.338  -6.043  0.00  0.00    +0.001 A 
ATOM     24  C   UNL     1       8.420   4.355  -7.357  0.00  0.00    +0.008 A 
ATOM     25  C   UNL     1       8.247   3.200  -8.138  0.00  0.00    -0.018 A 
ATOM     26  C   UNL     1       7.709   2.032  -7.542  0.00  0.00    -0.013 A 
ATOM     27  C   UNL     1       7.541   0.874  -8.321  0.00  0.00    +0.009 A 
ATOM     28  C   UNL     1       7.900   0.889  -9.634  0.00  0.00    +0.001 A 
ATOM     29  C   UNL     1       8.432   2.036 -10.220  0.00  0.00    +0.001 A 
ATOM     30  C   UNL     1       8.600   3.178  -9.498  0.00  0.00    +0.008 A 
ENDBRANCH  20  21
ENDBRANCH   1  20
TORSDOF 4
