REMARK  Name = ZINC05817431
REMARK  7 active torsions:
REMARK  status: ('A' for Active; 'I' for Inactive)
REMARK    1  A    between atoms: C_1  and  C_2
REMARK    2  A    between atoms: C_2  and  C_3
REMARK    3  A    between atoms: C_2  and  O_4
REMARK    4  A    between atoms: O_4  and  C_5
REMARK    5  A    between atoms: C_7  and  O_23
REMARK    6  A    between atoms: C_13  and  C_16
REMARK    7  A    between atoms: C_19  and  O_22
REMARK                            x       y       z     vdW  Elec       q    Type
REMARK                         _______ _______ _______ _____ _____    ______ ____
ROOT
ATOM      1  C   UNL     1      -0.030  -0.600   2.302  0.00  0.00    +0.128 A 
ATOM      2  C   UNL     1      -1.402  -0.374   2.275  0.00  0.00    +0.092 A 
ATOM      3  C   UNL     1      -2.148  -0.499   3.432  0.00  0.00    +0.135 A 
ATOM      4  C   UNL     1      -1.511  -0.857   4.626  0.00  0.00    +0.106 A 
ATOM      5  C   UNL     1      -0.122  -1.078   4.655  0.00  0.00    +0.145 A 
ATOM      6  C   UNL     1       0.607  -0.954   3.481  0.00  0.00    +0.092 A 
ATOM      7  O   UNL     1       0.490  -1.404   5.811  0.00  0.00    -0.462 OA
ATOM      8  C   UNL     1      -0.197  -1.826   6.875  0.00  0.00    +0.208 A 
ATOM      9  C   UNL     1      -1.541  -1.668   6.991  0.00  0.00    +0.064 A 
ATOM     10  C   UNL     1      -2.264  -1.018   5.881  0.00  0.00    +0.204 A 
ATOM     11  O   UNL     1      -3.417  -0.636   5.997  0.00  0.00    -0.286 OA
ENDROOT
BRANCH   9  12
ATOM     12  C   UNL     1      -2.261  -2.137   8.200  0.00  0.00    -0.011 A 
ATOM     13  C   UNL     1      -3.191  -3.171   8.101  0.00  0.00    +0.012 A 
ATOM     14  C   UNL     1      -3.860  -3.605   9.227  0.00  0.00    +0.046 A 
ATOM     15  C   UNL     1      -3.607  -3.014  10.457  0.00  0.00    +0.117 A 
ATOM     16  C   UNL     1      -2.682  -1.984  10.558  0.00  0.00    +0.046 A 
ATOM     17  C   UNL     1      -2.006  -1.549   9.437  0.00  0.00    +0.012 A 
BRANCH  15  18
ATOM     18  O   UNL     1      -4.267  -3.444  11.565  0.00  0.00    -0.507 OA
ATOM     19  H   UNL     1      -3.818  -4.159  12.037  0.00  0.00    +0.292 HD
ENDBRANCH  15  18
ENDBRANCH   9  12
BRANCH   3  20
ATOM     20  O   UNL     1      -3.487  -0.276   3.411  0.00  0.00    -0.506 OA
ATOM     21  H   UNL     1      -4.013  -1.065   3.223  0.00  0.00    +0.292 HD
ENDBRANCH   3  20
BRANCH   1  22
ATOM     22  O   UNL     1       0.693  -0.477   1.160  0.00  0.00    -0.489 OA
BRANCH  22  24
ATOM     23  C   UNL     1      -0.293   1.273  -0.183  0.00  0.00    +0.051 C 
ATOM     24  C   UNL     1      -0.034  -0.229  -0.045  0.00  0.00    +0.167 C 
ATOM     25  C   UNL     1       0.781  -0.718  -1.243  0.00  0.00    +0.051 C 
ENDBRANCH  22  24
ENDBRANCH   1  22
TORSDOF 5
