REMARK  Name = ZINC03909327
REMARK  3 active torsions:
REMARK  status: ('A' for Active; 'I' for Inactive)
REMARK    1  A    between atoms: C_9  and  C_12
REMARK    2  A    between atoms: N_13  and  N_14
REMARK    3  A    between atoms: C_15  and  C_17
REMARK                            x       y       z     vdW  Elec       q    Type
REMARK                         _______ _______ _______ _____ _____    ______ ____
ROOT
ATOM      1  N   UNL     1      -0.863   3.334   1.472  0.00  0.00    -0.207 N 
ATOM      2  C   UNL     1      -0.724   2.012   1.250  0.00  0.00    +0.238 C 
ATOM      3  O   UNL     1      -1.167   1.213   2.049  0.00  0.00    -0.273 OA
ATOM      4  H   UNL     1      -0.509   3.973   0.834  0.00  0.00    +0.177 HD
ENDROOT
BRANCH   2   5
ATOM      5  C   UNL     1      -0.019   1.526   0.010  0.00  0.00    +0.049 C 
ATOM      6  C   UNL     1       1.417   2.055  -0.000  0.00  0.00    +0.019 C 
ATOM      7  C   UNL     1       2.133   1.562  -1.259  0.00  0.00    -0.009 C 
ATOM      8  C   UNL     1       2.154   0.032  -1.268  0.00  0.00    +0.007 C 
ATOM      9  C   UNL     1       0.718  -0.497  -1.257  0.00  0.00    -0.009 C 
ATOM     10  C   UNL     1       0.002  -0.004   0.002  0.00  0.00    +0.019 C 
ATOM     11  C   UNL     1      -0.022   0.009  -2.496  0.00  0.00    +0.007 C 
ATOM     12  C   UNL     1      -0.043   1.539  -2.488  0.00  0.00    -0.009 C 
ATOM     13  C   UNL     1       1.393   2.069  -2.499  0.00  0.00    +0.007 C 
ATOM     14  C   UNL     1      -0.759   2.033  -1.229  0.00  0.00    +0.019 C 
ENDBRANCH   2   5
BRANCH   1  16
ATOM     15  C   UNL     1      -1.653   5.059   2.838  0.00  0.00    +0.145 C 
ATOM     16  N   UNL     1      -1.519   3.786   2.625  0.00  0.00    -0.187 NA
BRANCH  15  25
ATOM     17  C   UNL     1      -4.729   4.901   8.289  0.00  0.00    +0.001 A 
ATOM     18  C   UNL     1      -4.808   6.281   8.404  0.00  0.00    +0.004 A 
ATOM     19  C   UNL     1      -4.269   7.101   7.436  0.00  0.00    +0.047 A 
ATOM     20  C   UNL     1      -3.638   6.546   6.328  0.00  0.00    +0.138 A 
ATOM     21  C   UNL     1      -3.559   5.149   6.214  0.00  0.00    +0.065 A 
ATOM     22  C   UNL     1      -4.108   4.330   7.200  0.00  0.00    +0.015 A 
ATOM     23  C   UNL     1      -2.886   4.577   5.031  0.00  0.00    +0.201 A 
ATOM     24  O   UNL     1      -2.785   3.373   4.873  0.00  0.00    -0.286 OA
ATOM     25  C   UNL     1      -2.342   5.534   4.050  0.00  0.00    +0.077 A 
ATOM     26  C   UNL     1      -2.486   6.868   4.292  0.00  0.00    +0.209 A 
ATOM     27  O   UNL     1      -3.108   7.338   5.375  0.00  0.00    -0.462 OA
ENDBRANCH  15  25
ENDBRANCH   1  16
TORSDOF 3
