REMARK  Name = ZINC09064667
REMARK  5 active torsions:
REMARK  status: ('A' for Active; 'I' for Inactive)
REMARK    1  A    between atoms: C_3  and  N_23
REMARK    2  A    between atoms: C_4  and  N_20
REMARK    3  A    between atoms: C_6  and  C_7
REMARK    4  A    between atoms: N_9  and  C_10
REMARK    5  A    between atoms: C_10  and  N_12
REMARK                            x       y       z     vdW  Elec       q    Type
REMARK                         _______ _______ _______ _____ _____    ______ ____
ROOT
ATOM      1  C   UNL     1      -3.662   3.795   0.064  0.00  0.00    +0.015 A 
ATOM      2  C   UNL     1      -4.867   4.462   0.072  0.00  0.00    +0.026 A 
ATOM      3  C   UNL     1      -6.059   3.743   0.079  0.00  0.00    +0.060 A 
ATOM      4  C   UNL     1      -6.036   2.351   0.070  0.00  0.00    +0.148 A 
ATOM      5  C   UNL     1      -4.844   1.683   0.056  0.00  0.00    +0.047 A 
ATOM      6  C   UNL     1      -3.642   2.397   0.050  0.00  0.00    +0.039 A 
ENDROOT
BRANCH   3   7
ATOM      7  N   UNL     1      -7.275   4.416   0.094  0.00  0.00    -0.328 N 
ATOM      8  C   UNL     1      -7.457   5.201  -1.134  0.00  0.00    +0.105 C 
ATOM      9  C   UNL     1      -8.861   5.809  -1.149  0.00  0.00    +0.019 C 
ATOM     10  C   UNL     1      -9.037   6.704   0.082  0.00  0.00    +0.003 C 
ATOM     11  C   UNL     1      -8.795   5.874   1.345  0.00  0.00    +0.019 C 
ATOM     12  C   UNL     1      -7.393   5.264   1.288  0.00  0.00    +0.105 C 
ENDBRANCH   3   7
BRANCH   6  13
ATOM     13  C   UNL     1      -2.355   1.677   0.035  0.00  0.00    +0.250 C 
ATOM     14  O   UNL     1      -2.339   0.461   0.027  0.00  0.00    -0.270 OA
ATOM     15  N   UNL     1      -1.197   2.366   0.029  0.00  0.00    -0.264 N 
ATOM     16  H   UNL     1      -1.210   3.336   0.035  0.00  0.00    +0.157 HD
BRANCH  15  17
ATOM     17  C   UNL     1      -0.021   1.708   0.015  0.00  0.00    +0.142 C 
ATOM     18  S   UNL     1       0.002  -0.004   0.005  0.00  0.00    -0.018 S 
BRANCH  17  19
ATOM     19  N   UNL     1       1.137   2.397   0.004  0.00  0.00    -0.282 N 
ATOM     20  C   UNL     1       2.352   1.720   0.094  0.00  0.00    +0.124 A 
ATOM     21  C   UNL     1       3.537   2.442   0.191  0.00  0.00    +0.045 A 
ATOM     22  C   UNL     1       4.735   1.758   0.285  0.00  0.00    +0.020 A 
ATOM     23  C   UNL     1       4.708   0.369   0.268  0.00  0.00    +0.036 A 
ATOM     24  C   UNL     1       3.495  -0.283   0.164  0.00  0.00    +0.128 A 
ATOM     25  N   UNL     1       2.367   0.397   0.081  0.00  0.00    -0.239 NA
ATOM     26 BR   UNL     1       6.316  -0.619   0.387  0.00  0.00    -0.049 Br
ATOM     27  H   UNL     1       1.125   3.365  -0.067  0.00  0.00    +0.155 HD
ENDBRANCH  17  19
ENDBRANCH  15  17
ENDBRANCH   6  13
BRANCH   4  28
ATOM     28  N   UNL     1      -7.307   1.592   0.077  0.00  0.00    +0.058 N 
ATOM     29  O   UNL     1      -7.289   0.374   0.069  0.00  0.00    -0.126 OA
ATOM     30  O   UNL     1      -8.370   2.185   0.089  0.00  0.00    -0.126 OA
ENDBRANCH   4  28
TORSDOF 5
