REMARK  Name = ZINC06443577
REMARK  14 active torsions:
REMARK  status: ('A' for Active; 'I' for Inactive)
REMARK    1  A    between atoms: C_1  and  C_2
REMARK    2  A    between atoms: C_12  and  C_14
REMARK    3  A    between atoms: C_14  and  C_16
REMARK    4  A    between atoms: C_14  and  N_73
REMARK    5  A    between atoms: N_20  and  C_21
REMARK    6  A    between atoms: C_21  and  C_22
REMARK    7  A    between atoms: C_21  and  C_23
REMARK    8  A    between atoms: C_21  and  C_24
REMARK    9  A    between atoms: C_25  and  C_26
REMARK   10  A    between atoms: C_25  and  N_73
REMARK   11  A    between atoms: C_32  and  C_33
REMARK   12  A    between atoms: C_32  and  N_73
REMARK   13  A    between atoms: C_36  and  O_39
REMARK   14  A    between atoms: O_39  and  C_40
REMARK                            x       y       z     vdW  Elec       q    Type
REMARK                         _______ _______ _______ _____ _____    ______ ____
ROOT
ATOM      1  C   UNL     1      -0.686  -3.895   5.282  0.00  0.00    +0.040 C 
ENDROOT
BRANCH   1  13
ATOM      2  C   UNL     1      -1.117  -2.000  -0.997  0.00  0.00    +0.046 C 
ATOM      3  C   UNL     1       0.068  -2.124  -0.074  0.00  0.00    -0.026 A 
ATOM      4  C   UNL     1       1.333  -1.815  -0.526  0.00  0.00    +0.005 A 
ATOM      5  C   UNL     1       2.431  -1.920   0.315  0.00  0.00    +0.001 A 
ATOM      6  C   UNL     1       2.280  -2.342   1.606  0.00  0.00    +0.010 A 
ATOM      7  C   UNL     1       1.007  -2.667   2.085  0.00  0.00    -0.001 A 
ATOM      8  C   UNL     1      -0.110  -2.556   1.236  0.00  0.00    +0.052 A 
ATOM      9  N   UNL     1      -1.363  -2.877   1.713  0.00  0.00    -0.322 N 
ATOM     10  H   UNL     1      -2.132  -2.800   1.127  0.00  0.00    +0.169 HD
ATOM     11  C   UNL     1      -1.535  -3.295   2.980  0.00  0.00    +0.251 A 
ATOM     12  O   UNL     1      -2.657  -3.571   3.368  0.00  0.00    -0.268 OA
ATOM     13  C   UNL     1      -0.448  -3.423   3.871  0.00  0.00    +0.011 A 
ATOM     14  C   UNL     1       0.810  -3.122   3.462  0.00  0.00    +0.017 A 
ENDBRANCH   1  13
BRANCH   1  15
ATOM     15  C   UNL     1       0.630  -3.986   6.010  0.00  0.00    +0.143 A 
ATOM     16  N   UNL     1       1.353  -2.984   6.448  0.00  0.00    -0.115 NA
ATOM     17  N   UNL     1       2.404  -3.469   7.015  0.00  0.00    -0.023 NA
ATOM     18  N   UNL     1       2.370  -4.754   6.950  0.00  0.00    -0.043 NA
ATOM     19  N   UNL     1       1.290  -5.112   6.342  0.00  0.00    -0.225 N 
BRANCH  19  20
ATOM     20  C   UNL     1       0.862  -6.485   6.063  0.00  0.00    +0.059 C 
ATOM     21  C   UNL     1       0.612  -6.646   4.562  0.00  0.00    +0.036 C 
ATOM     22  C   UNL     1       1.955  -7.459   6.505  0.00  0.00    +0.036 C 
ATOM     23  C   UNL     1      -0.428  -6.783   6.830  0.00  0.00    +0.036 C 
ENDBRANCH  19  20
ENDBRANCH   1  15
BRANCH   1  24
ATOM     24  N   UNL     1      -1.589  -2.943   5.961  0.00  0.00    +0.395 N 
ATOM     25  H   UNL     1      -2.483  -2.913   5.456  0.00  0.00    -0.079 HD
BRANCH  24  26
ATOM     26  C   UNL     1      -0.992  -1.591   5.959  0.00  0.00    -0.041 C 
BRANCH  26  27
ATOM     27  C   UNL     1      -1.440  -0.870   4.714  0.00  0.00    -0.064 A 
ATOM     28  C   UNL     1      -0.542  -0.637   3.690  0.00  0.00    +0.002 A 
ATOM     29  C   UNL     1      -0.954   0.020   2.545  0.00  0.00    +0.000 A 
ATOM     30  C   UNL     1      -2.262   0.452   2.429  0.00  0.00    +0.000 A 
ATOM     31  C   UNL     1      -3.159   0.223   3.456  0.00  0.00    +0.000 A 
ATOM     32  C   UNL     1      -2.748  -0.438   4.598  0.00  0.00    +0.002 A 
ENDBRANCH  26  27
ENDBRANCH  24  26
BRANCH  24  33
ATOM     33  C   UNL     1      -1.837  -3.384   7.350  0.00  0.00    -0.041 C 
BRANCH  33  34
ATOM     34  C   UNL     1      -3.015  -2.621   7.898  0.00  0.00    -0.064 A 
ATOM     35  C   UNL     1      -2.812  -1.435   8.579  0.00  0.00    +0.005 A 
ATOM     36  C   UNL     1      -3.891  -0.730   9.078  0.00  0.00    +0.046 A 
ATOM     37  C   UNL     1      -5.178  -1.219   8.903  0.00  0.00    +0.120 A 
ATOM     38  C   UNL     1      -5.378  -2.412   8.224  0.00  0.00    +0.046 A 
ATOM     39  C   UNL     1      -4.296  -3.110   7.723  0.00  0.00    +0.005 A 
BRANCH  37  40
ATOM     40  O   UNL     1      -6.240  -0.530   9.397  0.00  0.00    -0.495 OA
ATOM     41  C   UNL     1      -5.959   0.690  10.085  0.00  0.00    +0.277 C 
ENDBRANCH  37  40
ENDBRANCH  33  34
ENDBRANCH  24  33
ENDBRANCH   1  24
TORSDOF 9
