REMARK  Name = ZINC14513502
REMARK  8 active torsions:
REMARK  status: ('A' for Active; 'I' for Inactive)
REMARK    1  A    between atoms: C_1  and  C_2
REMARK    2  A    between atoms: C_5  and  C_8
REMARK    3  A    between atoms: N_14  and  C_15
REMARK    4  A    between atoms: C_15  and  C_16
REMARK    5  A    between atoms: C_16  and  C_17
REMARK    6  A    between atoms: N_19  and  N_20
REMARK    7  A    between atoms: C_23  and  C_28
REMARK    8  A    between atoms: C_25  and  C_27
REMARK                            x       y       z     vdW  Elec       q    Type
REMARK                         _______ _______ _______ _____ _____    ______ ____
ROOT
ATOM      1  C   UNL     1      -0.792   1.614  -1.263  0.00  0.00    +0.135 C 
ENDROOT
BRANCH   1   8
ATOM      2  C   UNL     1       0.873   1.826  -3.162  0.00  0.00    +0.163 A 
ATOM      3  N   UNL     1       1.280   1.079  -4.150  0.00  0.00    -0.153 NA
ATOM      4  N   UNL     1       0.574  -0.131  -4.099  0.00  0.00    -0.254 N 
ATOM      5  H   UNL     1       0.667  -0.876  -4.713  0.00  0.00    +0.191 HD
ATOM      6  C   UNL     1      -0.260  -0.070  -3.041  0.00  0.00    +0.176 A 
ATOM      7  S   UNL     1      -1.346  -1.294  -2.537  0.00  0.00    -0.011 S 
ATOM      8  N   UNL     1      -0.085   1.130  -2.451  0.00  0.00    -0.303 N 
BRANCH   2  13
ATOM      9  C   UNL     1       2.757   7.130  -1.960  0.00  0.00    +0.044 C 
ATOM     10  C   UNL     1       2.264   5.741  -2.275  0.00  0.00    -0.050 A 
ATOM     11  C   UNL     1       2.420   5.227  -3.550  0.00  0.00    +0.004 A 
ATOM     12  C   UNL     1       1.970   3.957  -3.844  0.00  0.00    +0.012 A 
ATOM     13  C   UNL     1       1.357   3.189  -2.853  0.00  0.00    +0.019 A 
ATOM     14  C   UNL     1       1.199   3.715  -1.571  0.00  0.00    +0.012 A 
ATOM     15  C   UNL     1       1.658   4.985  -1.287  0.00  0.00    +0.004 A 
ENDBRANCH   2  13
ENDBRANCH   1   8
BRANCH   1  16
ATOM     16  C   UNL     1      -0.068   1.128  -0.005  0.00  0.00    +0.119 C 
BRANCH  16  17
ATOM     17  C   UNL     1      -0.796   1.626   1.217  0.00  0.00    +0.231 C 
ATOM     18  O   UNL     1      -1.795   2.303   1.094  0.00  0.00    -0.274 OA
ATOM     19  N   UNL     1      -0.336   1.320   2.446  0.00  0.00    -0.234 N 
ATOM     20  H   UNL     1       0.463   0.779   2.545  0.00  0.00    +0.173 HD
BRANCH  19  21
ATOM     21  N   UNL     1      -1.013   1.783   3.583  0.00  0.00    -0.232 N 
ATOM     22  C   UNL     1      -0.541   1.468   4.845  0.00  0.00    +0.232 A 
ATOM     23  N   UNL     1       0.549   0.723   4.961  0.00  0.00    -0.219 NA
ATOM     24  C   UNL     1       1.029   0.409   6.153  0.00  0.00    +0.044 A 
ATOM     25  C   UNL     1       0.371   0.859   7.287  0.00  0.00    +0.046 A 
ATOM     26  C   UNL     1      -0.769   1.631   7.129  0.00  0.00    +0.044 A 
ATOM     27  N   UNL     1      -1.193   1.914   5.909  0.00  0.00    -0.219 NA
ATOM     28  C   UNL     1      -1.516   2.143   8.334  0.00  0.00    +0.066 C 
ATOM     29  C   UNL     1       2.273  -0.433   6.276  0.00  0.00    +0.066 C 
ATOM     30  H   UNL     1      -1.812   2.324   3.484  0.00  0.00    +0.173 HD
ENDBRANCH  19  21
ENDBRANCH  16  17
ENDBRANCH   1  16
TORSDOF 5
