REMARK  Name = ZINC36593207
REMARK  13 active torsions:
REMARK  status: ('A' for Active; 'I' for Inactive)
REMARK    1  A    between atoms: C_1  and  C_2
REMARK    2  A    between atoms: C_5  and  S_8
REMARK    3  A    between atoms: S_8  and  C_11
REMARK    4  A    between atoms: C_11  and  N_12
REMARK    5  A    between atoms: C_13  and  C_15
REMARK    6  A    between atoms: C_15  and  C_17
REMARK    7  A    between atoms: C_15  and  N_24
REMARK    8  A    between atoms: C_22  and  O_23
REMARK    9  A    between atoms: N_24  and  C_34
REMARK   10  A    between atoms: C_25  and  C_27
REMARK   11  A    between atoms: C_34  and  C_35
REMARK   12  A    between atoms: C_34  and  C_36
REMARK   13  A    between atoms: C_34  and  C_37
REMARK                            x       y       z     vdW  Elec       q    Type
REMARK                         _______ _______ _______ _____ _____    ______ ____
ROOT
ATOM      1  C   UNL     1       1.790  -6.687   2.739  0.00  0.00    +0.196 C 
ENDROOT
BRANCH   1   2
ATOM      2  C   UNL     1       0.973  -5.423   2.815  0.00  0.00    +0.023 A 
ATOM      3  C   UNL     1      -0.407  -5.490   2.819  0.00  0.00    +0.009 A 
ATOM      4  C   UNL     1      -1.157  -4.331   2.888  0.00  0.00    +0.001 A 
ATOM      5  C   UNL     1      -0.529  -3.101   2.953  0.00  0.00    +0.004 A 
ATOM      6  C   UNL     1       0.851  -3.028   2.950  0.00  0.00    +0.046 A 
ATOM      7  C   UNL     1       1.606  -4.191   2.886  0.00  0.00    +0.122 A 
BRANCH   7   8
ATOM      8  O   UNL     1       2.963  -4.122   2.889  0.00  0.00    -0.506 OA
ATOM      9  H   UNL     1       3.351  -3.973   2.015  0.00  0.00    +0.292 HD
ENDBRANCH   7   8
ENDBRANCH   1   2
BRANCH   1  11
ATOM     10  N   UNL     1       0.945  -7.600   0.601  0.00  0.00    -0.294 N 
ATOM     11  C   UNL     1       1.040  -7.722   1.940  0.00  0.00    +0.239 C 
ATOM     12  O   UNL     1       0.523  -8.664   2.502  0.00  0.00    -0.273 OA
ATOM     13  H   UNL     1       1.304  -6.815   0.159  0.00  0.00    +0.150 HD
BRANCH  10  14
ATOM     14  C   UNL     1       0.300  -8.654  -0.186  0.00  0.00    +0.278 C 
BRANCH  14  15
ATOM     15  S   UNL     1      -1.442  -8.225  -0.457  0.00  0.00    +0.013 S 
ATOM     16  O   UNL     1      -2.040  -7.810   0.763  0.00  0.00    -0.168 OA
ATOM     17  O   UNL     1      -2.066  -9.206  -1.273  0.00  0.00    -0.168 OA
BRANCH  15  22
ATOM     18  C   UNL     1      -1.302  -3.250  -3.869  0.00  0.00    +0.044 C 
ATOM     19  C   UNL     1      -1.337  -4.493  -3.017  0.00  0.00    -0.050 A 
ATOM     20  C   UNL     1      -1.365  -5.739  -3.614  0.00  0.00    +0.005 A 
ATOM     21  C   UNL     1      -1.397  -6.879  -2.832  0.00  0.00    +0.027 A 
ATOM     22  C   UNL     1      -1.400  -6.772  -1.454  0.00  0.00    +0.090 A 
ATOM     23  C   UNL     1      -1.371  -5.525  -0.857  0.00  0.00    +0.027 A 
ATOM     24  C   UNL     1      -1.335  -4.386  -1.639  0.00  0.00    +0.005 A 
ENDBRANCH  15  22
ENDBRANCH  14  15
ENDBRANCH  10  14
ENDBRANCH   1  11
BRANCH   1  25
ATOM     25  N   UNL     1       2.030  -7.195   4.093  0.00  0.00    -0.277 N 
ATOM     26  C   UNL     1       2.360  -8.488   4.278  0.00  0.00    +0.248 C 
ATOM     27  O   UNL     1       2.470  -8.932   5.405  0.00  0.00    -0.270 OA
BRANCH  26  28
ATOM     28  C   UNL     1       2.589  -9.366   3.113  0.00  0.00    +0.037 A 
ATOM     29  C   UNL     1       2.942  -8.816   1.879  0.00  0.00    +0.016 A 
ATOM     30  C   UNL     1       3.154  -9.640   0.794  0.00  0.00    +0.039 A 
ATOM     31  C   UNL     1       3.018 -11.013   0.927  0.00  0.00    +0.123 A 
ATOM     32  C   UNL     1       2.668 -11.565   2.150  0.00  0.00    +0.039 A 
ATOM     33  C   UNL     1       2.460 -10.751   3.243  0.00  0.00    +0.016 A 
ATOM     34  F   UNL     1       3.227 -11.817  -0.139  0.00  0.00    -0.205 F 
ENDBRANCH  26  28
BRANCH  25  35
ATOM     35  C   UNL     1       1.911  -6.296   5.244  0.00  0.00    +0.030 C 
ATOM     36  C   UNL     1       0.669  -5.418   5.079  0.00  0.00    +0.031 C 
ATOM     37  C   UNL     1       1.785  -7.123   6.525  0.00  0.00    +0.031 C 
ATOM     38  C   UNL     1       3.155  -5.410   5.329  0.00  0.00    +0.031 C 
ENDBRANCH  25  35
ENDBRANCH   1  25
TORSDOF 9
