REMARK  Name = ZINC07139404
REMARK  7 active torsions:
REMARK  status: ('A' for Active; 'I' for Inactive)
REMARK    1  A    between atoms: C_1  and  C_2
REMARK    2  A    between atoms: C_2  and  C_4
REMARK    3  A    between atoms: C_2  and  O_11
REMARK    4  A    between atoms: N_9  and  C_10
REMARK    5  A    between atoms: O_11  and  C_12
REMARK    6  A    between atoms: C_12  and  C_14
REMARK    7  A    between atoms: C_16  and  C_20
REMARK                            x       y       z     vdW  Elec       q    Type
REMARK                         _______ _______ _______ _____ _____    ______ ____
ROOT
ATOM      1  C   UNL     1      -0.088  -0.673  -2.268  0.00  0.00    +0.358 C 
ATOM      2  O   UNL     1      -1.286  -0.469  -2.225  0.00  0.00    -0.243 OA
ENDROOT
BRANCH   1   3
ATOM      3  C   UNL     1       0.532  -1.147  -3.514  0.00  0.00    +0.143 A 
ATOM      4  C   UNL     1      -0.108  -1.401  -4.713  0.00  0.00    +0.064 A 
ATOM      5  C   UNL     1       0.904  -1.828  -5.591  0.00  0.00    +0.093 A 
ATOM      6  N   UNL     1       2.040  -1.816  -4.925  0.00  0.00    -0.173 NA
ATOM      7  N   UNL     1       1.856  -1.420  -3.717  0.00  0.00    -0.270 N 
ATOM      8  H   UNL     1       2.553  -1.329  -3.048  0.00  0.00    +0.189 HD
BRANCH   5   9
ATOM      9  C   UNL     1       0.725  -2.223  -7.011  0.00  0.00    +0.002 A 
ATOM     10  C   UNL     1      -0.540  -2.184  -7.592  0.00  0.00    +0.011 A 
ATOM     11  C   UNL     1      -0.702  -2.553  -8.912  0.00  0.00    +0.016 A 
ATOM     12  C   UNL     1       0.390  -2.961  -9.658  0.00  0.00    +0.018 A 
ATOM     13  C   UNL     1       1.649  -3.001  -9.085  0.00  0.00    +0.016 A 
ATOM     14  C   UNL     1       1.822  -2.629  -7.767  0.00  0.00    +0.011 A 
ATOM     15 BR   UNL     1       0.161  -3.465 -11.466  0.00  0.00    -0.050 Br
ENDBRANCH   5   9
ENDBRANCH   1   3
BRANCH   1  16
ATOM     16  O   UNL     1       0.671  -0.465  -1.174  0.00  0.00    -0.448 OA
BRANCH  16  18
ATOM     17  C   UNL     1      -0.019   1.526   0.010  0.00  0.00    +0.062 C 
ATOM     18  C   UNL     1       0.002  -0.004   0.002  0.00  0.00    +0.259 C 
BRANCH  18  19
ATOM     19  C   UNL     1       0.731  -0.503   1.223  0.00  0.00    +0.261 C 
ATOM     20  O   UNL     1       1.774  -1.109   1.101  0.00  0.00    -0.271 OA
ATOM     21  N   UNL     1       0.223  -0.277   2.451  0.00  0.00    -0.237 N 
ATOM     22  C   UNL     1       0.875  -0.723   3.542  0.00  0.00    +0.306 C 
ATOM     23  O   UNL     1       1.921  -1.330   3.420  0.00  0.00    -0.252 OA
ATOM     24  N   UNL     1       0.367  -0.496   4.770  0.00  0.00    -0.302 N 
ATOM     25  C   UNL     1       1.076  -0.981   5.957  0.00  0.00    +0.129 C 
ATOM     26  H   UNL     1      -0.611   0.208   2.548  0.00  0.00    +0.159 HD
ATOM     27  H   UNL     1      -0.467  -0.011   4.868  0.00  0.00    +0.150 HD
ENDBRANCH  18  19
ENDBRANCH  16  18
ENDBRANCH   1  16
TORSDOF 5
