REMARK  Name = ZINC02783304
REMARK  14 active torsions:
REMARK  status: ('A' for Active; 'I' for Inactive)
REMARK    1  A    between atoms: C_1  and  C_2
REMARK    2  A    between atoms: C_2  and  C_3
REMARK    3  A    between atoms: C_10  and  N_17
REMARK    4  A    between atoms: C_11  and  C_12
REMARK    5  A    between atoms: C_12  and  O_14
REMARK    6  A    between atoms: O_14  and  C_15
REMARK    7  A    between atoms: C_15  and  C_16
REMARK    8  A    between atoms: C_18  and  C_20
REMARK    9  A    between atoms: C_20  and  C_22
REMARK   10  A    between atoms: C_20  and  O_24
REMARK   11  A    between atoms: C_22  and  C_23
REMARK   12  A    between atoms: O_24  and  C_25
REMARK   13  A    between atoms: C_28  and  C_32
REMARK   14  A    between atoms: C_29  and  C_31
REMARK                            x       y       z     vdW  Elec       q    Type
REMARK                         _______ _______ _______ _____ _____    ______ ____
ROOT
ATOM      1  C   UNL     1       4.611   0.206   7.947  0.00  0.00    -0.006 C 
ATOM      2  C   UNL     1       5.034   1.655   7.686  0.00  0.00    +0.008 C 
ATOM      3  C   UNL     1       5.034   1.934   6.182  0.00  0.00    +0.037 C 
ATOM      4  C   UNL     1       3.683   1.524   5.607  0.00  0.00    -0.021 A 
ATOM      5  C   UNL     1       2.864   0.689   6.283  0.00  0.00    -0.004 A 
ATOM      6  S   UNL     1       1.444   0.508   5.242  0.00  0.00    -0.077 S 
ATOM      7  C   UNL     1       1.928   1.526   3.927  0.00  0.00    +0.086 A 
ATOM      8  C   UNL     1       3.181   1.978   4.321  0.00  0.00    +0.091 A 
ATOM      9  C   UNL     1       3.117   0.061   7.619  0.00  0.00    +0.046 C 
ENDROOT
BRANCH   7  10
ATOM     10  N   UNL     1       1.236   1.814   2.761  0.00  0.00    -0.276 N 
ATOM     11  C   UNL     1       0.021   1.272   2.546  0.00  0.00    +0.258 C 
ATOM     12  O   UNL     1      -0.467   0.531   3.374  0.00  0.00    -0.271 OA
ATOM     13  H   UNL     1       1.627   2.405   2.099  0.00  0.00    +0.155 HD
BRANCH  11  14
ATOM     14  C   UNL     1      -0.731   1.585   1.279  0.00  0.00    +0.259 C 
BRANCH  14  15
ATOM     15  C   UNL     1       0.035   1.022   0.079  0.00  0.00    +0.051 C 
ATOM     16  C   UNL     1      -0.662   1.446  -1.215  0.00  0.00    +0.008 C 
ENDBRANCH  14  15
BRANCH  14  17
ATOM     17  O   UNL     1      -2.030   0.991   1.336  0.00  0.00    -0.480 OA
BRANCH  17  18
ATOM     18  C   UNL     1      -3.063   1.718   0.835  0.00  0.00    +0.122 A 
ATOM     19  C   UNL     1      -2.818   2.927   0.199  0.00  0.00    +0.046 A 
ATOM     20  C   UNL     1      -3.869   3.661  -0.315  0.00  0.00    +0.007 A 
ATOM     21  C   UNL     1      -5.165   3.197  -0.187  0.00  0.00    -0.047 A 
ATOM     22  C   UNL     1      -5.412   1.996   0.451  0.00  0.00    -0.044 A 
ATOM     23  C   UNL     1      -4.364   1.255   0.962  0.00  0.00    +0.049 A 
ATOM     24  C   UNL     1      -6.827   1.493   0.589  0.00  0.00    +0.044 C 
ATOM     25  C   UNL     1      -6.311   4.003  -0.743  0.00  0.00    +0.044 C 
ENDBRANCH  17  18
ENDBRANCH  14  17
ENDBRANCH  11  14
ENDBRANCH   7  10
BRANCH   1  27
ATOM     26  C   UNL     1       4.543  -1.623   9.648  0.00  0.00    +0.004 C 
ATOM     27  C   UNL     1       4.849  -0.141   9.417  0.00  0.00    +0.000 C 
ENDBRANCH   1  27
BRANCH   8  28
ATOM     28  C   UNL     1       3.964   2.880   3.475  0.00  0.00    +0.342 C 
ATOM     29  O   UNL     1       3.842   4.085   3.594  0.00  0.00    -0.245 OA
BRANCH  28  30
ATOM     30  O   UNL     1       4.821   2.376   2.563  0.00  0.00    -0.461 OA
BRANCH  30  31
ATOM     31  C   UNL     1       5.564   3.330   1.759  0.00  0.00    +0.229 C 
ATOM     32  C   UNL     1       6.477   2.577   0.789  0.00  0.00    +0.048 C 
ENDBRANCH  30  31
ENDBRANCH  28  30
ENDBRANCH   8  28
TORSDOF 9
