REMARK  Name = ZINC12705854
REMARK  9 active torsions:
REMARK  status: ('A' for Active; 'I' for Inactive)
REMARK    1  A    between atoms: C_1  and  C_2
REMARK    2  A    between atoms: C_2  and  N_3
REMARK    3  A    between atoms: C_7  and  C_9
REMARK    4  A    between atoms: C_9  and  N_10
REMARK    5  A    between atoms: N_10  and  C_11
REMARK    6  A    between atoms: C_11  and  C_12
REMARK    7  A    between atoms: C_16  and  C_25
REMARK    8  A    between atoms: C_18  and  C_24
REMARK    9  A    between atoms: N_28  and  C_29
REMARK                            x       y       z     vdW  Elec       q    Type
REMARK                         _______ _______ _______ _____ _____    ______ ____
ROOT
ATOM      1  N   UNL     1       0.591  -0.640   1.813  0.00  0.00    -0.283 N 
ATOM      2  C   UNL     1      -0.126  -0.669   2.954  0.00  0.00    +0.303 C 
ATOM      3  O   UNL     1       0.432  -0.851   4.019  0.00  0.00    -0.253 OA
ATOM      4  N   UNL     1      -1.462  -0.498   2.914  0.00  0.00    -0.296 N 
ATOM      5  H   UNL     1      -1.968  -0.334   1.951  0.00  0.00    +0.151 HD
ENDROOT
BRANCH   4   6
ATOM      6  C   UNL     1      -2.242  -0.531   4.154  0.00  0.00    +0.074 C 
ATOM      7  C   UNL     1      -2.586  -1.980   4.503  0.00  0.00    +0.022 C 
ATOM      8  C   UNL     1      -3.400  -2.014   5.798  0.00  0.00    +0.002 C 
ATOM      9  C   UNL     1      -4.691  -1.216   5.609  0.00  0.00    +0.000 C 
ATOM     10  C   UNL     1      -4.348   0.234   5.261  0.00  0.00    +0.002 C 
ATOM     11  C   UNL     1      -3.533   0.268   3.966  0.00  0.00    +0.022 C 
ENDBRANCH   4   6
BRANCH   1  12
ATOM     12  C   UNL     1      -0.082  -0.421   0.530  0.00  0.00    +0.094 C 
BRANCH  12  17
ATOM     13  N   UNL     1      -0.812   1.797   1.336  0.00  0.00    +0.382 N 
ATOM     14  C   UNL     1      -1.623   2.886   0.760  0.00  0.00    -0.078 C 
ATOM     15  C   UNL     1      -1.458   2.818  -0.773  0.00  0.00    -0.020 C 
ATOM     16  C   UNL     1      -1.017   1.349  -1.014  0.00  0.00    -0.016 C 
ATOM     17  C   UNL     1      -0.138   1.079   0.233  0.00  0.00    -0.051 C 
ATOM     18  H   UNL     1      -1.463   1.105   1.890  0.00  0.00    -0.081 HD
BRANCH  13  20
ATOM     19  C   UNL     1      -0.555   3.170   3.348  0.00  0.00    -0.017 C 
ATOM     20  C   UNL     1       0.166   2.321   2.298  0.00  0.00    -0.082 C 
ENDBRANCH  13  20
ENDBRANCH  12  17
ENDBRANCH   1  12
BRANCH   1  21
ATOM     21  C   UNL     1       2.043  -0.826   1.856  0.00  0.00    +0.149 C 
BRANCH  21  22
ATOM     22  C   UNL     1       2.717   0.513   2.018  0.00  0.00    +0.035 A 
ATOM     23  C   UNL     1       3.061   0.951   3.254  0.00  0.00    +0.020 A 
ATOM     24  C   UNL     1       3.714   2.255   3.377  0.00  0.00    -0.001 A 
ATOM     25  C   UNL     1       4.093   2.760   4.626  0.00  0.00    +0.013 A 
ATOM     26  C   UNL     1       4.700   3.981   4.707  0.00  0.00    -0.050 A 
ATOM     27  C   UNL     1       4.946   4.725   3.561  0.00  0.00    +0.008 A 
ATOM     28  C   UNL     1       4.581   4.248   2.320  0.00  0.00    -0.026 A 
ATOM     29  C   UNL     1       3.961   3.007   2.213  0.00  0.00    +0.052 A 
ATOM     30  N   UNL     1       3.587   2.505   0.985  0.00  0.00    -0.322 N 
ATOM     31  H   UNL     1       3.773   3.089   0.072  0.00  0.00    +0.169 HD
ATOM     32  C   UNL     1       2.992   1.303   0.882  0.00  0.00    +0.254 A 
ATOM     33  O   UNL     1       2.679   0.888  -0.221  0.00  0.00    -0.268 OA
ATOM     34  C   UNL     1       4.852   5.067   1.085  0.00  0.00    +0.046 C 
ATOM     35  C   UNL     1       5.108   4.524   6.052  0.00  0.00    +0.044 C 
ENDBRANCH  21  22
ENDBRANCH   1  21
TORSDOF 6
