REMARK  Name = ZINC63646984
REMARK  5 active torsions:
REMARK  status: ('A' for Active; 'I' for Inactive)
REMARK    1  A    between atoms: C_1  and  C_2
REMARK    2  A    between atoms: C_4  and  S_8
REMARK    3  A    between atoms: S_8  and  C_9
REMARK    4  A    between atoms: C_9  and  C_10
REMARK    5  A    between atoms: C_18  and  C_21
REMARK                            x       y       z     vdW  Elec       q    Type
REMARK                         _______ _______ _______ _____ _____    ______ ____
ROOT
ATOM      1  C   UNL     1      -6.453   2.768  -1.976  0.00  0.00    +0.060 A 
ATOM      2  C   UNL     1      -7.375   1.783  -2.184  0.00  0.00    +0.096 A 
ATOM      3  C   UNL     1      -8.696   2.122  -2.496  0.00  0.00    +0.272 A 
ATOM      4  O   UNL     1      -9.521   1.245  -2.692  0.00  0.00    -0.266 OA
ATOM      5  N   UNL     1      -9.063   3.438  -2.580  0.00  0.00    -0.205 N 
ATOM      6  C   UNL     1      -8.065   4.358  -2.396  0.00  0.00    +0.191 A 
ATOM      7  N   UNL     1      -6.834   4.040  -2.087  0.00  0.00    -0.226 NA
ATOM      8  S   UNL     1      -8.854   5.933  -2.683  0.00  0.00    -0.058 S 
ATOM      9  C   UNL     1     -10.423   5.256  -3.379  0.00  0.00    +0.183 C 
ATOM     10  N   UNL     1     -10.333   3.883  -2.817  0.00  0.00    -0.262 N 
ATOM     11  H   UNL     1     -10.847   3.226  -3.385  0.00  0.00    +0.168 HD
ENDROOT
BRANCH   9  12
ATOM     12  C   UNL     1     -11.627   5.995  -2.854  0.00  0.00    -0.016 A 
ATOM     13  C   UNL     1     -12.232   5.585  -1.680  0.00  0.00    +0.006 A 
ATOM     14  C   UNL     1     -13.336   6.262  -1.198  0.00  0.00    +0.000 A 
ATOM     15  C   UNL     1     -13.836   7.349  -1.890  0.00  0.00    +0.000 A 
ATOM     16  C   UNL     1     -13.232   7.760  -3.063  0.00  0.00    +0.000 A 
ATOM     17  C   UNL     1     -12.124   7.085  -3.543  0.00  0.00    +0.006 A 
ENDBRANCH   9  12
BRANCH   1  18
ATOM     18  C   UNL     1      -5.030   2.422  -1.621  0.00  0.00    +0.133 C 
BRANCH  18  19
ATOM     19  S   UNL     1      -3.964   2.692  -3.064  0.00  0.00    -0.080 S 
BRANCH  19  23
ATOM     20  C   UNL     1      -0.013   1.086   0.008  0.00  0.00    +0.090 C 
ATOM     21  C   UNL     1      -0.742   1.585  -1.213  0.00  0.00    +0.149 A 
ATOM     22  N   UNL     1      -2.051   1.825  -1.287  0.00  0.00    -0.206 NA
ATOM     23  C   UNL     1      -2.356   2.250  -2.495  0.00  0.00    +0.185 A 
ATOM     24  H   UNL     1      -1.127   2.558  -4.147  0.00  0.00    +0.191 HD
ATOM     25  N   UNL     1      -1.218   2.286  -3.221  0.00  0.00    -0.254 N 
ATOM     26  N   UNL     1      -0.191   1.857  -2.365  0.00  0.00    -0.157 NA
ENDBRANCH  19  23
ENDBRANCH  18  19
ENDBRANCH   1  18
TORSDOF 4
