REMARK  Name = ZINC00628510
REMARK  9 active torsions:
REMARK  status: ('A' for Active; 'I' for Inactive)
REMARK    1  A    between atoms: C_1  and  C_2
REMARK    2  A    between atoms: C_3  and  C_27
REMARK    3  A    between atoms: C_4  and  C_16
REMARK    4  A    between atoms: C_10  and  C_14
REMARK    5  A    between atoms: C_10  and  C_15
REMARK    6  A    between atoms: C_18  and  O_25
REMARK    7  A    between atoms: C_19  and  O_23
REMARK    8  A    between atoms: O_23  and  C_24
REMARK    9  A    between atoms: O_25  and  C_26
REMARK                            x       y       z     vdW  Elec       q    Type
REMARK                         _______ _______ _______ _____ _____    ______ ____
ROOT
ATOM      1  C   UNL     1       0.002  -0.004   0.002  0.00  0.00    +0.061 C 
ATOM      2  C   UNL     1      -0.018   1.503   0.010  0.00  0.00    +0.019 C 
ATOM      3  C   UNL     1      -1.192   2.154   0.019  0.00  0.00    +0.058 C 
ATOM      4  C   UNL     1      -1.252   3.653   0.027  0.00  0.00    +0.096 C 
ATOM      5  C   UNL     1       0.072   4.248   0.437  0.00  0.00    +0.024 C 
ATOM      6  C   UNL     1       1.201   3.507   0.405  0.00  0.00    +0.016 C 
ATOM      7  N   UNL     1       1.162   2.200   0.003  0.00  0.00    -0.320 N 
ATOM      8  C   UNL     1       2.529   4.096   0.812  0.00  0.00    +0.058 C 
ATOM      9  C   UNL     1       2.545   5.594   0.497  0.00  0.00    -0.023 C 
ATOM     10  C   UNL     1       1.385   6.260   1.246  0.00  0.00    +0.086 C 
ATOM     11  C   UNL     1       0.098   5.591   0.848  0.00  0.00    +0.162 C 
ATOM     12  O   UNL     1      -0.939   6.224   0.884  0.00  0.00    -0.292 OA
ATOM     13  C   UNL     1       2.373   5.804  -1.008  0.00  0.00    +0.011 C 
ATOM     14  C   UNL     1       3.870   6.205   0.954  0.00  0.00    +0.011 C 
ATOM     15  H   UNL     1       2.089   1.709  -0.328  0.00  0.00    +0.152 HD
ENDROOT
BRANCH   4  16
ATOM     16  C   UNL     1      -1.603   4.135  -1.357  0.00  0.00    -0.030 A 
ATOM     17  C   UNL     1      -2.766   4.855  -1.562  0.00  0.00    +0.054 A 
ATOM     18  C   UNL     1      -3.091   5.300  -2.833  0.00  0.00    +0.163 A 
ATOM     19  C   UNL     1      -2.245   5.021  -3.902  0.00  0.00    +0.175 A 
ATOM     20  C   UNL     1      -1.081   4.298  -3.690  0.00  0.00    +0.063 A 
ATOM     21  C   UNL     1      -0.760   3.862  -2.417  0.00  0.00    +0.023 A 
ATOM     22 BR   UNL     1       0.072   3.917  -5.139  0.00  0.00    -0.046 Br
BRANCH  19  23
ATOM     23  O   UNL     1      -2.559   5.455  -5.152  0.00  0.00    -0.490 OA
ATOM     24  C   UNL     1      -2.077   6.746  -5.530  0.00  0.00    +0.277 C 
ENDBRANCH  19  23
BRANCH  18  25
ATOM     25  O   UNL     1      -4.234   6.008  -3.035  0.00  0.00    -0.491 OA
ATOM     26  C   UNL     1      -5.054   6.257  -1.892  0.00  0.00    +0.277 C 
ENDBRANCH  18  25
ENDBRANCH   4  16
BRANCH   3  27
ATOM     27  C   UNL     1      -2.411   1.402   0.027  0.00  0.00    +0.097 C 
ATOM     28  N   UNL     1      -3.378   0.806   0.033  0.00  0.00    -0.191 NA
ENDBRANCH   3  27
TORSDOF 4
