REMARK  Name = ZINC02093675
REMARK  12 active torsions:
REMARK  status: ('A' for Active; 'I' for Inactive)
REMARK    1  A    between atoms: C_1  and  C_2
REMARK    2  A    between atoms: C_2  and  N_71
REMARK    3  A    between atoms: C_3  and  C_4
REMARK    4  A    between atoms: C_3  and  N_71
REMARK    5  A    between atoms: C_5  and  C_6
REMARK    6  A    between atoms: C_5  and  N_71
REMARK    7  A    between atoms: C_6  and  C_7
REMARK    8  A    between atoms: C_7  and  N_8
REMARK    9  A    between atoms: C_28  and  C_30
REMARK   10  A    between atoms: C_33  and  C_36
REMARK   11  A    between atoms: C_36  and  O_38
REMARK   12  A    between atoms: O_38  and  C_39
REMARK                            x       y       z     vdW  Elec       q    Type
REMARK                         _______ _______ _______ _____ _____    ______ ____
ROOT
ATOM      1  N   UNL     1      -3.185  -0.950  -2.892  0.00  0.00    -0.291 N 
ATOM      2  C   UNL     1      -3.087   0.442  -3.298  0.00  0.00    +0.203 C 
ATOM      3  C   UNL     1      -1.951   1.144  -2.628  0.00  0.00    +0.234 C 
ATOM      4  O   UNL     1      -1.758   2.307  -2.913  0.00  0.00    -0.274 OA
ATOM      5  N   UNL     1      -1.152   0.579  -1.742  0.00  0.00    -0.276 N 
ATOM      6  C   UNL     1      -1.307  -0.790  -1.251  0.00  0.00    +0.167 C 
ATOM      7  C   UNL     1      -2.394  -1.512  -1.980  0.00  0.00    +0.237 C 
ATOM      8  O   UNL     1      -2.566  -2.686  -1.726  0.00  0.00    -0.274 OA
ATOM      9  C   UNL     1      -1.629  -0.754   0.249  0.00  0.00    +0.069 C 
ATOM     10  C   UNL     1      -0.700   0.222   0.924  0.00  0.00    -0.015 A 
ATOM     11  C   UNL     1      -0.395   0.344   2.335  0.00  0.00    +0.003 A 
ATOM     12  C   UNL     1      -0.830  -0.360   3.462  0.00  0.00    +0.010 A 
ATOM     13  C   UNL     1      -0.321   0.035   4.675  0.00  0.00    +0.001 A 
ATOM     14  C   UNL     1       0.579   1.082   4.789  0.00  0.00    +0.002 A 
ATOM     15  C   UNL     1       1.025   1.796   3.691  0.00  0.00    +0.026 A 
ATOM     16  C   UNL     1       0.527   1.416   2.446  0.00  0.00    +0.047 A 
ATOM     17  N   UNL     1       0.750   1.892   1.186  0.00  0.00    -0.356 N 
ATOM     18  H   UNL     1       1.342   2.628   0.964  0.00  0.00    +0.166 HD
ATOM     19  C   UNL     1       0.014   1.172   0.283  0.00  0.00    +0.046 A 
ATOM     20  C   UNL     1      -0.024   1.376  -1.215  0.00  0.00    +0.154 C 
ENDROOT
BRANCH  20  21
ATOM     21  C   UNL     1      -0.238   2.835  -1.528  0.00  0.00    -0.021 A 
ATOM     22  C   UNL     1       0.599   3.477  -2.424  0.00  0.00    +0.006 A 
ATOM     23  C   UNL     1       0.405   4.811  -2.718  0.00  0.00    +0.015 A 
ATOM     24  C   UNL     1      -0.631   5.516  -2.102  0.00  0.00    +0.059 A 
ATOM     25  C   UNL     1      -1.468   4.862  -1.195  0.00  0.00    +0.015 A 
ATOM     26  C   UNL     1      -1.267   3.527  -0.914  0.00  0.00    +0.006 A 
BRANCH  24  27
ATOM     27  C   UNL     1      -0.841   6.945  -2.409  0.00  0.00    +0.339 C 
ATOM     28  O   UNL     1      -1.743   7.556  -1.871  0.00  0.00    -0.245 OA
BRANCH  27  29
ATOM     29  O   UNL     1      -0.032   7.572  -3.284  0.00  0.00    -0.464 OA
ATOM     30  C   UNL     1      -0.297   8.977  -3.537  0.00  0.00    +0.280 C 
ENDBRANCH  27  29
ENDBRANCH  24  27
ENDBRANCH  20  21
BRANCH   1  31
ATOM     31  C   UNL     1      -4.213  -1.782  -3.522  0.00  0.00    +0.106 C 
BRANCH  31  32
ATOM     32  C   UNL     1      -5.504  -1.704  -2.705  0.00  0.00    +0.000 C 
BRANCH  32  33
ATOM     33  C   UNL     1      -6.577  -2.573  -3.363  0.00  0.00    -0.077 C 
BRANCH  33  34
ATOM     34  N   UNL     1      -7.810  -2.505  -2.551  0.00  0.00    +0.379 N 
ATOM     35  H   UNL     1      -7.578  -2.717  -1.574  0.00  0.00    -0.082 HD
BRANCH  34  37
ATOM     36  C   UNL     1      -8.708  -0.775  -4.072  0.00  0.00    -0.017 C 
ATOM     37  C   UNL     1      -8.387  -1.145  -2.623  0.00  0.00    -0.082 C 
ENDBRANCH  34  37
BRANCH  34  38
ATOM     38  C   UNL     1      -8.792  -3.496  -3.038  0.00  0.00    -0.082 C 
ATOM     39  C   UNL     1      -9.964  -3.554  -2.057  0.00  0.00    -0.017 C 
ENDBRANCH  34  38
ENDBRANCH  33  34
ENDBRANCH  32  33
ENDBRANCH  31  32
ENDBRANCH   1  31
TORSDOF 9
