REMARK  Name = ZINC38598425
REMARK  2 active torsions:
REMARK  status: ('A' for Active; 'I' for Inactive)
REMARK    1  A    between atoms: C_1  and  C_2
REMARK    2  A    between atoms: C_4  and  C_25
REMARK                            x       y       z     vdW  Elec       q    Type
REMARK                         _______ _______ _______ _____ _____    ______ ____
ROOT
ATOM      1  C   UNL     1       0.039   1.334  -0.320  0.00  0.00    +0.062 C 
ATOM      2  C   UNL     1      -0.035  -0.171  -0.294  0.00  0.00    +0.023 C 
ATOM      3  C   UNL     1      -1.127  -0.851  -0.057  0.00  0.00    +0.005 C 
ATOM      4  C   UNL     1      -2.506  -0.309   0.291  0.00  0.00    +0.110 C 
ATOM      5  S   UNL     1      -3.729  -1.542  -0.265  0.00  0.00    -0.139 S 
ATOM      6  C   UNL     1      -3.660  -2.854   0.973  0.00  0.00    +0.165 C 
ATOM      7  C   UNL     1      -2.357  -3.117   1.581  0.00  0.00    +0.225 C 
ATOM      8  O   UNL     1      -2.412  -3.587   2.698  0.00  0.00    -0.275 OA
ATOM      9  N   UNL     1      -1.136  -2.932   1.131  0.00  0.00    -0.291 N 
ATOM     10  C   UNL     1      -0.796  -2.320  -0.147  0.00  0.00    +0.210 C 
ATOM     11  N   UNL     1       0.657  -2.350  -0.376  0.00  0.00    -0.213 N 
ATOM     12  N   UNL     1       1.044  -1.008  -0.523  0.00  0.00    -0.265 N 
ATOM     13  C   UNL     1       1.450  -3.439  -0.436  0.00  0.00    +0.150 C 
ATOM     14  N   UNL     1       0.957  -4.656  -0.291  0.00  0.00    -0.221 NA
ATOM     15  C   UNL     1       1.698  -5.758  -0.277  0.00  0.00    +0.225 C 
ATOM     16  N   UNL     1       3.013  -5.730  -0.088  0.00  0.00    -0.218 NA
ATOM     17  C   UNL     1       3.560  -4.524   0.018  0.00  0.00    +0.164 C 
ATOM     18  N   UNL     1       4.576  -4.041   0.669  0.00  0.00    -0.219 NA
ATOM     19  C   UNL     1       4.514  -2.705   0.746  0.00  0.00    +0.218 C 
ATOM     20  N   UNL     1       3.559  -2.193   0.020  0.00  0.00    -0.253 NA
ATOM     21  C   UNL     1       2.930  -3.315  -0.678  0.00  0.00    +0.239 C 
ATOM     22  H   UNL     1      -0.403  -3.228   1.693  0.00  0.00    +0.151 HD
ATOM     23  H   UNL     1       1.938  -0.711  -0.750  0.00  0.00    +0.170 HD
ENDROOT
BRANCH   4  24
ATOM     24  C   UNL     1      -2.737   1.000  -0.418  0.00  0.00    +0.006 A 
ATOM     25  C   UNL     1      -2.962   1.018  -1.782  0.00  0.00    +0.047 A 
ATOM     26  C   UNL     1      -3.174   2.220  -2.433  0.00  0.00    +0.020 A 
ATOM     27  C   UNL     1      -3.160   3.404  -1.719  0.00  0.00    +0.003 A 
ATOM     28  C   UNL     1      -2.934   3.387  -0.356  0.00  0.00    +0.020 A 
ATOM     29  C   UNL     1      -2.728   2.184   0.297  0.00  0.00    +0.047 A 
ATOM     30 CL   UNL     1      -2.453   2.163   2.011  0.00  0.00    -0.083 Cl
ATOM     31 CL   UNL     1      -2.979  -0.469  -2.679  0.00  0.00    -0.083 Cl
ENDBRANCH   4  24
TORSDOF 1
