REMARK  Name = ZINC66239937
REMARK  8 active torsions:
REMARK  status: ('A' for Active; 'I' for Inactive)
REMARK    1  A    between atoms: C_1  and  C_2
REMARK    2  A    between atoms: C_4  and  C_28
REMARK    3  A    between atoms: C_9  and  C_10
REMARK    4  A    between atoms: C_10  and  N_11
REMARK    5  A    between atoms: C_12  and  C_14
REMARK    6  A    between atoms: C_17  and  N_20
REMARK    7  A    between atoms: C_21  and  N_27
REMARK    8  A    between atoms: C_22  and  C_25
REMARK                            x       y       z     vdW  Elec       q    Type
REMARK                         _______ _______ _______ _____ _____    ______ ____
ROOT
ATOM      1  C   UNL     1      -2.975   0.875   4.666  0.00  0.00    +0.037 A 
ATOM      2  C   UNL     1      -4.034   0.335   3.930  0.00  0.00    +0.015 A 
ATOM      3  C   UNL     1      -5.323   0.441   4.402  0.00  0.00    +0.028 A 
ATOM      4  C   UNL     1      -5.572   1.086   5.609  0.00  0.00    +0.067 A 
ATOM      5  C   UNL     1      -4.522   1.625   6.343  0.00  0.00    +0.028 A 
ATOM      6  C   UNL     1      -3.229   1.517   5.880  0.00  0.00    +0.015 A 
ENDROOT
BRANCH   4   7
ATOM      7  N   UNL     1      -6.882   1.193   6.084  0.00  0.00    -0.218 N 
ATOM      8  C   UNL     1      -7.261   1.153   7.388  0.00  0.00    +0.137 A 
ATOM      9  C   UNL     1      -8.646   1.295   7.414  0.00  0.00    +0.111 A 
ATOM     10  C   UNL     1      -9.075   1.421   6.072  0.00  0.00    +0.155 A 
ATOM     11  N   UNL     1      -8.027   1.365   5.298  0.00  0.00    -0.172 NA
BRANCH   8  12
ATOM     12  N   UNL     1      -6.430   1.000   8.481  0.00  0.00    -0.342 N 
ATOM     13  H   UNL     1      -5.473   0.908   8.353  0.00  0.00    +0.144 HD
ATOM     14  H   UNL     1      -6.804   0.985   9.376  0.00  0.00    +0.144 HD
ENDBRANCH   8  12
BRANCH   9  15
ATOM     15  C   UNL     1      -9.478   1.311   8.579  0.00  0.00    +0.104 C 
ATOM     16  N   UNL     1     -10.138   1.324   9.503  0.00  0.00    -0.191 NA
ENDBRANCH   9  15
ENDBRANCH   4   7
BRANCH   1  18
ATOM     17  N   UNL     1      -1.348   0.142   2.992  0.00  0.00    -0.307 N 
ATOM     18  C   UNL     1      -1.592   0.762   4.163  0.00  0.00    +0.244 C 
ATOM     19  O   UNL     1      -0.671   1.228   4.807  0.00  0.00    -0.270 OA
ATOM     20  H   UNL     1      -2.083  -0.230   2.478  0.00  0.00    +0.149 HD
BRANCH  17  21
ATOM     21  C   UNL     1       0.025   0.030   2.493  0.00  0.00    +0.145 C 
BRANCH  21  30
ATOM     22  C   UNL     1      -0.018   1.503   0.010  0.00  0.00    +0.044 C 
ATOM     23  C   UNL     1       0.002  -0.004   0.002  0.00  0.00    -0.039 A 
ATOM     24  C   UNL     1       0.006  -0.706  -1.212  0.00  0.00    +0.024 A 
ATOM     25  C   UNL     1       0.025  -2.059  -1.209  0.00  0.00    +0.016 A 
ATOM     26  N   UNL     1       0.040  -2.750  -0.040  0.00  0.00    -0.326 N 
ATOM     27  H   UNL     1       0.054  -3.720  -0.057  0.00  0.00    +0.169 HD
ATOM     28  C   UNL     1       0.037  -2.105   1.141  0.00  0.00    +0.254 A 
ATOM     29  O   UNL     1       0.051  -2.740   2.183  0.00  0.00    -0.268 OA
ATOM     30  C   UNL     1       0.023  -0.700   1.175  0.00  0.00    +0.037 A 
ATOM     31  C   UNL     1       0.029  -2.807  -2.517  0.00  0.00    +0.063 C 
ENDBRANCH  21  30
ENDBRANCH  17  21
ENDBRANCH   1  18
TORSDOF 6
