REMARK  Name = ZINC09868777
REMARK  6 active torsions:
REMARK  status: ('A' for Active; 'I' for Inactive)
REMARK    1  A    between atoms: C_1  and  C_2
REMARK    2  A    between atoms: C_2  and  C_4
REMARK    3  A    between atoms: C_2  and  S_12
REMARK    4  A    between atoms: S_12  and  C_13
REMARK    5  A    between atoms: C_15  and  C_25
REMARK    6  A    between atoms: C_16  and  C_19
REMARK                            x       y       z     vdW  Elec       q    Type
REMARK                         _______ _______ _______ _____ _____    ______ ____
ROOT
ATOM      1  C   UNL     1       5.714   4.433   0.709  0.00  0.00    +0.211 A 
ATOM      2  N   UNL     1       6.728   5.153   1.170  0.00  0.00    -0.218 NA
ATOM      3  C   UNL     1       7.953   4.631   1.172  0.00  0.00    +0.102 A 
ATOM      4  C   UNL     1       8.129   3.326   0.670  0.00  0.00    +0.119 A 
ATOM      5  N   UNL     1       7.070   2.662   0.219  0.00  0.00    -0.145 NA
ATOM      6  N   UNL     1       5.903   3.204   0.241  0.00  0.00    -0.122 NA
ENDROOT
BRANCH   4   7
ATOM      7  C   UNL     1       9.473   2.704   0.646  0.00  0.00    +0.004 A 
ATOM      8  C   UNL     1      10.601   3.484   0.396  0.00  0.00    +0.010 A 
ATOM      9  C   UNL     1      11.851   2.900   0.379  0.00  0.00    +0.001 A 
ATOM     10  C   UNL     1      11.985   1.541   0.601  0.00  0.00    +0.000 A 
ATOM     11  C   UNL     1      10.869   0.761   0.846  0.00  0.00    +0.001 A 
ATOM     12  C   UNL     1       9.615   1.335   0.870  0.00  0.00    +0.010 A 
ENDBRANCH   4   7
BRANCH   3  13
ATOM     13  C   UNL     1       9.106   5.407   1.685  0.00  0.00    +0.003 A 
ATOM     14  C   UNL     1      10.140   4.760   2.360  0.00  0.00    +0.010 A 
ATOM     15  C   UNL     1      11.214   5.487   2.831  0.00  0.00    +0.001 A 
ATOM     16  C   UNL     1      11.260   6.858   2.646  0.00  0.00    +0.000 A 
ATOM     17  C   UNL     1      10.234   7.506   1.982  0.00  0.00    +0.001 A 
ATOM     18  C   UNL     1       9.158   6.789   1.501  0.00  0.00    +0.010 A 
ENDBRANCH   3  13
BRANCH   1  19
ATOM     19  S   UNL     1       4.091   5.119   0.712  0.00  0.00    -0.072 S 
BRANCH  19  21
ATOM     20  C   UNL     1       3.623   3.516  -1.450  0.00  0.00    +0.029 C 
ATOM     21  C   UNL     1       3.165   3.741  -0.007  0.00  0.00    +0.138 C 
BRANCH  21  22
ATOM     22  C   UNL     1       1.693   4.062   0.008  0.00  0.00    +0.236 C 
ATOM     23  O   UNL     1       1.324   5.217   0.017  0.00  0.00    -0.274 OA
ATOM     24  N   UNL     1       0.785   3.066   0.011  0.00  0.00    -0.224 N 
ATOM     25  C   UNL     1      -0.674   3.242   0.026  0.00  0.00    +0.136 C 
ATOM     26  C   UNL     1      -1.221   1.802   0.017  0.00  0.00    +0.125 C 
ATOM     27  N   UNL     1      -0.011   0.966   0.007  0.00  0.00    -0.297 N 
ATOM     28  C   UNL     1       1.070   1.757   0.001  0.00  0.00    +0.309 C 
ATOM     29  O   UNL     1       2.206   1.326  -0.012  0.00  0.00    -0.252 OA
ATOM     30  H   UNL     1       0.002  -0.004   0.002  0.00  0.00    +0.150 HD
ENDBRANCH  21  22
ENDBRANCH  19  21
ENDBRANCH   1  19
TORSDOF 5
