REMARK  Name = ZINC09808081
REMARK  8 active torsions:
REMARK  status: ('A' for Active; 'I' for Inactive)
REMARK    1  A    between atoms: C_1  and  O_2
REMARK    2  A    between atoms: O_2  and  C_3
REMARK    3  A    between atoms: C_3  and  C_5
REMARK    4  A    between atoms: N_8  and  C_11
REMARK    5  A    between atoms: C_11  and  C_13
REMARK    6  A    between atoms: C_11  and  C_20
REMARK    7  A    between atoms: C_21  and  O_33
REMARK    8  A    between atoms: C_26  and  C_28
REMARK                            x       y       z     vdW  Elec       q    Type
REMARK                         _______ _______ _______ _____ _____    ______ ____
ROOT
ATOM      1  C   UNL     1       2.484  -5.973   1.233  0.00  0.00    +0.005 C 
ENDROOT
BRANCH   1   2
ATOM      2  C   UNL     1       3.250  -6.429   0.018  0.00  0.00    +0.045 A 
ATOM      3  C   UNL     1       2.919  -7.353  -0.890  0.00  0.00    +0.225 A 
ATOM      4  N   UNL     1       3.757  -7.635  -1.942  0.00  0.00    -0.173 N 
ATOM      5  C   UNL     1       4.928  -6.932  -2.010  0.00  0.00    +0.199 A 
ATOM      6  S   UNL     1       4.835  -5.871  -0.588  0.00  0.00    -0.050 S 
ATOM      7  N   UNL     1       5.608  -7.311  -3.056  0.00  0.00    -0.197 NA
ATOM      8  C   UNL     1       4.924  -8.261  -3.709  0.00  0.00    +0.218 A 
ATOM      9  N   UNL     1       3.796  -8.492  -3.072  0.00  0.00    -0.138 NA
BRANCH   8  10
ATOM     10  C   UNL     1       5.367  -8.941  -4.944  0.00  0.00    +0.173 A 
ATOM     11  C   UNL     1       6.532  -8.714  -5.606  0.00  0.00    +0.053 A 
ATOM     12  C   UNL     1       6.541  -9.577  -6.720  0.00  0.00    +0.042 A 
ATOM     13  C   UNL     1       5.392 -10.280  -6.684  0.00  0.00    +0.196 A 
ATOM     14  O   UNL     1       4.688  -9.897  -5.607  0.00  0.00    -0.460 OA
ENDBRANCH   8  10
BRANCH   3  15
ATOM     15  O   UNL     1       1.740  -8.021  -0.772  0.00  0.00    -0.492 OA
ATOM     16  H   UNL     1       1.583  -8.670  -1.472  0.00  0.00    +0.294 HD
ENDBRANCH   3  15
ENDBRANCH   1   2
BRANCH   1  20
ATOM     17  C   UNL     1       0.679  -2.115   1.088  0.00  0.00    +0.094 C 
ATOM     18  C   UNL     1       1.419  -2.647  -0.142  0.00  0.00    -0.004 C 
ATOM     19  C   UNL     1       1.546  -4.168  -0.036  0.00  0.00    -0.077 C 
ATOM     20  N   UNL     1       2.297  -4.517   1.176  0.00  0.00    +0.387 N 
ATOM     21  C   UNL     1       1.558  -4.073   2.364  0.00  0.00    -0.077 C 
ATOM     22  C   UNL     1       1.431  -2.548   2.350  0.00  0.00    -0.004 C 
ATOM     23  H   UNL     1       3.198  -4.064   1.154  0.00  0.00    -0.080 HD
BRANCH  17  24
ATOM     24  C   UNL     1       0.618  -0.611   1.029  0.00  0.00    +0.310 C 
ATOM     25  O   UNL     1       1.124   0.049   1.905  0.00  0.00    -0.251 OA
BRANCH  24  27
ATOM     26  C   UNL     1      -0.017   1.425   0.010  0.00  0.00    +0.280 C 
ATOM     27  O   UNL     1       0.002  -0.004   0.002  0.00  0.00    -0.468 OA
ENDBRANCH  24  27
ENDBRANCH  17  24
ENDBRANCH   1  20
BRANCH   1  28
ATOM     28  C   UNL     1       3.254  -6.332   2.478  0.00  0.00    -0.056 A 
ATOM     29  C   UNL     1       4.306  -5.537   2.892  0.00  0.00    +0.003 A 
ATOM     30  C   UNL     1       5.013  -5.865   4.034  0.00  0.00    +0.015 A 
ATOM     31  C   UNL     1       4.668  -6.990   4.761  0.00  0.00    +0.018 A 
ATOM     32  C   UNL     1       3.615  -7.785   4.346  0.00  0.00    +0.015 A 
ATOM     33  C   UNL     1       2.905  -7.453   3.207  0.00  0.00    +0.003 A 
ATOM     34 BR   UNL     1       5.635  -7.441   6.322  0.00  0.00    -0.050 Br
ENDBRANCH   1  28
TORSDOF 7
