REMARK  Name = ZINC25583962
REMARK  8 active torsions:
REMARK  status: ('A' for Active; 'I' for Inactive)
REMARK    1  A    between atoms: C_1  and  O_2
REMARK    2  A    between atoms: O_2  and  C_3
REMARK    3  A    between atoms: C_3  and  C_5
REMARK    4  A    between atoms: C_6  and  C_22
REMARK    5  A    between atoms: N_7  and  C_19
REMARK    6  A    between atoms: C_11  and  C_13
REMARK    7  A    between atoms: C_22  and  S_23
REMARK    8  A    between atoms: S_23  and  C_24
REMARK                            x       y       z     vdW  Elec       q    Type
REMARK                         _______ _______ _______ _____ _____    ______ ____
ROOT
ATOM      1  C   UNL     1       3.155   9.316   1.150  0.00  0.00    +0.079 C 
ATOM      2  C   UNL     1       2.669   8.898  -0.039  0.00  0.00    +0.037 C 
ATOM      3  N   UNL     1       2.896   9.609  -1.182  0.00  0.00    -0.255 N 
ATOM      4  C   UNL     1       3.591  10.753  -1.219  0.00  0.00    +0.307 C 
ATOM      5  O   UNL     1       3.736  11.319  -2.286  0.00  0.00    -0.252 OA
ATOM      6  N   UNL     1       4.138  11.296  -0.114  0.00  0.00    -0.288 N 
ATOM      7  C   UNL     1       3.955  10.602   1.172  0.00  0.00    +0.144 C 
ATOM      8  H   UNL     1       4.710  12.235  -0.156  0.00  0.00    +0.151 HD
ENDROOT
BRANCH   7   9
ATOM      9  C   UNL     1       3.276  11.555   2.122  0.00  0.00    -0.023 A 
ATOM     10  C   UNL     1       2.171  12.274   1.707  0.00  0.00    +0.006 A 
ATOM     11  C   UNL     1       1.545  13.145   2.579  0.00  0.00    +0.000 A 
ATOM     12  C   UNL     1       2.031  13.304   3.864  0.00  0.00    +0.000 A 
ATOM     13  C   UNL     1       3.140  12.589   4.277  0.00  0.00    +0.000 A 
ATOM     14  C   UNL     1       3.762  11.715   3.406  0.00  0.00    +0.006 A 
ENDBRANCH   7   9
BRANCH   3  15
ATOM     15  C   UNL     1       2.344   9.094  -2.438  0.00  0.00    +0.083 C 
ATOM     16  C   UNL     1       1.635  10.090  -3.358  0.00  0.00    +0.025 C 
ATOM     17  C   UNL     1       0.821   9.055  -2.576  0.00  0.00    +0.025 C 
ENDBRANCH   3  15
BRANCH   1  18
ATOM     18  C   UNL     1       2.925   8.577   2.334  0.00  0.00    +0.339 C 
ATOM     19  O   UNL     1       2.402   7.480   2.275  0.00  0.00    -0.245 OA
BRANCH  18  21
ATOM     20  C   UNL     1       3.023   8.290   4.684  0.00  0.00    +0.280 C 
ATOM     21  O   UNL     1       3.285   9.090   3.530  0.00  0.00    -0.465 OA
ENDBRANCH  18  21
ENDBRANCH   1  18
BRANCH   2  22
ATOM     22  C   UNL     1       1.869   7.623  -0.106  0.00  0.00    +0.129 C 
BRANCH  22  23
ATOM     23  S   UNL     1       2.929   6.274  -0.683  0.00  0.00    -0.080 S 
BRANCH  23  24
ATOM     24  C   UNL     1       1.771   4.946  -0.667  0.00  0.00    +0.191 A 
ATOM     25  N   UNL     1       2.164   3.734  -1.038  0.00  0.00    -0.207 NA
ATOM     26  C   UNL     1       1.341   2.699  -1.046  0.00  0.00    +0.129 A 
ATOM     27  C   UNL     1      -0.012   2.883  -0.645  0.00  0.00    +0.047 A 
ATOM     28  C   UNL     1      -1.094   1.916  -0.564  0.00  0.00    +0.021 A 
ATOM     29  C   UNL     1      -2.306   2.322  -0.158  0.00  0.00    +0.048 A 
ATOM     30  S   UNL     1      -2.076   4.061   0.162  0.00  0.00    -0.077 S 
ATOM     31  C   UNL     1      -0.360   4.197  -0.265  0.00  0.00    +0.114 A 
ATOM     32  N   UNL     1       0.522   5.177  -0.284  0.00  0.00    -0.215 NA
ATOM     33  N   UNL     1       1.790   1.452  -1.439  0.00  0.00    -0.343 N 
ATOM     34  H   UNL     1       1.100   0.595  -1.444  0.00  0.00    +0.144 HD
ATOM     35  H   UNL     1       2.837   1.316  -1.747  0.00  0.00    +0.144 HD
ENDBRANCH  23  24
ENDBRANCH  22  23
ENDBRANCH   2  22
TORSDOF 7
