REMARK  Name = ZINC15672461
REMARK  8 active torsions:
REMARK  status: ('A' for Active; 'I' for Inactive)
REMARK    1  A    between atoms: C_1  and  C_2
REMARK    2  A    between atoms: C_5  and  N_8
REMARK    3  A    between atoms: C_9  and  C_11
REMARK    4  A    between atoms: C_11  and  C_33
REMARK    5  A    between atoms: N_23  and  C_24
REMARK    6  A    between atoms: C_24  and  C_25
REMARK    7  A    between atoms: C_25  and  C_26
REMARK    8  A    between atoms: C_26  and  N_74
REMARK                            x       y       z     vdW  Elec       q    Type
REMARK                         _______ _______ _______ _____ _____    ______ ____
ROOT
ATOM      1  C   UNL     1      -2.968   3.659  -0.657  0.00  0.00    +0.128 C 
ATOM      2  C   UNL     1      -1.637   4.287  -0.242  0.00  0.00    +0.157 C 
ATOM      3  N   UNL     1      -0.606   3.247  -0.215  0.00  0.00    -0.333 N 
ATOM      4  C   UNL     1       0.755   3.368  -0.427  0.00  0.00    +0.057 A 
ATOM      5  C   UNL     1       1.693   4.364  -0.739  0.00  0.00    +0.034 A 
ATOM      6  C   UNL     1       3.000   4.052  -0.858  0.00  0.00    +0.048 A 
ATOM      7  S   UNL     1       3.015   2.297  -0.536  0.00  0.00    -0.095 S 
ATOM      8  C   UNL     1       1.276   2.075  -0.262  0.00  0.00    +0.038 A 
ATOM      9  C   UNL     1       0.245   1.194   0.038  0.00  0.00    +0.048 A 
ATOM     10  C   UNL     1      -0.911   1.917   0.053  0.00  0.00    +0.106 A 
ATOM     11  C   UNL     1      -2.294   1.506   0.323  0.00  0.00    +0.264 C 
ATOM     12  O   UNL     1      -2.564   0.399   0.753  0.00  0.00    -0.268 OA
ATOM     13  N   UNL     1      -3.254   2.425   0.064  0.00  0.00    -0.281 N 
ATOM     14  C   UNL     1      -2.925   3.355  -2.156  0.00  0.00    +0.043 C 
ENDROOT
BRANCH   1  16
ATOM     15  N   UNL     1      -4.476   4.887   0.871  0.00  0.00    -0.311 N 
ATOM     16  C   UNL     1      -4.076   4.646  -0.393  0.00  0.00    +0.238 C 
ATOM     17  O   UNL     1      -4.607   5.224  -1.318  0.00  0.00    -0.273 OA
ATOM     18  H   UNL     1      -4.002   4.483   1.615  0.00  0.00    +0.149 HD
BRANCH  15  23
ATOM     19  C   UNL     1      -8.161   8.738   2.974  0.00  0.00    +0.007 C 
ATOM     20  C   UNL     1      -6.960   7.827   2.712  0.00  0.00    -0.014 C 
ATOM     21  C   UNL     1      -7.407   6.365   2.766  0.00  0.00    +0.005 C 
ATOM     22  C   UNL     1      -6.206   5.454   2.505  0.00  0.00    +0.022 C 
ATOM     23  C   UNL     1      -5.626   5.759   1.122  0.00  0.00    +0.073 C 
ATOM     24  C   UNL     1      -5.179   7.221   1.068  0.00  0.00    +0.022 C 
ATOM     25  C   UNL     1      -6.380   8.132   1.329  0.00  0.00    +0.005 C 
ENDBRANCH  15  23
ENDBRANCH   1  16
BRANCH  13  26
ATOM     26  C   UNL     1      -4.622   2.171   0.522  0.00  0.00    +0.107 C 
BRANCH  26  27
ATOM     27  C   UNL     1      -5.430   1.538  -0.612  0.00  0.00    +0.000 C 
BRANCH  27  28
ATOM     28  C   UNL     1      -6.887   1.376  -0.172  0.00  0.00    -0.077 C 
BRANCH  28  35
ATOM     29  C   UNL     1      -7.631   1.405  -2.486  0.00  0.00    -0.079 C 
ATOM     30  C   UNL     1      -8.601   0.850  -3.493  0.00  0.00    -0.019 C 
ATOM     31  C   UNL     1      -9.933   1.618  -3.365  0.00  0.00    -0.002 C 
ATOM     32  C   UNL     1     -10.727   1.161  -2.230  0.00  0.00    -0.002 C 
ATOM     33  C   UNL     1      -9.995   1.366  -0.887  0.00  0.00    -0.019 C 
ATOM     34  C   UNL     1      -8.979   0.269  -0.725  0.00  0.00    -0.079 C 
ATOM     35  N   UNL     1      -7.598   0.612  -1.210  0.00  0.00    +0.380 N 
ATOM     36  H   UNL     1      -7.090  -0.262  -1.385  0.00  0.00    -0.082 HD
ENDBRANCH  28  35
ENDBRANCH  27  28
ENDBRANCH  26  27
ENDBRANCH  13  26
TORSDOF 6
