REMARK  Name = ZINC40993619
REMARK  7 active torsions:
REMARK  status: ('A' for Active; 'I' for Inactive)
REMARK    1  A    between atoms: C_1  and  C_2
REMARK    2  A    between atoms: C_2  and  C_4
REMARK    3  A    between atoms: C_2  and  O_27
REMARK    4  A    between atoms: N_6  and  C_7
REMARK    5  A    between atoms: C_8  and  C_16
REMARK    6  A    between atoms: C_18  and  C_21
REMARK    7  A    between atoms: O_27  and  C_28
REMARK                            x       y       z     vdW  Elec       q    Type
REMARK                         _______ _______ _______ _____ _____    ______ ____
ROOT
ATOM      1  C   UNL     1      -3.530  -1.215   0.941  0.00  0.00    +0.085 A 
ATOM      2  C   UNL     1      -4.509  -1.276   1.922  0.00  0.00    +0.071 A 
ATOM      3  C   UNL     1      -5.800  -1.833   1.560  0.00  0.00    -0.023 A 
ATOM      4  C   UNL     1      -5.934  -2.248   0.280  0.00  0.00    -0.004 A 
ATOM      5  S   UNL     1      -4.367  -1.907  -0.474  0.00  0.00    -0.077 S 
ATOM      6  C   UNL     1      -7.146  -2.857  -0.354  0.00  0.00    +0.043 C 
ATOM      7  C   UNL     1      -8.111  -3.287   0.761  0.00  0.00    +0.005 C 
ATOM      8  C   UNL     1      -8.259  -2.132   1.756  0.00  0.00    +0.005 C 
ATOM      9  C   UNL     1      -6.960  -1.956   2.543  0.00  0.00    +0.037 C 
ENDROOT
BRANCH   2  10
ATOM     10  C   UNL     1      -4.247  -0.792   3.286  0.00  0.00    +0.261 A 
ATOM     11  N   UNL     1      -3.119  -0.267   3.716  0.00  0.00    -0.187 NA
ATOM     12  C   UNL     1      -3.233   0.062   5.011  0.00  0.00    +0.202 A 
ATOM     13  N   UNL     1      -4.439  -0.249   5.423  0.00  0.00    -0.056 NA
ATOM     14  O   UNL     1      -5.121  -0.804   4.309  0.00  0.00    -0.332 OA
BRANCH  12  15
ATOM     15  C   UNL     1      -2.169   0.679   5.842  0.00  0.00    +0.022 A 
ATOM     16  C   UNL     1      -0.926   0.969   5.284  0.00  0.00    +0.012 A 
ATOM     17  C   UNL     1       0.060   1.542   6.062  0.00  0.00    +0.001 A 
ATOM     18  C   UNL     1      -0.185   1.829   7.393  0.00  0.00    +0.000 A 
ATOM     19  C   UNL     1      -1.417   1.544   7.952  0.00  0.00    +0.001 A 
ATOM     20  C   UNL     1      -2.413   0.976   7.181  0.00  0.00    +0.012 A 
ENDBRANCH  12  15
ENDBRANCH   2  10
BRANCH   1  23
ATOM     21  C   UNL     1      -1.424  -0.753  -0.044  0.00  0.00    +0.258 C 
ATOM     22  O   UNL     1      -1.833  -1.194  -1.098  0.00  0.00    -0.271 OA
ATOM     23  N   UNL     1      -2.231  -0.732   1.035  0.00  0.00    -0.276 N 
ATOM     24  H   UNL     1      -1.904  -0.380   1.878  0.00  0.00    +0.155 HD
BRANCH  21  26
ATOM     25  C   UNL     1      -0.049   1.273   0.344  0.00  0.00    +0.062 C 
ATOM     26  C   UNL     1      -0.015  -0.230   0.058  0.00  0.00    +0.256 C 
BRANCH  26  27
ATOM     27  O   UNL     1       0.671  -0.465  -1.174  0.00  0.00    -0.478 OA
BRANCH  27  28
ATOM     28  C   UNL     1       2.026  -0.553  -1.118  0.00  0.00    +0.140 A 
ATOM     29  C   UNL     1       2.690  -0.303   0.074  0.00  0.00    +0.047 A 
ATOM     30  C   UNL     1       4.068  -0.394   0.128  0.00  0.00    +0.004 A 
ATOM     31  C   UNL     1       4.785  -0.733  -1.005  0.00  0.00    +0.002 A 
ATOM     32  C   UNL     1       4.126  -0.982  -2.194  0.00  0.00    +0.023 A 
ATOM     33  C   UNL     1       2.748  -0.899  -2.253  0.00  0.00    +0.083 A 
ATOM     34 CL   UNL     1       1.920  -1.219  -3.745  0.00  0.00    -0.080 Cl
ENDBRANCH  27  28
ENDBRANCH  26  27
ENDBRANCH  21  26
ENDBRANCH   1  23
TORSDOF 6
