REMARK  Name = ZINC66618250
REMARK  9 active torsions:
REMARK  status: ('A' for Active; 'I' for Inactive)
REMARK    1  A    between atoms: C_1  and  C_2
REMARK    2  A    between atoms: C_5  and  C_9
REMARK    3  A    between atoms: C_6  and  C_8
REMARK    4  A    between atoms: C_9  and  C_10
REMARK    5  A    between atoms: C_10  and  C_12
REMARK    6  A    between atoms: C_10  and  N_13
REMARK    7  A    between atoms: N_16  and  N_17
REMARK    8  A    between atoms: N_20  and  C_21
REMARK    9  A    between atoms: C_26  and  C_27
REMARK                            x       y       z     vdW  Elec       q    Type
REMARK                         _______ _______ _______ _____ _____    ______ ____
ROOT
ATOM      1  N   UNL     1      -1.932  -4.126   1.953  0.00  0.00    -0.295 N 
ATOM      2  C   UNL     1      -3.259  -3.964   2.124  0.00  0.00    +0.316 C 
ATOM      3  O   UNL     1      -4.035  -4.365   1.279  0.00  0.00    -0.251 OA
ATOM      4  N   UNL     1      -3.726  -3.357   3.233  0.00  0.00    -0.217 N 
ATOM      5  H   UNL     1      -1.313  -3.806   2.627  0.00  0.00    +0.151 HD
ATOM      6  H   UNL     1      -4.681  -3.240   3.357  0.00  0.00    +0.174 HD
ENDROOT
BRANCH   4   7
ATOM      7  N   UNL     1      -2.832  -2.894   4.208  0.00  0.00    -0.217 N 
ATOM      8  C   UNL     1      -3.298  -2.287   5.317  0.00  0.00    +0.320 C 
ATOM      9  O   UNL     1      -2.522  -1.886   6.162  0.00  0.00    -0.251 OA
ATOM     10  N   UNL     1      -4.625  -2.125   5.489  0.00  0.00    -0.268 N 
ATOM     11  H   UNL     1      -1.877  -3.011   4.084  0.00  0.00    +0.174 HD
ATOM     12  H   UNL     1      -5.247  -2.506   4.849  0.00  0.00    +0.156 HD
BRANCH  10  13
ATOM     13  C   UNL     1      -5.106  -1.408   6.590  0.00  0.00    +0.038 A 
ATOM     14  C   UNL     1      -4.382  -1.384   7.775  0.00  0.00    +0.023 A 
ATOM     15  C   UNL     1      -4.858  -0.675   8.860  0.00  0.00    +0.002 A 
ATOM     16  C   UNL     1      -6.056   0.010   8.768  0.00  0.00    +0.000 A 
ATOM     17  C   UNL     1      -6.780  -0.012   7.590  0.00  0.00    +0.005 A 
ATOM     18  C   UNL     1      -6.305  -0.713   6.499  0.00  0.00    -0.029 A 
ATOM     19  C   UNL     1      -7.090  -0.731   5.213  0.00  0.00    +0.045 C 
ENDBRANCH  10  13
ENDBRANCH   4   7
BRANCH   1  20
ATOM     20  C   UNL     1      -1.425  -4.786   0.747  0.00  0.00    +0.076 C 
ATOM     21  C   UNL     1      -1.425  -6.302   0.957  0.00  0.00    +0.028 C 
BRANCH  20  22
ATOM     22  C   UNL     1       0.002  -4.310   0.467  0.00  0.00    +0.057 C 
BRANCH  22  27
ATOM     23  C   UNL     1      -0.050   1.344  -0.725  0.00  0.00    +0.044 C 
ATOM     24  C   UNL     1      -0.036  -0.130  -0.414  0.00  0.00    -0.050 A 
ATOM     25  C   UNL     1       0.310  -0.567   0.851  0.00  0.00    +0.003 A 
ATOM     26  C   UNL     1       0.322  -1.919   1.137  0.00  0.00    +0.004 A 
ATOM     27  C   UNL     1      -0.012  -2.836   0.157  0.00  0.00    -0.043 A 
ATOM     28  C   UNL     1      -0.360  -2.399  -1.108  0.00  0.00    -0.047 A 
ATOM     29  C   UNL     1      -0.376  -1.046  -1.392  0.00  0.00    +0.007 A 
ATOM     30  C   UNL     1      -0.724  -3.398  -2.176  0.00  0.00    +0.044 C 
ENDBRANCH  22  27
ENDBRANCH  20  22
ENDBRANCH   1  20
TORSDOF 5
