REMARK  Name = ZINC09465899
REMARK  8 active torsions:
REMARK  status: ('A' for Active; 'I' for Inactive)
REMARK    1  A    between atoms: C_1  and  C_2
REMARK    2  A    between atoms: C_2  and  C_4
REMARK    3  A    between atoms: C_2  and  O_15
REMARK    4  A    between atoms: N_6  and  C_7
REMARK    5  A    between atoms: O_15  and  C_16
REMARK    6  A    between atoms: C_16  and  C_18
REMARK    7  A    between atoms: N_21  and  C_24
REMARK    8  A    between atoms: C_27  and  C_29
REMARK                            x       y       z     vdW  Elec       q    Type
REMARK                         _______ _______ _______ _____ _____    ______ ____
ROOT
ATOM      1  C   UNL     1      -5.090   5.320   7.420  0.00  0.00    +0.311 C 
ATOM      2  O   UNL     1      -5.939   4.573   7.848  0.00  0.00    -0.251 OA
ENDROOT
BRANCH   1   3
ATOM      3  C   UNL     1      -4.385   4.998   6.128  0.00  0.00    +0.101 C 
ATOM      4  C   UNL     1      -4.926   3.682   5.564  0.00  0.00    +0.033 C 
ATOM      5  C   UNL     1      -4.165   3.329   4.284  0.00  0.00    +0.107 C 
ATOM      6  N   UNL     1      -2.733   3.203   4.584  0.00  0.00    -0.317 N 
ATOM      7  C   UNL     1      -2.181   4.469   5.083  0.00  0.00    +0.107 C 
ATOM      8  C   UNL     1      -2.883   4.855   6.386  0.00  0.00    +0.033 C 
BRANCH   6   9
ATOM      9  C   UNL     1      -2.029   2.755   3.473  0.00  0.00    +0.099 A 
ATOM     10  C   UNL     1      -0.652   2.571   3.557  0.00  0.00    +0.042 A 
ATOM     11  C   UNL     1       0.036   2.126   2.443  0.00  0.00    +0.017 A 
ATOM     12  C   UNL     1      -0.678   1.879   1.278  0.00  0.00    +0.071 A 
ATOM     13  C   UNL     1      -2.042   2.088   1.263  0.00  0.00    +0.096 A 
ATOM     14  N   UNL     1      -2.752   2.520   2.340  0.00  0.00    -0.349 N 
ATOM     15  H   UNL     1      -3.768   2.660   2.303  0.00  0.00    +0.167 HD
BRANCH  12  16
ATOM     16  C   UNL     1       0.031   1.392   0.040  0.00  0.00    +0.419 C 
ATOM     17  F   UNL     1       0.059  -0.007   0.038  0.00  0.00    -0.166 F 
ATOM     18  F   UNL     1       1.340   1.885   0.027  0.00  0.00    -0.166 F 
ATOM     19  F   UNL     1      -0.649   1.846  -1.096  0.00  0.00    -0.166 F 
ENDBRANCH  12  16
ENDBRANCH   6   9
ENDBRANCH   1   3
BRANCH   1  20
ATOM     20  O   UNL     1      -4.776   6.436   8.097  0.00  0.00    -0.452 OA
BRANCH  20  22
ATOM     21  C   UNL     1      -4.739   6.041  10.499  0.00  0.00    +0.062 C 
ATOM     22  C   UNL     1      -5.495   6.682   9.334  0.00  0.00    +0.259 C 
BRANCH  22  23
ATOM     23  C   UNL     1      -5.607   8.167   9.563  0.00  0.00    +0.258 C 
ATOM     24  O   UNL     1      -5.127   8.942   8.763  0.00  0.00    -0.271 OA
ATOM     25  N   UNL     1      -6.239   8.634  10.658  0.00  0.00    -0.281 N 
ATOM     26  H   UNL     1      -6.692   8.019  11.256  0.00  0.00    +0.155 HD
BRANCH  25  27
ATOM     27  C   UNL     1      -6.243  10.008  10.932  0.00  0.00    +0.052 A 
ATOM     28  C   UNL     1      -5.231  10.818  10.436  0.00  0.00    +0.027 A 
ATOM     29  C   UNL     1      -5.236  12.173  10.707  0.00  0.00    +0.040 A 
ATOM     30  C   UNL     1      -6.251  12.723  11.473  0.00  0.00    +0.125 A 
ATOM     31  C   UNL     1      -7.262  11.917  11.969  0.00  0.00    +0.060 A 
ATOM     32  C   UNL     1      -7.263  10.562  11.696  0.00  0.00    +0.065 A 
ATOM     33 CL   UNL     1      -8.534   9.553  12.312  0.00  0.00    -0.082 Cl
ATOM     34  F   UNL     1      -6.254  14.048  11.736  0.00  0.00    -0.205 F 
ENDBRANCH  25  27
ENDBRANCH  22  23
ENDBRANCH  20  22
ENDBRANCH   1  20
TORSDOF 7
