REMARK  Name = ZINC39683779
REMARK  7 active torsions:
REMARK  status: ('A' for Active; 'I' for Inactive)
REMARK    1  A    between atoms: C_1  and  C_2
REMARK    2  A    between atoms: C_4  and  C_8
REMARK    3  A    between atoms: N_6  and  C_7
REMARK    4  A    between atoms: C_12  and  C_21
REMARK    5  A    between atoms: N_23  and  C_24
REMARK    6  A    between atoms: C_24  and  C_25
REMARK    7  A    between atoms: C_25  and  C_26
REMARK                            x       y       z     vdW  Elec       q    Type
REMARK                         _______ _______ _______ _____ _____    ______ ____
ROOT
ATOM      1  C   UNL     1       0.078  -3.478  -1.513  0.00  0.00    +0.267 C 
ATOM      2  O   UNL     1       0.017  -3.448  -2.727  0.00  0.00    -0.268 OA
ATOM      3  N   UNL     1       0.063  -4.661  -0.867  0.00  0.00    -0.295 N 
ATOM      4  C   UNL     1       0.122  -4.898   0.595  0.00  0.00    +0.121 C 
ATOM      5  C   UNL     1      -0.861  -6.065   0.841  0.00  0.00    +0.100 C 
ATOM      6  C   UNL     1      -0.946  -6.797  -0.509  0.00  0.00    -0.004 C 
ATOM      7  C   UNL     1      -0.023  -6.018  -1.458  0.00  0.00    +0.115 C 
ATOM      8  C   UNL     1      -0.461  -8.236  -0.362  0.00  0.00    -0.010 C 
ATOM      9  C   UNL     1      -0.610  -8.960  -1.703  0.00  0.00    -0.082 C 
ATOM     10  N   UNL     1      -2.017  -8.938  -2.119  0.00  0.00    +0.379 N 
ATOM     11  C   UNL     1      -2.450  -7.554  -2.349  0.00  0.00    -0.082 C 
ATOM     12  C   UNL     1      -2.378  -6.770  -1.035  0.00  0.00    -0.010 C 
ATOM     13  H   UNL     1      -2.123  -9.467  -2.972  0.00  0.00    -0.086 HD
ATOM     14  H   UNL     1      -2.587  -9.351  -1.397  0.00  0.00    -0.086 HD
ENDROOT
BRANCH   1  18
ATOM     15  C   UNL     1       0.345   1.421  -0.243  0.00  0.00    +0.065 C 
ATOM     16  C   UNL     1       0.285  -0.084  -0.209  0.00  0.00    +0.037 A 
ATOM     17  C   UNL     1       0.196  -0.909  -1.279  0.00  0.00    +0.057 A 
ATOM     18  C   UNL     1       0.170  -2.219  -0.746  0.00  0.00    +0.147 A 
ATOM     19  N   UNL     1       0.241  -2.102   0.565  0.00  0.00    -0.167 NA
ATOM     20  N   UNL     1       0.314  -0.863   0.894  0.00  0.00    -0.271 N 
ATOM     21  C   UNL     1       0.411  -0.365   2.268  0.00  0.00    +0.172 C 
ENDBRANCH   1  18
BRANCH   5  22
ATOM     22  C   UNL     1      -0.325  -6.986   1.907  0.00  0.00    +0.218 C 
ATOM     23  O   UNL     1       0.872  -7.122   2.045  0.00  0.00    -0.275 OA
ATOM     24  N   UNL     1      -1.177  -7.658   2.706  0.00  0.00    -0.315 N 
ATOM     25  H   UNL     1      -2.135  -7.549   2.596  0.00  0.00    +0.149 HD
BRANCH  24  26
ATOM     26  C   UNL     1      -0.657  -8.553   3.743  0.00  0.00    +0.109 C 
BRANCH  26  27
ATOM     27  C   UNL     1      -1.824  -9.187   4.503  0.00  0.00    +0.055 C 
BRANCH  27  28
ATOM     28  C   UNL     1      -1.289 -10.107   5.569  0.00  0.00    -0.032 A 
ATOM     29  C   UNL     1      -1.149 -11.458   5.309  0.00  0.00    +0.005 A 
ATOM     30  C   UNL     1      -0.657 -12.303   6.287  0.00  0.00    +0.000 A 
ATOM     31  C   UNL     1      -0.305 -11.797   7.524  0.00  0.00    +0.001 A 
ATOM     32  C   UNL     1      -0.445 -10.447   7.785  0.00  0.00    +0.015 A 
ATOM     33  C   UNL     1      -0.932  -9.601   6.805  0.00  0.00    +0.021 A 
ATOM     34 BR   UNL     1      -1.116  -7.752   7.159  0.00  0.00    -0.050 Br
ENDBRANCH  27  28
ENDBRANCH  26  27
ENDBRANCH  24  26
ENDBRANCH   5  22
TORSDOF 5
