REMARK  Name = ZINC43218916
REMARK  7 active torsions:
REMARK  status: ('A' for Active; 'I' for Inactive)
REMARK    1  A    between atoms: C_1  and  C_2
REMARK    2  A    between atoms: C_2  and  C_3
REMARK    3  A    between atoms: C_6  and  N_9
REMARK    4  A    between atoms: C_14  and  C_31
REMARK    5  A    between atoms: C_17  and  C_22
REMARK    6  A    between atoms: C_17  and  C_28
REMARK    7  A    between atoms: C_36  and  O_37
REMARK                            x       y       z     vdW  Elec       q    Type
REMARK                         _______ _______ _______ _____ _____    ______ ____
ROOT
ATOM      1  N   UNL     1      -5.698  -2.377   0.785  0.00  0.00    -0.210 N 
ATOM      2  C   UNL     1      -6.628  -2.754   1.722  0.00  0.00    +0.229 C 
ATOM      3  O   UNL     1      -6.576  -2.595   2.923  0.00  0.00    -0.275 OA
ATOM      4  C   UNL     1      -7.681  -3.382   0.958  0.00  0.00    +0.078 C 
ATOM      5  C   UNL     1      -9.095  -3.761   1.087  0.00  0.00    -0.023 C 
ATOM      6  N   UNL     1      -9.559  -3.948  -0.328  0.00  0.00    +0.398 N 
ATOM      7  C   UNL     1      -8.429  -3.548  -1.229  0.00  0.00    +0.074 C 
ATOM      8  C   UNL     1      -7.676  -2.515  -0.364  0.00  0.00    +0.090 C 
ATOM      9  C   UNL     1      -6.180  -2.436  -0.492  0.00  0.00    +0.229 C 
ATOM     10  O   UNL     1      -5.534  -2.430  -1.518  0.00  0.00    -0.275 OA
ATOM     11  H   UNL     1      -9.797  -4.915  -0.485  0.00  0.00    -0.083 HD
ATOM     12  H   UNL     1     -10.361  -3.362  -0.505  0.00  0.00    -0.083 HD
ENDROOT
BRANCH   1  16
ATOM     13  C   UNL     1      -1.825  -1.163   1.736  0.00  0.00    -0.048 A 
ATOM     14  C   UNL     1      -2.699  -1.533   2.742  0.00  0.00    +0.005 A 
ATOM     15  C   UNL     1      -3.982  -1.935   2.430  0.00  0.00    +0.024 A 
ATOM     16  C   UNL     1      -4.395  -1.968   1.105  0.00  0.00    +0.044 A 
ATOM     17  C   UNL     1      -3.516  -1.596   0.097  0.00  0.00    +0.024 A 
ATOM     18  C   UNL     1      -2.235  -1.190   0.415  0.00  0.00    +0.005 A 
BRANCH  13  20
ATOM     19  C   UNL     1      -0.406   0.788   2.309  0.00  0.00    +0.009 C 
ATOM     20  C   UNL     1      -0.424  -0.725   2.079  0.00  0.00    +0.032 C 
ENDBRANCH  13  20
ENDBRANCH   1  16
BRANCH   7  21
ATOM     21  C   UNL     1      -7.563  -4.737  -1.559  0.00  0.00    -0.047 A 
ATOM     22  C   UNL     1      -7.707  -5.915  -0.850  0.00  0.00    +0.003 A 
ATOM     23  C   UNL     1      -6.913  -7.005  -1.152  0.00  0.00    +0.000 A 
ATOM     24  C   UNL     1      -5.976  -6.918  -2.164  0.00  0.00    +0.000 A 
ATOM     25  C   UNL     1      -5.832  -5.740  -2.874  0.00  0.00    +0.000 A 
ATOM     26  C   UNL     1      -6.630  -4.651  -2.575  0.00  0.00    +0.003 A 
ENDBRANCH   7  21
BRANCH   5  27
ATOM     27  C   UNL     1      -9.876  -2.662   1.760  0.00  0.00    -0.019 A 
ATOM     28  C   UNL     1     -10.491  -1.685   1.000  0.00  0.00    +0.005 A 
ATOM     29  C   UNL     1     -11.207  -0.677   1.616  0.00  0.00    +0.000 A 
ATOM     30  C   UNL     1     -11.311  -0.643   2.995  0.00  0.00    +0.004 A 
ATOM     31  C   UNL     1     -10.699  -1.617   3.759  0.00  0.00    +0.045 A 
ATOM     32  C   UNL     1      -9.984  -2.633   3.142  0.00  0.00    +0.118 A 
BRANCH  32  33
ATOM     33  O   UNL     1      -9.385  -3.596   3.892  0.00  0.00    -0.507 OA
ATOM     34  H   UNL     1      -8.479  -3.383   4.155  0.00  0.00    +0.292 HD
ENDBRANCH  32  33
ENDBRANCH   5  27
BRANCH   7  35
ATOM     35  C   UNL     1      -8.952  -2.901  -2.486  0.00  0.00    +0.350 C 
ATOM     36  O   UNL     1     -10.153  -2.792  -2.661  0.00  0.00    -0.248 OA
ATOM     37  O   UNL     1      -8.173  -2.487  -3.328  0.00  0.00    -0.248 OA
ENDBRANCH   7  35
TORSDOF 6
