REMARK  Name = ZINC67357343
REMARK  9 active torsions:
REMARK  status: ('A' for Active; 'I' for Inactive)
REMARK    1  A    between atoms: C_1  and  C_2
REMARK    2  A    between atoms: C_5  and  N_9
REMARK    3  A    between atoms: C_10  and  C_12
REMARK    4  A    between atoms: C_12  and  C_13
REMARK    5  A    between atoms: C_13  and  N_14
REMARK    6  A    between atoms: N_17  and  C_18
REMARK    7  A    between atoms: C_18  and  C_20
REMARK    8  A    between atoms: C_18  and  C_21
REMARK    9  A    between atoms: C_21  and  N_22
REMARK                            x       y       z     vdW  Elec       q    Type
REMARK                         _______ _______ _______ _____ _____    ______ ____
ROOT
ATOM      1  N   UNL     1      -0.330  -8.309  -2.633  0.00  0.00    -0.299 N 
ATOM      2  C   UNL     1      -0.429  -8.977  -3.799  0.00  0.00    +0.300 C 
ATOM      3  O   UNL     1      -0.442  -8.366  -4.851  0.00  0.00    -0.253 OA
ATOM      4  N   UNL     1      -0.513 -10.322  -3.800  0.00  0.00    -0.295 N 
ATOM      5  H   UNL     1      -0.319  -8.796  -1.794  0.00  0.00    +0.150 HD
ATOM      6  H   UNL     1      -0.502 -10.809  -2.962  0.00  0.00    +0.151 HD
ENDROOT
BRANCH   4   7
ATOM      7  C   UNL     1      -0.621 -11.048  -5.068  0.00  0.00    +0.091 C 
ATOM      8  C   UNL     1       0.778 -11.282  -5.643  0.00  0.00    +0.029 C 
BRANCH   7   9
ATOM      9  C   UNL     1      -1.305 -12.396  -4.828  0.00  0.00    +0.144 C 
BRANCH   9  10
ATOM     10  N   UNL     1      -2.685 -12.171  -4.391  0.00  0.00    -0.337 N 
ATOM     11  C   UNL     1      -3.115 -12.024  -3.100  0.00  0.00    +0.104 A 
ATOM     12  C   UNL     1      -4.447 -11.838  -3.151  0.00  0.00    +0.101 A 
ATOM     13  N   UNL     1      -4.821 -11.872  -4.439  0.00  0.00    -0.352 N 
ATOM     14  C   UNL     1      -3.770 -12.066  -5.188  0.00  0.00    +0.173 A 
ATOM     15  H   UNL     1      -5.729 -11.765  -4.763  0.00  0.00    +0.166 HD
ENDBRANCH   9  10
ENDBRANCH   7   9
ENDBRANCH   4   7
BRANCH   1  16
ATOM     16  C   UNL     1      -0.238  -6.847  -2.632  0.00  0.00    +0.115 C 
BRANCH  16  17
ATOM     17  C   UNL     1      -0.136  -6.343  -1.191  0.00  0.00    +0.115 C 
BRANCH  17  19
ATOM     18  N   UNL     1       0.057  -4.171  -0.023  0.00  0.00    -0.284 N 
ATOM     19  C   UNL     1      -0.042  -4.839  -1.190  0.00  0.00    +0.219 C 
ATOM     20  O   UNL     1      -0.055  -4.230  -2.238  0.00  0.00    -0.275 OA
ATOM     21  H   UNL     1       0.149  -4.660   0.809  0.00  0.00    +0.155 HD
BRANCH  18  26
ATOM     22  C   UNL     1      -0.064   1.502   0.016  0.00  0.00    +0.044 C 
ATOM     23  C   UNL     1      -0.031  -0.005   0.006  0.00  0.00    -0.049 A 
ATOM     24  C   UNL     1      -0.622  -0.701  -1.033  0.00  0.00    +0.005 A 
ATOM     25  C   UNL     1      -0.594  -2.082  -1.045  0.00  0.00    +0.025 A 
ATOM     26  C   UNL     1       0.028  -2.772  -0.014  0.00  0.00    +0.052 A 
ATOM     27  C   UNL     1       0.621  -2.070   1.029  0.00  0.00    +0.062 A 
ATOM     28  C   UNL     1       0.595  -0.688   1.032  0.00  0.00    +0.025 A 
ATOM     29 CL   UNL     1       1.401  -2.928   2.321  0.00  0.00    -0.082 Cl
ENDBRANCH  18  26
ENDBRANCH  17  19
ENDBRANCH  16  17
ENDBRANCH   1  16
TORSDOF 7
