REMARK  Name = ZINC19169307
REMARK  4 active torsions:
REMARK  status: ('A' for Active; 'I' for Inactive)
REMARK    1  A    between atoms: C_4  and  C_7
REMARK    2  A    between atoms: C_7  and  N_8
REMARK    3  A    between atoms: C_13  and  C_16
REMARK    4  A    between atoms: C_21  and  O_22
REMARK                            x       y       z     vdW  Elec       q    Type
REMARK                         _______ _______ _______ _____ _____    ______ ____
ROOT
ATOM      1  N   UNL     1       4.153  -0.953   1.342  0.00  0.00    -0.225 NA
ATOM      2  C   UNL     1       5.470  -1.627   1.364  0.00  0.00    +0.173 C 
ATOM      3  C   UNL     1       5.432  -2.573   2.595  0.00  0.00    +0.125 C 
ATOM      4  C   UNL     1       4.025  -2.360   3.196  0.00  0.00    +0.117 C 
ATOM      5  N   UNL     1       3.228  -1.857   2.037  0.00  0.00    -0.245 NA
ATOM      6  C   UNL     1       5.519  -3.951   1.978  0.00  0.00    +0.226 C 
ATOM      7  O   UNL     1       5.526  -4.995   2.595  0.00  0.00    -0.275 OA
ATOM      8  N   UNL     1       5.588  -3.839   0.647  0.00  0.00    -0.255 N 
ATOM      9  C   UNL     1       5.572  -2.568   0.185  0.00  0.00    +0.239 C 
ATOM     10  O   UNL     1       5.627  -2.231  -0.978  0.00  0.00    -0.274 OA
ATOM     11  H   UNL     1       2.409  -1.362   2.355  0.00  0.00    +0.142 HD
ATOM     12  H   UNL     1       5.649  -4.607   0.058  0.00  0.00    +0.158 HD
ENDROOT
BRANCH   4  13
ATOM     13  C   UNL     1       3.455  -3.667   3.686  0.00  0.00    +0.013 A 
ATOM     14  C   UNL     1       2.625  -4.409   2.868  0.00  0.00    +0.009 A 
ATOM     15  C   UNL     1       2.102  -5.607   3.318  0.00  0.00    +0.001 A 
ATOM     16  C   UNL     1       2.408  -6.066   4.586  0.00  0.00    +0.004 A 
ATOM     17  C   UNL     1       3.237  -5.327   5.407  0.00  0.00    +0.046 A 
ATOM     18  C   UNL     1       3.768  -4.127   4.957  0.00  0.00    +0.122 A 
BRANCH  18  19
ATOM     19  O   UNL     1       4.589  -3.401   5.761  0.00  0.00    -0.506 OA
ATOM     20  H   UNL     1       4.127  -2.763   6.321  0.00  0.00    +0.292 HD
ENDBRANCH  18  19
ENDBRANCH   4  13
BRANCH   1  21
ATOM     21  C   UNL     1       3.711  -0.707  -0.038  0.00  0.00    +0.138 C 
BRANCH  21  25
ATOM     22  C   UNL     1      -0.017   1.378   0.010  0.00  0.00    +0.000 A 
ATOM     23  C   UNL     1       1.171   2.086   0.002  0.00  0.00    +0.000 A 
ATOM     24  C   UNL     1       2.377   1.411  -0.013  0.00  0.00    +0.005 A 
ATOM     25  C   UNL     1       2.396   0.029  -0.020  0.00  0.00    -0.032 A 
ATOM     26  C   UNL     1       1.208  -0.679  -0.012  0.00  0.00    +0.005 A 
ATOM     27  C   UNL     1       0.002  -0.004   0.002  0.00  0.00    +0.000 A 
ENDBRANCH  21  25
ENDBRANCH   1  21
TORSDOF 4
