REMARK  Name = ZINC34907130
REMARK  3 active torsions:
REMARK  status: ('A' for Active; 'I' for Inactive)
REMARK    1  A    between atoms: N_9  and  C_10
REMARK    2  A    between atoms: C_18  and  N_21
REMARK    3  A    between atoms: C_22  and  C_24
REMARK                            x       y       z     vdW  Elec       q    Type
REMARK                         _______ _______ _______ _____ _____    ______ ____
ROOT
ATOM      1  C   UNL     1      -0.196   1.193  -0.024  0.00  0.00    +0.002 A 
ATOM      2  C   UNL     1       0.931   1.999  -0.065  0.00  0.00    +0.002 A 
ATOM      3  C   UNL     1       2.192   1.438  -0.079  0.00  0.00    +0.028 A 
ATOM      4  C   UNL     1       2.333   0.059  -0.052  0.00  0.00    +0.068 A 
ATOM      5  C   UNL     1       1.195  -0.762  -0.011  0.00  0.00    +0.065 A 
ATOM      6  C   UNL     1      -0.074  -0.178   0.003  0.00  0.00    +0.028 A 
ATOM      7  N   UNL     1       1.631  -2.049   0.008  0.00  0.00    -0.327 N 
ATOM      8  C   UNL     1       2.940  -2.071  -0.019  0.00  0.00    +0.177 A 
ATOM      9  N   UNL     1       3.424  -0.795  -0.056  0.00  0.00    -0.310 N 
ATOM     10  N   UNL     1       3.714  -3.212  -0.010  0.00  0.00    -0.301 N 
ATOM     11  C   UNL     1       3.208  -4.592   0.102  0.00  0.00    +0.110 C 
ATOM     12  C   UNL     1       4.309  -5.471  -0.543  0.00  0.00    +0.043 C 
ATOM     13  C   UNL     1       5.599  -4.739  -0.087  0.00  0.00    +0.092 C 
ATOM     14  C   UNL     1       5.180  -3.254  -0.118  0.00  0.00    +0.130 C 
ATOM     15  H   UNL     1       1.059  -2.833   0.037  0.00  0.00    +0.169 HD
ENDROOT
BRANCH   9  16
ATOM     16  C   UNL     1       4.835  -0.402  -0.095  0.00  0.00    +0.090 C 
ATOM     17  C   UNL     1       5.193   0.408   1.169  0.00  0.00    +0.025 C 
ATOM     18  C   UNL     1       6.182   1.486   0.662  0.00  0.00    +0.002 C 
ATOM     19  C   UNL     1       5.597   1.863  -0.722  0.00  0.00    +0.002 C 
ATOM     20  C   UNL     1       5.092   0.524  -1.297  0.00  0.00    +0.025 C 
ENDBRANCH   9  16
BRANCH  13  21
ATOM     21  N   UNL     1       5.979  -5.152   1.266  0.00  0.00    -0.307 N 
ATOM     22  C   UNL     1       6.743  -6.247   1.447  0.00  0.00    +0.244 C 
ATOM     23  O   UNL     1       7.116  -6.893   0.487  0.00  0.00    -0.270 OA
ATOM     24  H   UNL     1       5.681  -4.636   2.032  0.00  0.00    +0.149 HD
BRANCH  22  25
ATOM     25  C   UNL     1       7.127  -6.664   2.812  0.00  0.00    +0.037 A 
ATOM     26  C   UNL     1       6.694  -5.927   3.917  0.00  0.00    +0.014 A 
ATOM     27  C   UNL     1       7.056  -6.321   5.188  0.00  0.00    +0.016 A 
ATOM     28  C   UNL     1       7.845  -7.444   5.370  0.00  0.00    +0.018 A 
ATOM     29  C   UNL     1       8.277  -8.178   4.278  0.00  0.00    +0.016 A 
ATOM     30  C   UNL     1       7.918  -7.798   3.002  0.00  0.00    +0.014 A 
ATOM     31 BR   UNL     1       8.337  -7.976   7.117  0.00  0.00    -0.050 Br
ENDBRANCH  22  25
ENDBRANCH  13  21
TORSDOF 3
