REMARK  Name = ZINC40373012
REMARK  2 active torsions:
REMARK  status: ('A' for Active; 'I' for Inactive)
REMARK    1  A    between atoms: C_4  and  C_7
REMARK    2  A    between atoms: C_7  and  C_8
REMARK                            x       y       z     vdW  Elec       q    Type
REMARK                         _______ _______ _______ _____ _____    ______ ____
ROOT
ATOM      1  C   UNL     1       3.986  -0.978   1.471  0.00  0.00    -0.004 C 
ATOM      2  C   UNL     1       3.045  -1.801   2.355  0.00  0.00    +0.023 C 
ATOM      3  C   UNL     1       3.694  -2.010   3.727  0.00  0.00    +0.108 C 
ATOM      4  N   UNL     1       5.021  -2.610   3.536  0.00  0.00    -0.301 N 
ATOM      5  C   UNL     1       5.973  -1.947   2.633  0.00  0.00    +0.108 C 
ATOM      6  C   UNL     1       5.299  -1.739   1.274  0.00  0.00    +0.023 C 
ATOM      7  C   UNL     1       5.366  -3.765   4.188  0.00  0.00    +0.200 A 
ATOM      8  N   UNL     1       6.649  -4.215   4.076  0.00  0.00    -0.294 N 
ATOM      9  H   UNL     1       7.290  -3.717   3.545  0.00  0.00    +0.172 HD
ATOM     10  C   UNL     1       7.032  -5.351   4.704  0.00  0.00    +0.262 A 
ATOM     11  O   UNL     1       8.172  -5.768   4.616  0.00  0.00    -0.267 OA
ATOM     12  C   UNL     1       6.019  -6.061   5.495  0.00  0.00    +0.087 A 
ATOM     13  C   UNL     1       6.308  -7.242   6.180  0.00  0.00    -0.027 A 
ATOM     14  C   UNL     1       5.294  -7.842   6.900  0.00  0.00    -0.025 A 
ATOM     15  C   UNL     1       4.033  -7.258   6.918  0.00  0.00    +0.117 A 
ATOM     16  N   UNL     1       3.775  -6.146   6.266  0.00  0.00    -0.235 NA
ATOM     17  C   UNL     1       4.713  -5.522   5.556  0.00  0.00    +0.169 A 
ATOM     18  N   UNL     1       4.449  -4.380   4.893  0.00  0.00    -0.196 NA
ATOM     19  C   UNL     1       5.815  -9.099   7.562  0.00  0.00    +0.037 C 
ATOM     20  C   UNL     1       7.126  -9.434   6.821  0.00  0.00    +0.009 C 
ATOM     21  C   UNL     1       7.578  -8.050   6.306  0.00  0.00    +0.036 C 
ENDROOT
BRANCH   1  22
ATOM     22  C   UNL     1       3.326  -0.738   0.111  0.00  0.00    +0.038 C 
BRANCH  22  26
ATOM     23  C   UNL     1      -0.156   1.682   0.622  0.00  0.00    +0.000 A 
ATOM     24  C   UNL     1       1.071   2.276   0.393  0.00  0.00    +0.000 A 
ATOM     25  C   UNL     1       2.198   1.493   0.228  0.00  0.00    +0.003 A 
ATOM     26  C   UNL     1       2.098   0.116   0.292  0.00  0.00    -0.047 A 
ATOM     27  C   UNL     1       0.871  -0.478   0.522  0.00  0.00    +0.003 A 
ATOM     28  C   UNL     1      -0.256   0.305   0.685  0.00  0.00    +0.000 A 
ENDBRANCH  22  26
ENDBRANCH   1  22
TORSDOF 2
