REMARK  Name = ZINC63588687
REMARK  7 active torsions:
REMARK  status: ('A' for Active; 'I' for Inactive)
REMARK    1  A    between atoms: C_1  and  C_2
REMARK    2  A    between atoms: C_7  and  N_8
REMARK    3  A    between atoms: N_10  and  C_11
REMARK    4  A    between atoms: C_11  and  C_12
REMARK    5  A    between atoms: C_12  and  C_13
REMARK    6  A    between atoms: N_22  and  C_23
REMARK    7  A    between atoms: C_23  and  C_25
REMARK                            x       y       z     vdW  Elec       q    Type
REMARK                         _______ _______ _______ _____ _____    ______ ____
ROOT
ATOM      1  N   UNL     1      -1.076  -0.738   3.233  0.00  0.00    -0.328 N 
ATOM      2  C   UNL     1      -0.203  -0.972   4.257  0.00  0.00    +0.194 C 
ATOM      3  N   UNL     1       0.239   0.064   5.026  0.00  0.00    -0.357 N 
ATOM      4  N   UNL     1       0.214  -2.205   4.503  0.00  0.00    -0.143 NA
ATOM      5  H   UNL     1       0.889  -0.096   5.728  0.00  0.00    +0.162 HD
ATOM      6  H   UNL     1      -2.006  -1.001   3.319  0.00  0.00    +0.169 HD
ENDROOT
BRANCH   1  13
ATOM      7  C   UNL     1      -3.011  -0.004   1.280  0.00  0.00    +0.046 C 
ATOM      8  C   UNL     1      -1.540   0.255   1.081  0.00  0.00    -0.027 A 
ATOM      9  C   UNL     1      -1.096   0.870  -0.073  0.00  0.00    +0.005 A 
ATOM     10  C   UNL     1       0.254   1.107  -0.256  0.00  0.00    +0.000 A 
ATOM     11  C   UNL     1       1.163   0.730   0.715  0.00  0.00    +0.002 A 
ATOM     12  C   UNL     1       0.726   0.115   1.871  0.00  0.00    +0.026 A 
ATOM     13  C   UNL     1      -0.629  -0.120   2.061  0.00  0.00    +0.045 A 
ENDBRANCH   1  13
BRANCH   4  14
ATOM     14  C   UNL     1      -0.070  -3.192   3.643  0.00  0.00    +0.270 C 
ATOM     15  O   UNL     1      -0.603  -2.937   2.577  0.00  0.00    -0.268 OA
BRANCH  14  16
ATOM     16  C   UNL     1       0.266  -4.592   3.986  0.00  0.00    +0.039 A 
ATOM     17  C   UNL     1       0.767  -4.902   5.251  0.00  0.00    +0.014 A 
ATOM     18  C   UNL     1       1.078  -6.209   5.566  0.00  0.00    +0.016 A 
ATOM     19  C   UNL     1       0.893  -7.212   4.629  0.00  0.00    +0.018 A 
ATOM     20  C   UNL     1       0.397  -6.910   3.373  0.00  0.00    +0.016 A 
ATOM     21  C   UNL     1       0.077  -5.608   3.049  0.00  0.00    +0.014 A 
ATOM     22 BR   UNL     1       1.322  -9.001   5.069  0.00  0.00    -0.050 Br
ENDBRANCH  14  16
ENDBRANCH   4  14
BRANCH   3  23
ATOM     23  C   UNL     1      -0.269   1.418   4.793  0.00  0.00    +0.120 C 
BRANCH  23  24
ATOM     24  C   UNL     1       0.418   2.393   5.752  0.00  0.00    +0.054 C 
BRANCH  24  25
ATOM     25  C   UNL     1      -0.187   3.764   5.594  0.00  0.00    -0.040 C 
ATOM     26  C   UNL     1      -1.313   4.228   6.181  0.00  0.00    -0.001 A 
ATOM     27  C   UNL     1      -2.276   3.618   7.106  0.00  0.00    +0.010 A 
ATOM     28  C   UNL     1      -3.332   4.350   7.530  0.00  0.00    +0.001 A 
ATOM     29  C   UNL     1      -3.529   5.672   7.109  0.00  0.00    +0.002 A 
ATOM     30  C   UNL     1      -2.688   6.300   6.261  0.00  0.00    +0.026 A 
ATOM     31  C   UNL     1      -1.544   5.626   5.752  0.00  0.00    +0.043 A 
ATOM     32  N   UNL     1      -0.596   6.011   4.931  0.00  0.00    -0.380 N 
ATOM     33  C   UNL     1       0.347   4.901   4.752  0.00  0.00    +0.144 C 
ATOM     34  H   UNL     1      -0.528   6.885   4.516  0.00  0.00    +0.160 HD
ENDBRANCH  24  25
ENDBRANCH  23  24
ENDBRANCH   3  23
TORSDOF 6
