REMARK  Name = ZINC05798916
REMARK  7 active torsions:
REMARK  status: ('A' for Active; 'I' for Inactive)
REMARK    1  A    between atoms: C_1  and  C_2
REMARK    2  A    between atoms: C_5  and  N_9
REMARK    3  A    between atoms: C_7  and  N_8
REMARK    4  A    between atoms: N_10  and  C_11
REMARK    5  A    between atoms: C_13  and  C_19
REMARK    6  A    between atoms: C_14  and  N_18
REMARK    7  A    between atoms: C_16  and  N_17
REMARK                            x       y       z     vdW  Elec       q    Type
REMARK                         _______ _______ _______ _____ _____    ______ ____
ROOT
ATOM      1  C   UNL     1       0.002  -0.004   0.002  0.00  0.00    +0.107 A 
ATOM      2  C   UNL     1      -0.017   1.395   0.010  0.00  0.00    +0.036 A 
ATOM      3  C   UNL     1       1.155   2.096   0.002  0.00  0.00    -0.028 A 
ATOM      4  C   UNL     1       2.377   1.427  -0.013  0.00  0.00    +0.029 A 
ATOM      5  C   UNL     1       2.415   0.038  -0.021  0.00  0.00    +0.048 A 
ATOM      6  C   UNL     1       1.233  -0.685  -0.013  0.00  0.00    +0.054 A 
ATOM      7  C   UNL     1       1.126   3.603   0.010  0.00  0.00    +0.046 C 
ENDROOT
BRANCH   6   8
ATOM      8  N   UNL     1       1.264  -2.075  -0.021  0.00  0.00    -0.356 N 
ATOM      9  H   UNL     1       0.435  -2.579  -0.015  0.00  0.00    +0.142 HD
ATOM     10  H   UNL     1       2.114  -2.542  -0.031  0.00  0.00    +0.142 HD
ENDBRANCH   6   8
BRANCH   4  11
ATOM     11  N   UNL     1       3.565   2.153  -0.020  0.00  0.00    -0.358 N 
ATOM     12  H   UNL     1       4.417   1.689  -0.030  0.00  0.00    +0.142 HD
ATOM     13  H   UNL     1       3.541   3.123  -0.015  0.00  0.00    +0.142 HD
ENDBRANCH   4  11
BRANCH   1  15
ATOM     14  N   UNL     1      -2.293  -0.077   0.023  0.00  0.00    -0.149 NA
ATOM     15  N   UNL     1      -1.166  -0.704   0.009  0.00  0.00    -0.147 NA
BRANCH  14  20
ATOM     16  C   UNL     1      -7.131  -2.993   0.054  0.00  0.00    +0.045 C 
ATOM     17  C   UNL     1      -5.841  -2.213   0.045  0.00  0.00    -0.030 A 
ATOM     18  C   UNL     1      -4.632  -2.883   0.029  0.00  0.00    +0.007 A 
ATOM     19  C   UNL     1      -3.447  -2.177   0.022  0.00  0.00    +0.030 A 
ATOM     20  C   UNL     1      -3.466  -0.779   0.030  0.00  0.00    +0.088 A 
ATOM     21  C   UNL     1      -4.687  -0.104   0.050  0.00  0.00    +0.052 A 
ATOM     22  C   UNL     1      -5.872  -0.823   0.053  0.00  0.00    +0.030 A 
BRANCH  22  23
ATOM     23  N   UNL     1      -7.097  -0.152   0.068  0.00  0.00    -0.358 N 
ATOM     24  H   UNL     1      -7.926  -0.656   0.073  0.00  0.00    +0.142 HD
ATOM     25  H   UNL     1      -7.119   0.818   0.073  0.00  0.00    +0.142 HD
ENDBRANCH  22  23
ENDBRANCH  14  20
ENDBRANCH   1  15
TORSDOF 5
