REMARK  Name = ZINC39948795
REMARK  9 active torsions:
REMARK  status: ('A' for Active; 'I' for Inactive)
REMARK    1  A    between atoms: C_1  and  C_2
REMARK    2  A    between atoms: C_4  and  C_34
REMARK    3  A    between atoms: C_5  and  C_9
REMARK    4  A    between atoms: C_6  and  C_8
REMARK    5  A    between atoms: N_10  and  N_11
REMARK    6  A    between atoms: C_12  and  C_14
REMARK    7  A    between atoms: C_15  and  C_25
REMARK    8  A    between atoms: C_25  and  N_26
REMARK    9  A    between atoms: C_31  and  C_33
REMARK                            x       y       z     vdW  Elec       q    Type
REMARK                         _______ _______ _______ _____ _____    ______ ____
ROOT
ATOM      1  C   UNL     1      -0.067  -4.065   4.988  0.00  0.00    +0.170 A 
ATOM      2  C   UNL     1      -0.001  -4.554   6.262  0.00  0.00    +0.063 A 
ATOM      3  N   UNL     1      -0.259  -3.519   7.091  0.00  0.00    -0.194 N 
ATOM      4  N   UNL     1      -0.480  -2.396   6.280  0.00  0.00    -0.058 NA
ATOM      5  N   UNL     1      -0.355  -2.753   5.050  0.00  0.00    -0.124 NA
ATOM      6  C   UNL     1      -0.297  -3.559   8.490  0.00  0.00    +0.240 A 
ATOM      7  C   UNL     1      -0.584  -2.425   9.373  0.00  0.00    +0.206 A 
ATOM      8  N   UNL     1      -0.532  -2.843  10.607  0.00  0.00    -0.032 NA
ATOM      9  O   UNL     1      -0.218  -4.225  10.585  0.00  0.00    -0.239 OA
ATOM     10  N   UNL     1      -0.089  -4.612   9.228  0.00  0.00    -0.027 NA
ATOM     11  N   UNL     1      -0.864  -1.126   8.965  0.00  0.00    -0.337 N 
ATOM     12  H   UNL     1      -0.880  -0.907   8.020  0.00  0.00    +0.144 HD
ATOM     13  H   UNL     1      -1.042  -0.438   9.625  0.00  0.00    +0.144 HD
ENDROOT
BRANCH   1  15
ATOM     14  N   UNL     1       0.154  -4.221   2.558  0.00  0.00    -0.202 N 
ATOM     15  C   UNL     1       0.148  -4.843   3.753  0.00  0.00    +0.285 C 
ATOM     16  O   UNL     1       0.320  -6.045   3.815  0.00  0.00    -0.267 OA
ATOM     17  H   UNL     1       0.089  -3.255   2.513  0.00  0.00    +0.178 HD
BRANCH  14  19
ATOM     18  C   UNL     1       0.365  -4.370   0.234  0.00  0.00    +0.138 C 
ATOM     19  N   UNL     1       0.255  -4.971   1.379  0.00  0.00    -0.187 NA
BRANCH  18  24
ATOM     20  C   UNL     1       1.024   1.340   0.038  0.00  0.00    +0.044 C 
ATOM     21  C   UNL     1       0.851  -0.156   0.089  0.00  0.00    -0.050 A 
ATOM     22  C   UNL     1       1.741  -0.927   0.817  0.00  0.00    +0.007 A 
ATOM     23  C   UNL     1       1.589  -2.297   0.868  0.00  0.00    -0.041 A 
ATOM     24  C   UNL     1       0.534  -2.906   0.184  0.00  0.00    +0.000 A 
ATOM     25  C   UNL     1      -0.360  -2.121  -0.548  0.00  0.00    -0.041 A 
ATOM     26  C   UNL     1      -0.199  -0.751  -0.586  0.00  0.00    +0.007 A 
ATOM     27  C   UNL     1      -1.501  -2.768  -1.290  0.00  0.00    +0.044 C 
ATOM     28  C   UNL     1       2.559  -3.135   1.660  0.00  0.00    +0.044 C 
ENDBRANCH  18  24
ENDBRANCH  14  19
ENDBRANCH   1  15
BRANCH   2  29
ATOM     29  C   UNL     1       0.301  -5.975   6.664  0.00  0.00    -0.019 C 
BRANCH  29  30
ATOM     30  N   UNL     1      -0.952  -6.736   6.749  0.00  0.00    +0.385 N 
ATOM     31  C   UNL     1      -1.785  -6.187   7.826  0.00  0.00    -0.078 C 
ATOM     32  C   UNL     1      -3.125  -6.924   7.866  0.00  0.00    -0.019 C 
ATOM     33  C   UNL     1      -2.875  -8.414   8.121  0.00  0.00    -0.003 C 
ATOM     34  C   UNL     1      -1.945  -8.958   7.033  0.00  0.00    -0.016 C 
ATOM     35  C   UNL     1      -0.649  -8.146   7.024  0.00  0.00    -0.071 C 
ATOM     36  C   UNL     1       0.284  -8.687   5.938  0.00  0.00    -0.013 C 
ATOM     37  H   UNL     1      -1.448  -6.665   5.874  0.00  0.00    -0.081 HD
ENDBRANCH  29  30
ENDBRANCH   2  29
TORSDOF 5
