REMARK  Name = ZINC00930816
REMARK  9 active torsions:
REMARK  status: ('A' for Active; 'I' for Inactive)
REMARK    1  A    between atoms: C_1  and  C_2
REMARK    2  A    between atoms: C_5  and  C_8
REMARK    3  A    between atoms: C_8  and  C_10
REMARK    4  A    between atoms: C_8  and  N_19
REMARK    5  A    between atoms: N_12  and  C_13
REMARK    6  A    between atoms: N_19  and  C_20
REMARK    7  A    between atoms: C_23  and  N_26
REMARK    8  A    between atoms: C_27  and  C_29
REMARK    9  A    between atoms: C_30  and  C_32
REMARK                            x       y       z     vdW  Elec       q    Type
REMARK                         _______ _______ _______ _____ _____    ______ ____
ROOT
ATOM      1  N   UNL     1       1.633  -5.292   0.569  0.00  0.00    -0.252 N 
ATOM      2  C   UNL     1       2.634  -5.506  -0.308  0.00  0.00    +0.265 C 
ATOM      3  O   UNL     1       2.388  -5.627  -1.490  0.00  0.00    -0.271 OA
ENDROOT
BRANCH   2   4
ATOM      4  C   UNL     1       4.057  -5.596   0.179  0.00  0.00    +0.296 C 
ATOM      5  C   UNL     1       4.524  -4.219   0.669  0.00  0.00    +0.283 C 
ATOM      6  O   UNL     1       5.881  -4.336   1.110  0.00  0.00    -0.484 OA
ATOM      7  C   UNL     1       6.734  -5.011   0.292  0.00  0.00    +0.162 A 
ATOM      8  C   UNL     1       8.102  -4.859   0.460  0.00  0.00    +0.049 A 
ATOM      9  C   UNL     1       8.981  -5.540  -0.361  0.00  0.00    +0.004 A 
ATOM     10  C   UNL     1       8.499  -6.373  -1.353  0.00  0.00    +0.004 A 
ATOM     11  C   UNL     1       7.136  -6.528  -1.527  0.00  0.00    +0.049 A 
ATOM     12  C   UNL     1       6.249  -5.847  -0.707  0.00  0.00    +0.163 A 
ATOM     13  O   UNL     1       4.910  -6.004  -0.896  0.00  0.00    -0.472 OA
ENDBRANCH   2   4
BRANCH   1  14
ATOM     14  C   UNL     1       1.901  -5.263   1.944  0.00  0.00    +0.038 A 
ATOM     15  C   UNL     1       2.311  -6.418   2.596  0.00  0.00    +0.025 A 
ATOM     16  C   UNL     1       2.575  -6.390   3.950  0.00  0.00    +0.025 A 
ATOM     17  C   UNL     1       2.431  -5.206   4.661  0.00  0.00    +0.033 A 
ATOM     18  C   UNL     1       2.021  -4.050   4.009  0.00  0.00    +0.025 A 
ATOM     19  C   UNL     1       1.764  -4.077   2.653  0.00  0.00    +0.025 A 
BRANCH  17  20
ATOM     20  N   UNL     1       2.699  -5.177   6.035  0.00  0.00    -0.286 N 
ATOM     21  C   UNL     1       3.667  -5.960   6.550  0.00  0.00    +0.214 C 
ATOM     22  O   UNL     1       4.369  -6.620   5.813  0.00  0.00    -0.276 OA
ATOM     23  C   UNL     1       3.878  -6.017   8.041  0.00  0.00    +0.109 C 
ATOM     24  H   UNL     1       2.187  -4.593   6.617  0.00  0.00    +0.155 HD
ENDBRANCH  17  20
ENDBRANCH   1  14
BRANCH   1  25
ATOM     25  C   UNL     1       0.265  -5.089   0.085  0.00  0.00    +0.197 C 
BRANCH  25  30
ATOM     26  C   UNL     1      -3.155  -3.651   4.516  0.00  0.00    +0.044 C 
ATOM     27  C   UNL     1      -2.263  -4.026   3.360  0.00  0.00    -0.050 A 
ATOM     28  C   UNL     1      -2.160  -3.188   2.266  0.00  0.00    +0.004 A 
ATOM     29  C   UNL     1      -1.342  -3.532   1.206  0.00  0.00    +0.006 A 
ATOM     30  C   UNL     1      -0.626  -4.713   1.241  0.00  0.00    -0.018 A 
ATOM     31  C   UNL     1      -0.727  -5.551   2.336  0.00  0.00    +0.006 A 
ATOM     32  C   UNL     1      -1.542  -5.205   3.397  0.00  0.00    +0.004 A 
ENDBRANCH  25  30
BRANCH  25  33
ATOM     33  C   UNL     1      -0.238  -6.361  -0.545  0.00  0.00    +0.239 C 
ATOM     34  O   UNL     1       0.475  -7.341  -0.586  0.00  0.00    -0.273 OA
ATOM     35  N   UNL     1      -1.482  -6.410  -1.063  0.00  0.00    -0.311 N 
ATOM     36  H   UNL     1      -2.052  -5.627  -1.031  0.00  0.00    +0.149 HD
BRANCH  35  37
ATOM     37  C   UNL     1      -1.972  -7.648  -1.676  0.00  0.00    +0.073 C 
ATOM     38  C   UNL     1      -1.519  -7.708  -3.136  0.00  0.00    +0.022 C 
ATOM     39  C   UNL     1      -2.031  -9.000  -3.776  0.00  0.00    +0.002 C 
ATOM     40  C   UNL     1      -3.559  -9.029  -3.714  0.00  0.00    +0.000 C 
ATOM     41  C   UNL     1      -4.012  -8.969  -2.254  0.00  0.00    +0.002 C 
ATOM     42  C   UNL     1      -3.500  -7.677  -1.614  0.00  0.00    +0.022 C 
ENDBRANCH  35  37
ENDBRANCH  25  33
ENDBRANCH   1  25
TORSDOF 7
