REMARK  Name = ZINC40756196
REMARK  6 active torsions:
REMARK  status: ('A' for Active; 'I' for Inactive)
REMARK    1  A    between atoms: C_3  and  N_8
REMARK    2  A    between atoms: C_10  and  N_24
REMARK    3  A    between atoms: C_11  and  N_15
REMARK    4  A    between atoms: N_15  and  C_16
REMARK    5  A    between atoms: C_16  and  C_17
REMARK    6  A    between atoms: C_17  and  C_18
REMARK                            x       y       z     vdW  Elec       q    Type
REMARK                         _______ _______ _______ _____ _____    ______ ____
ROOT
ATOM      1  N   UNL     1       3.604   1.998  -0.022  0.00  0.00    -0.295 N 
ATOM      2  C   UNL     1       3.656   3.383  -0.120  0.00  0.00    +0.149 A 
ATOM      3  C   UNL     1       4.882   4.040  -0.241  0.00  0.00    +0.105 A 
ATOM      4  C   UNL     1       4.877   5.433  -0.337  0.00  0.00    +0.145 A 
ATOM      5  N   UNL     1       3.712   6.077  -0.310  0.00  0.00    -0.219 NA
ATOM      6  C   UNL     1       2.577   5.418  -0.195  0.00  0.00    +0.225 A 
ATOM      7  N   UNL     1       2.537   4.104  -0.107  0.00  0.00    -0.219 NA
ATOM      8  H   UNL     1       4.414   1.473  -0.126  0.00  0.00    +0.154 HD
ENDROOT
BRANCH   1  11
ATOM      9  C   UNL     1       0.119   1.396   0.971  0.00  0.00    +0.022 A 
ATOM     10  C   UNL     1       1.306   2.073   0.741  0.00  0.00    +0.028 A 
ATOM     11  C   UNL     1       2.385   1.359   0.227  0.00  0.00    +0.070 A 
ATOM     12  C   UNL     1       2.233   0.002  -0.036  0.00  0.00    +0.150 A 
ATOM     13  N   UNL     1       1.084  -0.603   0.198  0.00  0.00    -0.242 NA
ATOM     14  C   UNL     1       0.044   0.046   0.685  0.00  0.00    +0.112 A 
ATOM     15 CL   UNL     1       3.567  -0.905  -0.678  0.00  0.00    -0.060 Cl
ENDBRANCH   1  11
BRANCH   3  16
ATOM     16  N   UNL     1       6.087   3.320  -0.264  0.00  0.00    -0.353 N 
ATOM     17  H   UNL     1       6.075   2.353  -0.196  0.00  0.00    +0.143 HD
ATOM     18  H   UNL     1       6.931   3.790  -0.348  0.00  0.00    +0.143 HD
ENDBRANCH   3  16
BRANCH   4  19
ATOM     19  N   UNL     1       6.069   6.137  -0.458  0.00  0.00    -0.327 N 
ATOM     20  H   UNL     1       6.914   5.660  -0.476  0.00  0.00    +0.148 HD
BRANCH  19  21
ATOM     21  C   UNL     1       6.051   7.598  -0.557  0.00  0.00    +0.107 C 
BRANCH  21  22
ATOM     22  C   UNL     1       7.484   8.119  -0.680  0.00  0.00    +0.049 C 
BRANCH  22  23
ATOM     23  C   UNL     1       7.465   9.623  -0.783  0.00  0.00    -0.072 C 
ATOM     24  C   UNL     1       7.630  10.307   0.303  0.00  0.00    -0.028 C 
ATOM     25  C   UNL     1       7.625  11.807   0.360  0.00  0.00    +0.027 C 
ATOM     26  C   UNL     1       7.826  12.389  -1.041  0.00  0.00    +0.004 C 
ATOM     27  C   UNL     1       6.845  11.700  -1.998  0.00  0.00    +0.005 C 
ATOM     28  C   UNL     1       7.261  10.233  -2.139  0.00  0.00    +0.030 C 
ENDBRANCH  22  23
ENDBRANCH  21  22
ENDBRANCH  19  21
ENDBRANCH   4  19
TORSDOF 6
