REMARK  Name = ZINC02385373
REMARK  9 active torsions:
REMARK  status: ('A' for Active; 'I' for Inactive)
REMARK    1  A    between atoms: C_1  and  O_2
REMARK    2  A    between atoms: O_2  and  C_3
REMARK    3  A    between atoms: C_8  and  C_9
REMARK    4  A    between atoms: N_10  and  N_11
REMARK    5  A    between atoms: C_12  and  N_35
REMARK    6  A    between atoms: C_13  and  C_24
REMARK    7  A    between atoms: N_26  and  C_27
REMARK    8  A    between atoms: C_27  and  C_28
REMARK    9  A    between atoms: C_28  and  C_29
REMARK                            x       y       z     vdW  Elec       q    Type
REMARK                         _______ _______ _______ _____ _____    ______ ____
ROOT
ATOM      1  N   UNL     1      -4.248  -0.194  -0.711  0.00  0.00    -0.198 N 
ATOM      2  C   UNL     1      -3.126   0.478  -1.095  0.00  0.00    +0.134 A 
ATOM      3  C   UNL     1      -2.406   0.898   0.018  0.00  0.00    +0.105 A 
ATOM      4  C   UNL     1      -3.154   0.436   1.199  0.00  0.00    +0.124 A 
ATOM      5  C   UNL     1      -4.332  -0.256   0.667  0.00  0.00    +0.183 A 
ATOM      6  N   UNL     1      -5.204  -0.783   1.500  0.00  0.00    -0.224 NA
ATOM      7  C   UNL     1      -5.011  -0.679   2.821  0.00  0.00    +0.092 A 
ATOM      8  C   UNL     1      -5.939  -1.239   3.719  0.00  0.00    +0.030 A 
ATOM      9  C   UNL     1      -5.736  -1.128   5.060  0.00  0.00    +0.002 A 
ATOM     10  C   UNL     1      -4.618  -0.465   5.563  0.00  0.00    +0.002 A 
ATOM     11  C   UNL     1      -3.699   0.089   4.727  0.00  0.00    +0.030 A 
ATOM     12  C   UNL     1      -3.875  -0.005   3.333  0.00  0.00    +0.090 A 
ATOM     13  N   UNL     1      -2.978   0.538   2.501  0.00  0.00    -0.241 NA
ENDROOT
BRANCH   3  14
ATOM     14  C   UNL     1      -1.187   1.624   0.017  0.00  0.00    +0.250 C 
ATOM     15  O   UNL     1      -1.204   2.841   0.023  0.00  0.00    -0.270 OA
ATOM     16  N   UNL     1      -0.011   0.966   0.007  0.00  0.00    -0.311 N 
ATOM     17  H   UNL     1       0.002  -0.004   0.002  0.00  0.00    +0.149 HD
BRANCH  16  18
ATOM     18  C   UNL     1       1.248   1.716  -0.001  0.00  0.00    +0.109 C 
BRANCH  18  19
ATOM     19  C   UNL     1       2.424   0.737  -0.017  0.00  0.00    +0.049 C 
BRANCH  19  20
ATOM     20  C   UNL     1       3.719   1.508  -0.025  0.00  0.00    -0.072 C 
ATOM     21  C   UNL     1       4.302   1.727   1.109  0.00  0.00    -0.028 C 
ATOM     22  C   UNL     1       5.587   2.486   1.261  0.00  0.00    +0.027 C 
ATOM     23  C   UNL     1       6.305   2.582  -0.087  0.00  0.00    +0.004 C 
ATOM     24  C   UNL     1       5.300   3.069  -1.138  0.00  0.00    +0.005 C 
ATOM     25  C   UNL     1       4.254   1.970  -1.349  0.00  0.00    +0.030 C 
ENDBRANCH  19  20
ENDBRANCH  18  19
ENDBRANCH  16  18
ENDBRANCH   3  14
BRANCH   2  26
ATOM     26  N   UNL     1      -2.759   0.707  -2.397  0.00  0.00    -0.342 N 
ATOM     27  H   UNL     1      -1.944   1.195  -2.592  0.00  0.00    +0.144 HD
ATOM     28  H   UNL     1      -3.315   0.382  -3.122  0.00  0.00    +0.144 HD
ENDBRANCH   2  26
BRANCH   1  30
ATOM     29  C   UNL     1      -5.047  -1.968  -2.008  0.00  0.00    +0.145 C 
ATOM     30  N   UNL     1      -5.187  -0.746  -1.591  0.00  0.00    -0.171 NA
BRANCH  29  36
ATOM     31  C   UNL     1      -7.127  -1.785  -3.369  0.00  0.00    +0.129 A 
ATOM     32  C   UNL     1      -8.050  -2.341  -4.240  0.00  0.00    +0.046 A 
ATOM     33  C   UNL     1      -7.893  -3.642  -4.679  0.00  0.00    +0.004 A 
ATOM     34  C   UNL     1      -6.815  -4.399  -4.253  0.00  0.00    +0.001 A 
ATOM     35  C   UNL     1      -5.885  -3.860  -3.389  0.00  0.00    +0.013 A 
ATOM     36  C   UNL     1      -6.035  -2.548  -2.934  0.00  0.00    +0.036 A 
BRANCH  31  38
ATOM     37  C   UNL     1      -8.418   0.209  -3.422  0.00  0.00    +0.277 C 
ATOM     38  O   UNL     1      -7.281  -0.507  -2.937  0.00  0.00    -0.494 OA
ENDBRANCH  31  38
ENDBRANCH  29  36
ENDBRANCH   1  30
TORSDOF 8
