REMARK  Name = ZINC08790445
REMARK  6 active torsions:
REMARK  status: ('A' for Active; 'I' for Inactive)
REMARK    1  A    between atoms: C_1  and  C_2
REMARK    2  A    between atoms: C_7  and  C_8
REMARK    3  A    between atoms: C_23  and  C_30
REMARK    4  A    between atoms: C_30  and  C_32
REMARK    5  A    between atoms: C_37  and  O_38
REMARK    6  A    between atoms: O_38  and  C_39
REMARK                            x       y       z     vdW  Elec       q    Type
REMARK                         _______ _______ _______ _____ _____    ______ ____
ROOT
ATOM      1  C   UNL     1      10.311  -6.499  -0.020  0.00  0.00    +0.044 C 
ATOM      2  C   UNL     1       9.130  -5.570   0.100  0.00  0.00    -0.046 A 
ATOM      3  C   UNL     1       7.857  -6.090   0.246  0.00  0.00    +0.004 A 
ATOM      4  C   UNL     1       6.773  -5.237   0.356  0.00  0.00    +0.005 A 
ATOM      5  C   UNL     1       6.963  -3.874   0.320  0.00  0.00    -0.026 A 
ATOM      6  C   UNL     1       8.239  -3.339   0.174  0.00  0.00    +0.039 A 
ATOM      7  C   UNL     1       9.325  -4.205   0.064  0.00  0.00    -0.026 A 
ATOM      8  C   UNL     1      10.716  -3.648  -0.095  0.00  0.00    +0.046 C 
ATOM      9  N   UNL     1       8.180  -1.944   0.165  0.00  0.00    -0.286 N 
ATOM     10  C   UNL     1       6.920  -1.488   0.297  0.00  0.00    +0.212 C 
ATOM     11  O   UNL     1       6.571  -0.327   0.321  0.00  0.00    -0.277 OA
ATOM     12  C   UNL     1       6.027  -2.698   0.409  0.00  0.00    +0.060 C 
ATOM     13  C   UNL     1       4.992  -2.726  -0.713  0.00  0.00    +0.085 C 
ATOM     14  C   UNL     1       5.395  -1.886  -1.888  0.00  0.00    -0.011 A 
ATOM     15  C   UNL     1       5.717  -0.556  -2.041  0.00  0.00    +0.006 A 
ATOM     16  C   UNL     1       6.059  -0.065  -3.288  0.00  0.00    +0.000 A 
ATOM     17  C   UNL     1       6.077  -0.912  -4.381  0.00  0.00    +0.002 A 
ATOM     18  C   UNL     1       5.754  -2.245  -4.233  0.00  0.00    +0.023 A 
ATOM     19  C   UNL     1       5.408  -2.748  -2.981  0.00  0.00    +0.038 A 
ATOM     20  N   UNL     1       5.049  -4.038  -2.584  0.00  0.00    -0.285 N 
ATOM     21  C   UNL     1       4.788  -4.109  -1.264  0.00  0.00    +0.228 C 
ATOM     22  O   UNL     1       4.454  -5.095  -0.643  0.00  0.00    -0.275 OA
ATOM     23  C   UNL     1       3.707  -2.195  -0.048  0.00  0.00    +0.066 C 
ATOM     24  C   UNL     1       3.845  -2.757   1.389  0.00  0.00    -0.055 C 
ATOM     25  C   UNL     1       5.519  -1.399   2.380  0.00  0.00    -0.076 C 
ATOM     26  C   UNL     1       4.258  -1.237   3.264  0.00  0.00    -0.020 C 
ATOM     27  C   UNL     1       3.120  -1.822   2.370  0.00  0.00    -0.016 C 
ATOM     28  H   UNL     1       8.956  -1.370   0.075  0.00  0.00    +0.155 HD
ATOM     29  H   UNL     1       4.993  -4.795  -3.188  0.00  0.00    +0.155 HD
ATOM     30  N   UNL     1       5.274  -2.673   1.679  0.00  0.00    +0.395 N 
ATOM     31  H   UNL     1       5.563  -3.461   2.271  0.00  0.00    -0.079 HD
ENDROOT
BRANCH  23  32
ATOM     32  C   UNL     1       3.686  -0.688  -0.038  0.00  0.00    +0.169 C 
ATOM     33  O   UNL     1       4.114  -0.081   0.921  0.00  0.00    -0.292 OA
BRANCH  32  34
ATOM     34  C   UNL     1       3.149   0.046  -1.191  0.00  0.00    +0.059 A 
ATOM     35  C   UNL     1       2.655  -0.649  -2.301  0.00  0.00    +0.015 A 
ATOM     36  C   UNL     1       2.153   0.046  -3.378  0.00  0.00    +0.001 A 
ATOM     37  C   UNL     1       2.135   1.432  -3.370  0.00  0.00    +0.004 A 
ATOM     38  C   UNL     1       2.619   2.132  -2.282  0.00  0.00    +0.046 A 
ATOM     39  C   UNL     1       3.128   1.450  -1.187  0.00  0.00    +0.131 A 
BRANCH  39  40
ATOM     40  O   UNL     1       3.603   2.136  -0.118  0.00  0.00    -0.494 OA
ATOM     41  C   UNL     1       3.549   3.563  -0.187  0.00  0.00    +0.277 C 
ENDBRANCH  39  40
ENDBRANCH  32  34
ENDBRANCH  23  32
TORSDOF 3
