REMARK  Name = ZINC33916474
REMARK  5 active torsions:
REMARK  status: ('A' for Active; 'I' for Inactive)
REMARK    1  A    between atoms: N_15  and  C_17
REMARK    2  A    between atoms: C_17  and  C_18
REMARK    3  A    between atoms: C_18  and  C_20
REMARK    4  A    between atoms: C_18  and  O_36
REMARK    5  A    between atoms: C_20  and  N_21
REMARK                            x       y       z     vdW  Elec       q    Type
REMARK                         _______ _______ _______ _____ _____    ______ ____
ROOT
ATOM      1  C   UNL     1       3.114   1.739  -4.257  0.00  0.00    +0.118 C 
ENDROOT
BRANCH   1   2
ATOM      2  O   UNL     1       1.908   1.010  -4.021  0.00  0.00    -0.392 OA
ATOM      3  H   UNL     1       1.924   0.103  -4.359  0.00  0.00    +0.210 HD
ENDBRANCH   1   2
BRANCH   1   4
ATOM      4  C   UNL     1       4.284   1.025  -3.576  0.00  0.00    -0.045 C 
BRANCH   4  17
ATOM      5  C   UNL     1      -0.016   1.360   0.009  0.00  0.00    +0.007 A 
ATOM      6  C   UNL     1       1.200   2.052   0.002  0.00  0.00    +0.022 A 
ATOM      7  C   UNL     1       2.378   1.376   0.018  0.00  0.00    +0.023 A 
ATOM      8  N   UNL     1       2.396   0.025   0.097  0.00  0.00    -0.312 N 
ATOM      9  C   UNL     1       1.236  -0.670   0.009  0.00  0.00    +0.251 A 
ATOM     10  O   UNL     1       1.265  -1.888  -0.065  0.00  0.00    -0.268 OA
ATOM     11  C   UNL     1       0.002  -0.004   0.002  0.00  0.00    +0.070 A 
ATOM     12  C   UNL     1       3.616  -0.747   0.336  0.00  0.00    +0.126 C 
ATOM     13  C   UNL     1       4.872   0.041   0.004  0.00  0.00    -0.007 C 
ATOM     14  C   UNL     1       4.780   1.432   0.639  0.00  0.00    +0.011 C 
ATOM     15  C   UNL     1       3.651   2.188  -0.073  0.00  0.00    +0.020 C 
ATOM     16  C   UNL     1       4.021   2.300  -1.561  0.00  0.00    -0.069 C 
ATOM     17  N   UNL     1       4.034   0.944  -2.131  0.00  0.00    +0.382 N 
ATOM     18  C   UNL     1       5.077   0.171  -1.498  0.00  0.00    -0.074 C 
ATOM     19  H   UNL     1       3.141   0.504  -1.970  0.00  0.00    -0.082 HD
ENDBRANCH   4  17
ENDBRANCH   1   4
BRANCH   1  20
ATOM     20  C   UNL     1       3.374   1.823  -5.762  0.00  0.00    +0.151 C 
BRANCH  20  21
ATOM     21  N   UNL     1       2.314   2.610  -6.397  0.00  0.00    -0.337 N 
ATOM     22  C   UNL     1       1.131   2.090  -6.893  0.00  0.00    +0.050 A 
ATOM     23  C   UNL     1       0.625   0.795  -6.941  0.00  0.00    +0.028 A 
ATOM     24  C   UNL     1      -0.611   0.557  -7.505  0.00  0.00    +0.022 A 
ATOM     25  C   UNL     1      -1.360   1.601  -8.028  0.00  0.00    +0.042 A 
ATOM     26  C   UNL     1      -0.875   2.891  -7.989  0.00  0.00    +0.030 A 
ATOM     27  C   UNL     1       0.372   3.145  -7.422  0.00  0.00    +0.009 A 
ATOM     28  C   UNL     1       1.165   4.372  -7.224  0.00  0.00    +0.009 A 
ATOM     29  C   UNL     1       2.350   3.981  -6.583  0.00  0.00    +0.050 A 
ATOM     30  C   UNL     1       3.300   4.945  -6.261  0.00  0.00    +0.028 A 
ATOM     31  C   UNL     1       3.072   6.269  -6.569  0.00  0.00    +0.022 A 
ATOM     32  C   UNL     1       1.898   6.655  -7.199  0.00  0.00    +0.042 A 
ATOM     33  C   UNL     1       0.948   5.712  -7.534  0.00  0.00    +0.030 A 
ATOM     34 CL   UNL     1       1.629   8.327  -7.578  0.00  0.00    -0.084 Cl
ATOM     35 CL   UNL     1      -2.913   1.281  -8.734  0.00  0.00    -0.084 Cl
ENDBRANCH  20  21
ENDBRANCH   1  20
TORSDOF 5
