REMARK  Name = ZINC38677441
REMARK  10 active torsions:
REMARK  status: ('A' for Active; 'I' for Inactive)
REMARK    1  A    between atoms: C_1  and  O_2
REMARK    2  A    between atoms: O_2  and  C_3
REMARK    3  A    between atoms: C_6  and  C_11
REMARK    4  A    between atoms: C_8  and  O_9
REMARK    5  A    between atoms: O_9  and  C_10
REMARK    6  A    between atoms: C_15  and  C_17
REMARK    7  A    between atoms: C_20  and  O_24
REMARK    8  A    between atoms: C_22  and  O_23
REMARK    9  A    between atoms: O_24  and  C_25
REMARK   10  A    between atoms: C_25  and  C_26
REMARK                            x       y       z     vdW  Elec       q    Type
REMARK                         _______ _______ _______ _____ _____    ______ ____
ROOT
ATOM      1  C   UNL     1      -6.525  -1.203   1.363  0.00  0.00    +0.022 A 
ATOM      2  C   UNL     1      -7.728  -0.804   0.811  0.00  0.00    +0.013 A 
ATOM      3  C   UNL     1      -8.197   0.477   1.026  0.00  0.00    +0.046 A 
ATOM      4  C   UNL     1      -7.462   1.367   1.798  0.00  0.00    +0.124 A 
ATOM      5  C   UNL     1      -6.256   0.969   2.352  0.00  0.00    +0.091 A 
ATOM      6  C   UNL     1      -5.789  -0.320   2.139  0.00  0.00    +0.126 A 
ENDROOT
BRANCH   1  11
ATOM      7  C   UNL     1      -4.958  -2.611   0.035  0.00  0.00    +0.008 C 
ATOM      8  C   UNL     1      -5.497  -3.402  -0.924  0.00  0.00    +0.139 C 
ATOM      9  N   UNL     1      -6.704  -3.840  -0.549  0.00  0.00    -0.185 NA
ATOM     10  N   UNL     1      -7.077  -3.452   0.560  0.00  0.00    -0.297 N 
ATOM     11  C   UNL     1      -6.016  -2.602   1.126  0.00  0.00    +0.164 C 
ATOM     12  H   UNL     1      -7.920  -3.671   0.987  0.00  0.00    +0.183 HD
BRANCH   7  16
ATOM     13  C   UNL     1      -1.200  -0.637   0.010  0.00  0.00    +0.162 A 
ATOM     14  C   UNL     1      -2.373   0.105   0.019  0.00  0.00    +0.050 A 
ATOM     15  C   UNL     1      -3.595  -0.531   0.028  0.00  0.00    +0.012 A 
ATOM     16  C   UNL     1      -3.655  -1.929   0.026  0.00  0.00    -0.014 A 
ATOM     17  C   UNL     1      -2.472  -2.677   0.016  0.00  0.00    +0.057 A 
ATOM     18  C   UNL     1      -1.252  -2.030   0.003  0.00  0.00    +0.162 A 
BRANCH  13  20
ATOM     19  C   UNL     1      -0.017   1.425   0.010  0.00  0.00    +0.277 C 
ATOM     20  O   UNL     1       0.002  -0.004   0.002  0.00  0.00    -0.491 OA
ENDBRANCH  13  20
BRANCH  18  21
ATOM     21  O   UNL     1      -0.100  -2.753  -0.012  0.00  0.00    -0.491 OA
ATOM     22  C   UNL     1      -0.227  -4.177  -0.018  0.00  0.00    +0.277 C 
ENDBRANCH  18  21
ENDBRANCH   7  16
ENDBRANCH   1  11
BRANCH   6  23
ATOM     23  O   UNL     1      -4.610  -0.715   2.686  0.00  0.00    -0.506 OA
ATOM     24  H   UNL     1      -3.841  -0.552   2.123  0.00  0.00    +0.292 HD
ENDBRANCH   6  23
BRANCH   4  25
ATOM     25  O   UNL     1      -7.924   2.627   2.009  0.00  0.00    -0.487 OA
BRANCH  25  26
ATOM     26  C   UNL     1      -9.175   2.969   1.407  0.00  0.00    +0.264 C 
BRANCH  26  27
ATOM     27  C   UNL     1      -9.523   4.395   1.748  0.00  0.00    -0.010 A 
ATOM     28  C   UNL     1     -10.253   4.674   2.888  0.00  0.00    +0.008 A 
ATOM     29  C   UNL     1     -10.572   5.982   3.201  0.00  0.00    +0.015 A 
ATOM     30  C   UNL     1     -10.162   7.011   2.374  0.00  0.00    +0.018 A 
ATOM     31  C   UNL     1      -9.432   6.731   1.233  0.00  0.00    +0.015 A 
ATOM     32  C   UNL     1      -9.108   5.424   0.923  0.00  0.00    +0.008 A 
ATOM     33 BR   UNL     1     -10.599   8.800   2.802  0.00  0.00    -0.050 Br
ENDBRANCH  26  27
ENDBRANCH  25  26
ENDBRANCH   4  25
TORSDOF 8
