REMARK  Name = ZINC40918847
REMARK  16 active torsions:
REMARK  status: ('A' for Active; 'I' for Inactive)
REMARK    1  A    between atoms: C_1  and  N_2
REMARK    2  A    between atoms: N_2  and  C_3
REMARK    3  A    between atoms: N_2  and  C_4
REMARK    4  A    between atoms: C_4  and  C_5
REMARK    5  A    between atoms: C_5  and  C_6
REMARK    6  A    between atoms: C_6  and  N_7
REMARK    7  A    between atoms: C_11  and  O_38
REMARK    8  A    between atoms: C_15  and  C_16
REMARK    9  A    between atoms: C_18  and  C_22
REMARK   10  A    between atoms: C_26  and  O_37
REMARK   11  A    between atoms: N_30  and  C_31
REMARK   12  A    between atoms: C_31  and  C_32
REMARK   13  A    between atoms: C_32  and  C_33
REMARK   14  A    between atoms: C_33  and  N_34
REMARK   15  A    between atoms: N_34  and  C_35
REMARK   16  A    between atoms: N_34  and  C_36
REMARK                            x       y       z     vdW  Elec       q    Type
REMARK                         _______ _______ _______ _____ _____    ______ ____
ROOT
ATOM      1  C   UNL     1      -2.928  -4.781   2.098  0.00  0.00    +0.017 A 
ATOM      2  C   UNL     1      -2.820  -5.854   2.986  0.00  0.00    +0.023 A 
ATOM      3  C   UNL     1      -2.552  -5.573   4.329  0.00  0.00    +0.017 A 
ATOM      4  C   UNL     1      -2.404  -4.243   4.726  0.00  0.00    +0.120 A 
ATOM      5  N   UNL     1      -2.513  -3.261   3.855  0.00  0.00    -0.262 NA
ATOM      6  C   UNL     1      -2.760  -3.482   2.580  0.00  0.00    +0.120 A 
ENDROOT
BRANCH   1  15
ATOM      7  N   UNL     1      -3.768  -4.103  -0.196  0.00  0.00    -0.340 N 
ATOM      8  C   UNL     1      -3.883  -4.655  -1.455  0.00  0.00    +0.050 A 
ATOM      9  C   UNL     1      -4.365  -4.170  -2.666  0.00  0.00    +0.030 A 
ATOM     10  C   UNL     1      -4.353  -4.974  -3.784  0.00  0.00    +0.047 A 
ATOM     11  C   UNL     1      -3.861  -6.275  -3.718  0.00  0.00    +0.118 A 
ATOM     12  C   UNL     1      -3.379  -6.777  -2.526  0.00  0.00    +0.055 A 
ATOM     13  C   UNL     1      -3.386  -5.970  -1.384  0.00  0.00    +0.004 A 
ATOM     14  C   UNL     1      -2.963  -6.175   0.001  0.00  0.00    +0.036 A 
ATOM     15  C   UNL     1      -3.211  -5.019   0.665  0.00  0.00    +0.052 A 
BRANCH  11  16
ATOM     16  O   UNL     1      -3.857  -7.055  -4.832  0.00  0.00    -0.507 OA
ATOM     17  H   UNL     1      -3.049  -6.986  -5.357  0.00  0.00    +0.292 HD
ENDBRANCH  11  16
BRANCH   7  18
ATOM     18  C   UNL     1      -4.173  -2.743   0.167  0.00  0.00    +0.120 C 
BRANCH  18  19
ATOM     19  C   UNL     1      -3.046  -1.766  -0.173  0.00  0.00    +0.003 C 
BRANCH  19  20
ATOM     20  C   UNL     1      -3.505  -0.336   0.115  0.00  0.00    -0.078 C 
BRANCH  20  22
ATOM     21  C   UNL     1      -2.902   1.980  -0.049  0.00  0.00    -0.097 C 
ATOM     22  N   UNL     1      -2.422   0.602  -0.212  0.00  0.00    +0.376 N 
ATOM     23  C   UNL     1      -1.285   0.369   0.688  0.00  0.00    -0.097 C 
ATOM     24  H   UNL     1      -2.130   0.458  -1.167  0.00  0.00    -0.083 HD
ENDBRANCH  20  22
ENDBRANCH  19  20
ENDBRANCH  18  19
ENDBRANCH   7  18
ENDBRANCH   1  15
BRANCH   3  25
ATOM     25  C   UNL     1      -2.427  -6.670   5.314  0.00  0.00    +0.052 A 
ATOM     26  C   UNL     1      -2.972  -7.904   5.182  0.00  0.00    +0.036 A 
ATOM     27  C   UNL     1      -2.602  -8.663   6.376  0.00  0.00    +0.004 A 
ATOM     28  C   UNL     1      -2.859  -9.967   6.812  0.00  0.00    +0.055 A 
ATOM     29  C   UNL     1      -2.353 -10.394   8.023  0.00  0.00    +0.118 A 
ATOM     30  C   UNL     1      -1.591  -9.532   8.808  0.00  0.00    +0.047 A 
ATOM     31  C   UNL     1      -1.331  -8.246   8.390  0.00  0.00    +0.030 A 
ATOM     32  C   UNL     1      -1.831  -7.796   7.172  0.00  0.00    +0.050 A 
ATOM     33  N   UNL     1      -1.736  -6.594   6.501  0.00  0.00    -0.340 N 
BRANCH  29  34
ATOM     34  O   UNL     1      -2.601 -11.660   8.451  0.00  0.00    -0.507 OA
ATOM     35  H   UNL     1      -1.939 -12.307   8.170  0.00  0.00    +0.292 HD
ENDBRANCH  29  34
BRANCH  33  36
ATOM     36  C   UNL     1      -1.012  -5.415   6.981  0.00  0.00    +0.120 C 
BRANCH  36  37
ATOM     37  C   UNL     1      -1.912  -4.611   7.921  0.00  0.00    +0.003 C 
BRANCH  37  38
ATOM     38  C   UNL     1      -1.204  -3.315   8.321  0.00  0.00    -0.078 C 
BRANCH  38  39
ATOM     39  N   UNL     1      -2.069  -2.544   9.224  0.00  0.00    +0.376 N 
ATOM     40  C   UNL     1      -1.344  -1.359   9.703  0.00  0.00    -0.097 C 
ATOM     41  C   UNL     1      -3.277  -2.120   8.503  0.00  0.00    -0.097 C 
ATOM     42  H   UNL     1      -2.331  -3.118  10.011  0.00  0.00    -0.083 HD
ENDBRANCH  38  39
ENDBRANCH  37  38
ENDBRANCH  36  37
ENDBRANCH  33  36
ENDBRANCH   3  25
TORSDOF 12
