REMARK  Name = ZINC38914860
REMARK  12 active torsions:
REMARK  status: ('A' for Active; 'I' for Inactive)
REMARK    1  A    between atoms: C_1  and  C_2
REMARK    2  A    between atoms: C_2  and  O_3
REMARK    3  A    between atoms: O_3  and  C_4
REMARK    4  A    between atoms: C_4  and  C_6
REMARK    5  A    between atoms: C_7  and  C_38
REMARK    6  A    between atoms: N_11  and  C_12
REMARK    7  A    between atoms: C_12  and  C_14
REMARK    8  A    between atoms: C_14  and  S_15
REMARK    9  A    between atoms: S_15  and  C_16
REMARK   10  A    between atoms: C_23  and  C_27
REMARK   11  A    between atoms: C_24  and  C_26
REMARK   12  A    between atoms: N_30  and  C_31
REMARK                            x       y       z     vdW  Elec       q    Type
REMARK                         _______ _______ _______ _____ _____    ______ ____
ROOT
ATOM      1  C   UNL     1     -11.263  -0.652   0.054  0.00  0.00    +0.210 C 
ATOM      2  N   UNL     1     -11.716  -1.397  -1.107  0.00  0.00    -0.277 NA
ATOM      3  C   UNL     1     -13.136  -1.707  -1.132  0.00  0.00    +0.135 C 
ATOM      4  C   UNL     1     -13.583  -2.453   0.138  0.00  0.00    +0.129 C 
ATOM      5  C   UNL     1     -13.467  -3.931  -0.029  0.00  0.00    -0.049 C 
ATOM      6  C   UNL     1     -13.378  -4.443  -1.243  0.00  0.00    -0.016 C 
ATOM      7  S   UNL     1     -13.419  -3.039  -2.377  0.00  0.00    -0.110 S 
ATOM      8  C   UNL     1     -13.267  -5.901  -1.609  0.00  0.00    +0.051 C 
ATOM      9  C   UNL     1     -13.453  -4.833   1.178  0.00  0.00    +0.041 C 
ATOM     10  C   UNL     1     -12.852  -1.975   1.348  0.00  0.00    +0.231 C 
ATOM     11  O   UNL     1     -13.248  -2.330   2.438  0.00  0.00    -0.274 OA
ATOM     12  N   UNL     1     -11.795  -1.186   1.297  0.00  0.00    -0.246 N 
ATOM     13  H   UNL     1     -11.429  -0.944  -1.962  0.00  0.00    +0.126 HD
ENDROOT
BRANCH  12  14
ATOM     14  C   UNL     1     -11.167  -0.836   2.498  0.00  0.00    +0.039 A 
ATOM     15  C   UNL     1     -11.197   0.479   2.942  0.00  0.00    +0.023 A 
ATOM     16  C   UNL     1     -10.577   0.821   4.127  0.00  0.00    +0.002 A 
ATOM     17  C   UNL     1      -9.926  -0.145   4.872  0.00  0.00    +0.000 A 
ATOM     18  C   UNL     1      -9.893  -1.455   4.433  0.00  0.00    +0.002 A 
ATOM     19  C   UNL     1     -10.517  -1.805   3.252  0.00  0.00    +0.023 A 
ENDBRANCH  12  14
BRANCH   1  20
ATOM     20  S   UNL     1      -9.451  -0.710   0.118  0.00  0.00    -0.113 S 
BRANCH  20  21
ATOM     21  C   UNL     1      -9.074  -2.476   0.286  0.00  0.00    +0.170 C 
BRANCH  21  22
ATOM     22  C   UNL     1      -7.580  -2.667   0.351  0.00  0.00    +0.248 C 
ATOM     23  O   UNL     1      -6.841  -1.703   0.291  0.00  0.00    -0.273 OA
BRANCH  22  29
ATOM     24  C   UNL     1      -3.125  -3.952   0.611  0.00  0.00    +0.118 A 
ATOM     25  C   UNL     1      -3.708  -5.178   0.699  0.00  0.00    +0.036 A 
ATOM     26  N   UNL     1      -5.051  -5.220   0.658  0.00  0.00    -0.339 N 
ATOM     27  H   UNL     1      -5.518  -6.068   0.718  0.00  0.00    +0.167 HD
ATOM     28  C   UNL     1      -5.751  -4.055   0.533  0.00  0.00    +0.164 A 
ATOM     29  N   UNL     1      -7.071  -3.887   0.475  0.00  0.00    -0.156 NA
ATOM     30  S   UNL     1      -4.547  -2.883   0.477  0.00  0.00    -0.046 S 
ATOM     31  C   UNL     1      -2.885  -6.433   0.836  0.00  0.00    +0.065 C 
BRANCH  24  32
ATOM     32  C   UNL     1      -1.703  -3.601   0.628  0.00  0.00    +0.348 C 
ATOM     33  O   UNL     1      -0.862  -4.475   0.727  0.00  0.00    -0.244 OA
BRANCH  32  34
ATOM     34  O   UNL     1      -1.325  -2.310   0.533  0.00  0.00    -0.461 OA
BRANCH  34  36
ATOM     35  C   UNL     1       0.310  -0.533   0.439  0.00  0.00    +0.048 C 
ATOM     36  C   UNL     1       0.078  -2.041   0.556  0.00  0.00    +0.229 C 
ENDBRANCH  34  36
ENDBRANCH  32  34
ENDBRANCH  24  32
ENDBRANCH  22  29
ENDBRANCH  21  22
ENDBRANCH  20  21
ENDBRANCH   1  20
TORSDOF 8
