REMARK  Name = ZINC05325133
REMARK  10 active torsions:
REMARK  status: ('A' for Active; 'I' for Inactive)
REMARK    1  A    between atoms: C_1  and  C_2
REMARK    2  A    between atoms: C_2  and  C_3
REMARK    3  A    between atoms: C_3  and  C_4
REMARK    4  A    between atoms: C_13  and  O_16
REMARK    5  A    between atoms: C_14  and  C_15
REMARK    6  A    between atoms: O_16  and  C_17
REMARK    7  A    between atoms: C_17  and  C_19
REMARK    8  A    between atoms: C_17  and  C_20
REMARK    9  A    between atoms: N_22  and  C_23
REMARK   10  A    between atoms: C_23  and  C_24
REMARK                            x       y       z     vdW  Elec       q    Type
REMARK                         _______ _______ _______ _____ _____    ______ ____
ROOT
ATOM      1  C   UNL     1       6.303   9.175  -7.640  0.00  0.00    -0.030 A 
ATOM      2  C   UNL     1       7.440   9.915  -7.707  0.00  0.00    +0.096 A 
ATOM      3  C   UNL     1       8.366   9.874  -6.645  0.00  0.00    +0.337 A 
ATOM      4  O   UNL     1       9.382  10.543  -6.718  0.00  0.00    -0.245 OA
ATOM      5  O   UNL     1       8.158   9.119  -5.555  0.00  0.00    -0.422 OA
ATOM      6  C   UNL     1       7.048   8.360  -5.426  0.00  0.00    +0.146 A 
ATOM      7  C   UNL     1       6.081   8.353  -6.448  0.00  0.00    +0.021 A 
ATOM      8  C   UNL     1       4.930   7.569  -6.317  0.00  0.00    +0.015 A 
ATOM      9  C   UNL     1       4.748   6.812  -5.196  0.00  0.00    +0.047 A 
ATOM     10  C   UNL     1       5.701   6.816  -4.180  0.00  0.00    +0.128 A 
ATOM     11  C   UNL     1       6.845   7.590  -4.290  0.00  0.00    +0.034 A 
ATOM     12  C   UNL     1       7.867   7.592  -3.183  0.00  0.00    +0.051 C 
ENDROOT
BRANCH   1  13
ATOM     13  C   UNL     1       5.296   9.199  -8.761  0.00  0.00    +0.036 C 
BRANCH  13  15
ATOM     14  C   UNL     1       3.184  10.250  -9.584  0.00  0.00    +0.004 C 
ATOM     15  C   UNL     1       4.206  10.225  -8.445  0.00  0.00    +0.001 C 
ENDBRANCH  13  15
ENDBRANCH   1  13
BRANCH  10  16
ATOM     16  O   UNL     1       5.506   6.059  -3.070  0.00  0.00    -0.480 OA
BRANCH  16  17
ATOM     17  C   UNL     1       4.253   5.381  -2.960  0.00  0.00    +0.255 C 
ATOM     18  C   UNL     1       4.323   4.051  -3.713  0.00  0.00    +0.062 C 
BRANCH  17  19
ATOM     19  C   UNL     1       3.949   5.121  -1.507  0.00  0.00    +0.254 C 
ATOM     20  O   UNL     1       4.769   5.397  -0.657  0.00  0.00    -0.272 OA
ATOM     21  N   UNL     1       2.767   4.580  -1.152  0.00  0.00    -0.308 N 
ATOM     22  H   UNL     1       2.111   4.359  -1.831  0.00  0.00    +0.149 HD
BRANCH  21  23
ATOM     23  C   UNL     1       2.471   4.327   0.261  0.00  0.00    +0.139 C 
BRANCH  23  24
ATOM     24  C   UNL     1       1.096   3.724   0.386  0.00  0.00    -0.027 A 
ATOM     25  C   UNL     1       0.917   2.350   0.348  0.00  0.00    +0.025 A 
ATOM     26  C   UNL     1      -0.360   1.834   0.466  0.00  0.00    +0.111 A 
ATOM     27  N   UNL     1      -1.400   2.632   0.608  0.00  0.00    -0.263 NA
ATOM     28  C   UNL     1      -1.266   3.943   0.654  0.00  0.00    +0.111 A 
ATOM     29  C   UNL     1      -0.021   4.531   0.543  0.00  0.00    +0.025 A 
ENDBRANCH  23  24
ENDBRANCH  21  23
ENDBRANCH  17  19
ENDBRANCH  16  17
ENDBRANCH  10  16
TORSDOF 7
