REMARK  Name = ZINC36500922
REMARK  19 active torsions:
REMARK  status: ('A' for Active; 'I' for Inactive)
REMARK    1  A    between atoms: C_1  and  C_2
REMARK    2  A    between atoms: C_2  and  C_3
REMARK    3  A    between atoms: C_2  and  C_4
REMARK    4  A    between atoms: C_2  and  C_5
REMARK    5  A    between atoms: C_5  and  C_6
REMARK    6  A    between atoms: C_6  and  C_7
REMARK    7  A    between atoms: C_6  and  C_8
REMARK    8  A    between atoms: C_6  and  N_9
REMARK    9  A    between atoms: C_10  and  C_12
REMARK   10  A    between atoms: C_12  and  C_14
REMARK   11  A    between atoms: C_12  and  N_23
REMARK   12  A    between atoms: C_17  and  O_22
REMARK   13  A    between atoms: C_18  and  O_20
REMARK   14  A    between atoms: O_20  and  C_21
REMARK   15  A    between atoms: N_23  and  C_24
REMARK   16  A    between atoms: C_24  and  C_25
REMARK   17  A    between atoms: C_30  and  C_32
REMARK   18  A    between atoms: C_36  and  O_39
REMARK   19  A    between atoms: C_37  and  O_38
REMARK                            x       y       z     vdW  Elec       q    Type
REMARK                         _______ _______ _______ _____ _____    ______ ____
ROOT
ATOM      1  C   UNL     1       5.684  -1.202  -3.472  0.00  0.00    +0.193 C 
ENDROOT
BRANCH   1   2
ATOM      2  C   UNL     1       4.768  -0.695  -4.555  0.00  0.00    -0.015 A 
ATOM      3  C   UNL     1       4.561   0.663  -4.704  0.00  0.00    +0.010 A 
ATOM      4  C   UNL     1       3.720   1.133  -5.696  0.00  0.00    +0.049 A 
ATOM      5  C   UNL     1       3.084   0.242  -6.544  0.00  0.00    +0.158 A 
ATOM      6  C   UNL     1       3.292  -1.126  -6.395  0.00  0.00    +0.162 A 
ATOM      7  C   UNL     1       4.139  -1.590  -5.401  0.00  0.00    +0.055 A 
BRANCH   6   8
ATOM      8  O   UNL     1       2.670  -2.005  -7.225  0.00  0.00    -0.491 OA
ATOM      9  C   UNL     1       2.842  -3.396  -6.944  0.00  0.00    +0.277 C 
ENDBRANCH   6   8
BRANCH   5  10
ATOM     10  O   UNL     1       2.256   0.702  -7.521  0.00  0.00    -0.503 OA
ATOM     11  H   UNL     1       2.700   0.879  -8.361  0.00  0.00    +0.292 HD
ENDBRANCH   5  10
ENDBRANCH   1   2
BRANCH   1  13
ATOM     12  N   UNL     1       3.864  -2.267  -2.179  0.00  0.00    -0.308 N 
ATOM     13  C   UNL     1       4.899  -1.403  -2.202  0.00  0.00    +0.239 C 
ATOM     14  O   UNL     1       5.197  -0.788  -1.200  0.00  0.00    -0.273 OA
ATOM     15  H   UNL     1       3.626  -2.759  -2.980  0.00  0.00    +0.149 HD
BRANCH  12  16
ATOM     16  C   UNL     1       3.100  -2.463  -0.945  0.00  0.00    +0.030 C 
ATOM     17  C   UNL     1       2.651  -1.104  -0.402  0.00  0.00    +0.031 C 
ATOM     18  C   UNL     1       3.980  -3.162   0.094  0.00  0.00    +0.031 C 
BRANCH  16  19
ATOM     19  C   UNL     1       1.872  -3.326  -1.237  0.00  0.00    +0.031 C 
BRANCH  19  21
ATOM     20  C   UNL     1       1.829  -3.051  -3.720  0.00  0.00    +0.010 C 
ATOM     21  C   UNL     1       1.098  -2.731  -2.414  0.00  0.00    -0.036 C 
ATOM     22  C   UNL     1       0.999  -1.213  -2.244  0.00  0.00    +0.010 C 
ATOM     23  C   UNL     1      -0.309  -3.332  -2.457  0.00  0.00    +0.010 C 
ENDBRANCH  19  21
ENDBRANCH  16  19
ENDBRANCH  12  16
ENDBRANCH   1  13
BRANCH   1  24
ATOM     24  N   UNL     1       6.750  -0.224  -3.237  0.00  0.00    -0.275 N 
ATOM     25  C   UNL     1       7.686  -0.008  -4.182  0.00  0.00    +0.252 C 
ATOM     26  O   UNL     1       8.584   0.787  -3.978  0.00  0.00    -0.270 OA
BRANCH  25  27
ATOM     27  C   UNL     1       7.623  -0.736  -5.464  0.00  0.00    +0.082 A 
ATOM     28  C   UNL     1       6.592  -1.649  -5.703  0.00  0.00    +0.017 A 
ATOM     29  C   UNL     1       6.535  -2.326  -6.901  0.00  0.00    +0.005 A 
ATOM     30  C   UNL     1       7.496  -2.108  -7.874  0.00  0.00    +0.049 A 
ATOM     31  C   UNL     1       8.524  -1.207  -7.653  0.00  0.00    +0.159 A 
ATOM     32  C   UNL     1       8.591  -0.510  -6.449  0.00  0.00    +0.171 A 
BRANCH  32  33
ATOM     33  O   UNL     1       9.593   0.379  -6.231  0.00  0.00    -0.503 OA
ATOM     34  H   UNL     1      10.381  -0.009  -5.826  0.00  0.00    +0.292 HD
ENDBRANCH  32  33
BRANCH  31  35
ATOM     35  O   UNL     1       9.464  -0.997  -8.613  0.00  0.00    -0.503 OA
ATOM     36  H   UNL     1       9.242  -0.290  -9.233  0.00  0.00    +0.292 HD
ENDBRANCH  31  35
ENDBRANCH  25  27
BRANCH  24  37
ATOM     37  C   UNL     1       6.798   0.518  -1.975  0.00  0.00    +0.183 C 
BRANCH  37  38
ATOM     38  C   UNL     1       7.401  -0.351  -0.903  0.00  0.00    +0.122 A 
ATOM     39  C   UNL     1       8.716  -0.501  -0.659  0.00  0.00    +0.046 A 
ATOM     40  C   UNL     1       8.831  -1.401   0.425  0.00  0.00    +0.041 A 
ATOM     41  C   UNL     1       7.580  -1.747   0.779  0.00  0.00    +0.195 A 
ATOM     42  O   UNL     1       6.718  -1.104  -0.025  0.00  0.00    -0.466 OA
ENDBRANCH  37  38
ENDBRANCH  24  37
ENDBRANCH   1  24
TORSDOF 13
