REMARK  Name = ZINC39710792
REMARK  9 active torsions:
REMARK  status: ('A' for Active; 'I' for Inactive)
REMARK    1  A    between atoms: C_1  and  C_2
REMARK    2  A    between atoms: C_8  and  C_14
REMARK    3  A    between atoms: C_14  and  C_16
REMARK    4  A    between atoms: C_14  and  N_25
REMARK    5  A    between atoms: N_20  and  C_21
REMARK    6  A    between atoms: C_21  and  C_22
REMARK    7  A    between atoms: C_22  and  O_23
REMARK    8  A    between atoms: O_23  and  C_24
REMARK    9  A    between atoms: N_28  and  C_31
REMARK                            x       y       z     vdW  Elec       q    Type
REMARK                         _______ _______ _______ _____ _____    ______ ____
ROOT
ATOM      1  C   UNL     1      -1.176  -2.600   4.426  0.00  0.00    +0.142 C 
ENDROOT
BRANCH   1   9
ATOM      2  C   UNL     1      -0.018   1.503   0.010  0.00  0.00    +0.045 C 
ATOM      3  C   UNL     1       0.002  -0.004   0.002  0.00  0.00    -0.029 A 
ATOM      4  C   UNL     1       0.006  -0.672  -1.181  0.00  0.00    +0.005 A 
ATOM      5  C   UNL     1       0.025  -2.064  -1.260  0.00  0.00    +0.001 A 
ATOM      6  C   UNL     1       0.041  -2.836  -0.142  0.00  0.00    +0.009 A 
ATOM      7  C   UNL     1       0.038  -2.181   1.167  0.00  0.00    -0.007 A 
ATOM      8  C   UNL     1       0.054  -2.914   2.316  0.00  0.00    -0.003 C 
ATOM      9  C   UNL     1       0.050  -2.153   3.627  0.00  0.00    +0.123 C 
ATOM     10  C   UNL     1       0.028  -0.642   3.553  0.00  0.00    +0.226 C 
ATOM     11  O   UNL     1       0.024   0.019   4.575  0.00  0.00    -0.275 OA
ATOM     12  N   UNL     1       0.014  -0.043   2.375  0.00  0.00    -0.284 N 
ATOM     13  C   UNL     1       0.023  -0.709   1.220  0.00  0.00    +0.043 A 
ATOM     14  H   UNL     1       0.000   0.926   2.349  0.00  0.00    +0.155 HD
ENDBRANCH   1   9
BRANCH   1  15
ATOM     15  N   UNL     1      -1.215  -1.882   5.707  0.00  0.00    -0.295 NA
ATOM     16  C   UNL     1       0.029  -2.085   6.463  0.00  0.00    +0.066 C 
ATOM     17  C   UNL     1      -0.027  -1.275   7.759  0.00  0.00    -0.059 C 
ATOM     18  N   UNL     1      -1.181  -1.707   8.558  0.00  0.00    +0.400 N 
ATOM     19  C   UNL     1      -2.418  -1.475   7.800  0.00  0.00    -0.059 C 
ATOM     20  C   UNL     1      -2.381  -2.287   6.503  0.00  0.00    +0.066 C 
ATOM     21  H   UNL     1      -1.095  -2.690   8.768  0.00  0.00    -0.078 HD
BRANCH  18  22
ATOM     22  C   UNL     1      -1.224  -0.941   9.811  0.00  0.00    +0.081 C 
ATOM     23  N   UNL     1      -2.413  -1.289  10.602  0.00  0.00    -0.347 N 
ATOM     24  C   UNL     1      -3.336  -0.276  10.857  0.00  0.00    +0.040 A 
ATOM     25  C   UNL     1      -4.526  -0.420  11.592  0.00  0.00    +0.024 A 
ATOM     26  C   UNL     1      -5.375   0.644  11.789  0.00  0.00    +0.002 A 
ATOM     27  C   UNL     1      -5.087   1.893  11.270  0.00  0.00    +0.001 A 
ATOM     28  C   UNL     1      -3.921   2.064  10.541  0.00  0.00    +0.016 A 
ATOM     29  C   UNL     1      -3.072   0.998  10.346  0.00  0.00    +0.029 A 
ATOM     30  S   UNL     1      -1.522   0.843   9.485  0.00  0.00    -0.120 S 
ATOM     31  H   UNL     1      -2.550  -2.190  10.934  0.00  0.00    +0.145 HD
ENDBRANCH  18  22
ENDBRANCH   1  15
BRANCH   1  32
ATOM     32  C   UNL     1      -2.426  -2.296   3.641  0.00  0.00    +0.170 A 
ATOM     33  N   UNL     1      -2.971  -1.117   3.464  0.00  0.00    -0.112 NA
ATOM     34  N   UNL     1      -4.024  -1.271   2.738  0.00  0.00    -0.023 NA
ATOM     35  N   UNL     1      -4.165  -2.517   2.447  0.00  0.00    -0.044 NA
ATOM     36  N   UNL     1      -3.196  -3.181   2.982  0.00  0.00    -0.225 N 
BRANCH  36  37
ATOM     37  C   UNL     1      -2.978  -4.627   2.891  0.00  0.00    +0.175 C 
BRANCH  37  38
ATOM     38  C   UNL     1      -3.696  -5.325   4.047  0.00  0.00    +0.183 C 
BRANCH  38  39
ATOM     39  O   UNL     1      -3.482  -6.735   3.958  0.00  0.00    -0.381 OA
ATOM     40  C   UNL     1      -4.114  -7.485   4.998  0.00  0.00    +0.194 C 
ENDBRANCH  38  39
ENDBRANCH  37  38
ENDBRANCH  36  37
ENDBRANCH   1  32
TORSDOF 7
