REMARK  Name = ZINC15037154
REMARK  6 active torsions:
REMARK  status: ('A' for Active; 'I' for Inactive)
REMARK    1  A    between atoms: C_4  and  C_7
REMARK    2  A    between atoms: C_7  and  N_8
REMARK    3  A    between atoms: C_9  and  C_11
REMARK    4  A    between atoms: C_11  and  N_12
REMARK    5  A    between atoms: C_16  and  C_17
REMARK    6  A    between atoms: C_20  and  C_23
REMARK                            x       y       z     vdW  Elec       q    Type
REMARK                         _______ _______ _______ _____ _____    ______ ____
ROOT
ATOM      1  N   UNL     1       2.513  12.112   0.360  0.00  0.00    -0.246 N 
ATOM      2  C   UNL     1       1.256  11.708   0.284  0.00  0.00    +0.259 C 
ATOM      3  O   UNL     1       0.328  12.495   0.318  0.00  0.00    -0.269 OA
ATOM      4  C   UNL     1       1.035  10.252   0.156  0.00  0.00    +0.077 C 
ATOM      5  C   UNL     1      -0.128   9.559   0.060  0.00  0.00    +0.028 C 
ATOM      6  S   UNL     1       2.720   9.656   0.170  0.00  0.00    -0.061 S 
ATOM      7  C   UNL     1       3.538  11.236   0.321  0.00  0.00    +0.121 C 
ATOM      8  S   UNL     1       5.217  11.561   0.404  0.00  0.00    -0.027 S 
ENDROOT
BRANCH   5   9
ATOM      9  C   UNL     1      -0.113   8.091   0.111  0.00  0.00    -0.024 A 
ATOM     10  C   UNL     1       1.068   7.412   0.437  0.00  0.00    +0.008 A 
ATOM     11  C   UNL     1       1.079   6.047   0.484  0.00  0.00    +0.009 A 
ATOM     12  C   UNL     1      -0.086   5.329   0.206  0.00  0.00    -0.018 A 
ATOM     13  C   UNL     1      -1.262   6.003  -0.124  0.00  0.00    +0.009 A 
ATOM     14  C   UNL     1      -1.280   7.368  -0.166  0.00  0.00    +0.008 A 
BRANCH  12  15
ATOM     15  C   UNL     1      -0.071   3.847   0.257  0.00  0.00    -0.018 A 
ATOM     16  C   UNL     1      -1.232   3.126  -0.019  0.00  0.00    +0.008 A 
ATOM     17  C   UNL     1      -1.212   1.747   0.029  0.00  0.00    +0.001 A 
ATOM     18  C   UNL     1      -0.043   1.080   0.350  0.00  0.00    +0.000 A 
ATOM     19  C   UNL     1       1.110   1.791   0.631  0.00  0.00    +0.001 A 
ATOM     20  C   UNL     1       1.104   3.170   0.581  0.00  0.00    +0.008 A 
ENDBRANCH  12  15
ENDBRANCH   5   9
BRANCH   1  21
ATOM     21  C   UNL     1       2.798  13.543   0.488  0.00  0.00    +0.210 C 
BRANCH  21  23
ATOM     22  N   UNL     1       3.099  15.190   2.309  0.00  0.00    -0.310 N 
ATOM     23  C   UNL     1       2.849  13.916   1.947  0.00  0.00    +0.231 C 
ATOM     24  O   UNL     1       2.665  13.070   2.796  0.00  0.00    -0.274 OA
ATOM     25  H   UNL     1       3.247  15.867   1.630  0.00  0.00    +0.149 HD
BRANCH  22  26
ATOM     26  C   UNL     1       3.149  15.553   3.727  0.00  0.00    +0.139 C 
BRANCH  26  30
ATOM     27  C   UNL     1       3.982  19.726   4.102  0.00  0.00    +0.000 A 
ATOM     28  C   UNL     1       2.673  19.287   4.021  0.00  0.00    +0.000 A 
ATOM     29  C   UNL     1       2.404  17.936   3.900  0.00  0.00    +0.005 A 
ATOM     30  C   UNL     1       3.443  17.025   3.859  0.00  0.00    -0.030 A 
ATOM     31  C   UNL     1       4.751  17.464   3.945  0.00  0.00    +0.005 A 
ATOM     32  C   UNL     1       5.020  18.815   4.062  0.00  0.00    +0.000 A 
ENDBRANCH  26  30
ENDBRANCH  22  26
ENDBRANCH  21  23
ENDBRANCH   1  21
TORSDOF 6
