REMARK  Name = ZINC59932491
REMARK  9 active torsions:
REMARK  status: ('A' for Active; 'I' for Inactive)
REMARK    1  A    between atoms: C_1  and  C_2
REMARK    2  A    between atoms: C_7  and  S_15
REMARK    3  A    between atoms: C_12  and  C_14
REMARK    4  A    between atoms: S_15  and  N_18
REMARK    5  A    between atoms: N_18  and  C_19
REMARK    6  A    between atoms: C_19  and  C_20
REMARK    7  A    between atoms: C_20  and  C_22
REMARK    8  A    between atoms: C_20  and  N_28
REMARK    9  A    between atoms: C_31  and  C_34
REMARK                            x       y       z     vdW  Elec       q    Type
REMARK                         _______ _______ _______ _____ _____    ______ ____
ROOT
ATOM      1  N   UNL     1      -1.158  -5.636   2.833  0.00  0.00    -0.191 NA
ATOM      2  H   UNL     1      -0.591  -6.314   2.433  0.00  0.00    +0.148 HD
ENDROOT
BRANCH   1   3
ATOM      3  S   UNL     1      -0.722  -4.040   2.755  0.00  0.00    +0.058 S 
ATOM      4  O   UNL     1      -1.866  -3.329   2.303  0.00  0.00    -0.153 OA
ATOM      5  O   UNL     1       0.524  -3.993   2.073  0.00  0.00    -0.153 OA
BRANCH   3  11
ATOM      6  C   UNL     1       2.739  -1.307   8.684  0.00  0.00    +0.029 C 
ATOM      7  C   UNL     1       1.953  -2.591   8.412  0.00  0.00    +0.083 C 
ATOM      8  C   UNL     1       2.366  -3.193   7.059  0.00  0.00    +0.059 C 
ATOM      9  C   UNL     1       1.097  -3.190   6.237  0.00  0.00    -0.022 A 
ATOM     10  C   UNL     1       0.854  -3.611   4.943  0.00  0.00    +0.034 A 
ATOM     11  C   UNL     1      -0.414  -3.503   4.404  0.00  0.00    +0.106 A 
ATOM     12  C   UNL     1      -1.441  -2.973   5.164  0.00  0.00    +0.030 A 
ATOM     13  C   UNL     1      -1.204  -2.553   6.455  0.00  0.00    +0.026 A 
ATOM     14  C   UNL     1       0.075  -2.658   7.006  0.00  0.00    +0.040 A 
ATOM     15  N   UNL     1       0.524  -2.295   8.282  0.00  0.00    -0.268 N 
ATOM     16  C   UNL     1      -0.244  -1.754   9.248  0.00  0.00    +0.217 C 
ATOM     17  O   UNL     1       0.242  -1.474  10.324  0.00  0.00    -0.276 OA
ATOM     18  C   UNL     1      -1.707  -1.496   8.993  0.00  0.00    +0.109 C 
ENDBRANCH   3  11
ENDBRANCH   1   3
BRANCH   1  19
ATOM     19  C   UNL     1      -2.399  -6.024   3.507  0.00  0.00    +0.095 C 
BRANCH  19  20
ATOM     20  C   UNL     1      -2.752  -7.466   3.135  0.00  0.00    -0.022 C 
BRANCH  20  21
ATOM     21  N   UNL     1      -4.043  -7.825   3.736  0.00  0.00    +0.385 N 
ATOM     22  C   UNL     1      -5.093  -6.952   3.194  0.00  0.00    -0.078 C 
ATOM     23  C   UNL     1      -6.426  -7.268   3.877  0.00  0.00    -0.015 C 
ATOM     24  C   UNL     1      -6.792  -8.731   3.617  0.00  0.00    -0.018 C 
ATOM     25  C   UNL     1      -5.657  -9.629   4.119  0.00  0.00    -0.015 C 
ATOM     26  C   UNL     1      -4.353  -9.226   3.428  0.00  0.00    -0.078 C 
ATOM     27  C   UNL     1      -8.084  -9.075   4.362  0.00  0.00    +0.007 C 
ATOM     28  H   UNL     1      -3.993  -7.705   4.736  0.00  0.00    -0.081 HD
ENDBRANCH  20  21
BRANCH  20  29
ATOM     29  C   UNL     1      -1.683  -8.394   3.651  0.00  0.00    -0.060 A 
ATOM     30  C   UNL     1      -1.683  -8.779   4.979  0.00  0.00    +0.002 A 
ATOM     31  C   UNL     1      -0.702  -9.630   5.452  0.00  0.00    +0.000 A 
ATOM     32  C   UNL     1       0.279 -10.097   4.598  0.00  0.00    +0.000 A 
ATOM     33  C   UNL     1       0.279  -9.713   3.270  0.00  0.00    +0.000 A 
ATOM     34  C   UNL     1      -0.704  -8.865   2.796  0.00  0.00    +0.002 A 
ENDBRANCH  20  29
ENDBRANCH  19  20
ENDBRANCH   1  19
TORSDOF 6
