REMARK  Name = ZINC00718144
REMARK  12 active torsions:
REMARK  status: ('A' for Active; 'I' for Inactive)
REMARK    1  A    between atoms: C_1  and  C_2
REMARK    2  A    between atoms: C_2  and  C_3
REMARK    3  A    between atoms: C_15  and  C_17
REMARK    4  A    between atoms: C_19  and  O_27
REMARK    5  A    between atoms: C_20  and  O_25
REMARK    6  A    between atoms: C_21  and  O_23
REMARK    7  A    between atoms: O_23  and  C_24
REMARK    8  A    between atoms: O_25  and  C_26
REMARK    9  A    between atoms: O_27  and  C_28
REMARK   10  A    between atoms: C_32  and  C_35
REMARK   11  A    between atoms: C_38  and  O_41
REMARK   12  A    between atoms: O_41  and  C_42
REMARK                            x       y       z     vdW  Elec       q    Type
REMARK                         _______ _______ _______ _____ _____    ______ ____
ROOT
ATOM      1  C   UNL     1      -1.394  -0.634  -0.097  0.00  0.00    +0.220 C 
ATOM      2  O   UNL     1      -2.292   0.179  -0.048  0.00  0.00    -0.275 OA
ATOM      3  N   UNL     1      -1.677  -1.952  -0.087  0.00  0.00    -0.258 N 
ATOM      4  C   UNL     1      -0.635  -2.879  -0.139  0.00  0.00    +0.058 A 
ATOM      5  C   UNL     1       0.289  -2.990   0.888  0.00  0.00    +0.025 A 
ATOM      6  C   UNL     1       1.276  -3.957   0.814  0.00  0.00    +0.002 A 
ATOM      7  C   UNL     1       1.340  -4.810  -0.273  0.00  0.00    +0.002 A 
ATOM      8  C   UNL     1       0.429  -4.691  -1.309  0.00  0.00    +0.025 A 
ATOM      9  C   UNL     1      -0.544  -3.708  -1.246  0.00  0.00    +0.053 A 
ATOM     10  N   UNL     1      -1.415  -3.459  -2.299  0.00  0.00    -0.316 N 
ATOM     11  C   UNL     1      -2.765  -3.595  -2.240  0.00  0.00    +0.017 C 
ATOM     12  C   UNL     1      -3.538  -3.129  -1.244  0.00  0.00    +0.037 C 
ATOM     13  C   UNL     1      -3.056  -2.385  -0.017  0.00  0.00    +0.147 C 
ATOM     14  C   UNL     1      -4.938  -3.333  -1.276  0.00  0.00    +0.163 C 
ATOM     15  O   UNL     1      -5.617  -2.879  -0.375  0.00  0.00    -0.292 OA
ATOM     16  C   UNL     1      -5.614  -4.090  -2.380  0.00  0.00    +0.088 C 
ATOM     17  C   UNL     1      -4.619  -5.100  -2.962  0.00  0.00    +0.032 C 
ATOM     18  C   UNL     1      -3.385  -4.324  -3.420  0.00  0.00    +0.059 C 
ATOM     19  H   UNL     1      -1.031  -3.166  -3.139  0.00  0.00    +0.152 HD
ENDROOT
BRANCH  13  20
ATOM     20  C   UNL     1      -3.214  -3.283   1.183  0.00  0.00    -0.015 A 
ATOM     21  C   UNL     1      -4.067  -2.920   2.208  0.00  0.00    +0.055 A 
ATOM     22  C   UNL     1      -4.214  -3.743   3.315  0.00  0.00    +0.165 A 
ATOM     23  C   UNL     1      -3.504  -4.935   3.391  0.00  0.00    +0.204 A 
ATOM     24  C   UNL     1      -2.648  -5.297   2.358  0.00  0.00    +0.165 A 
ATOM     25  C   UNL     1      -2.510  -4.470   1.253  0.00  0.00    +0.055 A 
BRANCH  24  26
ATOM     26  O   UNL     1      -1.950  -6.462   2.428  0.00  0.00    -0.491 OA
ATOM     27  C   UNL     1      -1.089  -6.770   1.330  0.00  0.00    +0.277 C 
ENDBRANCH  24  26
BRANCH  23  28
ATOM     28  O   UNL     1      -3.646  -5.745   4.475  0.00  0.00    -0.488 OA
ATOM     29  C   UNL     1      -4.670  -6.739   4.412  0.00  0.00    +0.277 C 
ENDBRANCH  23  28
BRANCH  22  30
ATOM     30  O   UNL     1      -5.053  -3.384   4.323  0.00  0.00    -0.491 OA
ATOM     31  C   UNL     1      -5.833  -2.202   4.129  0.00  0.00    +0.277 C 
ENDBRANCH  22  30
ENDBRANCH  13  20
BRANCH  17  32
ATOM     32  C   UNL     1      -5.241  -5.811  -4.136  0.00  0.00    -0.043 A 
ATOM     33  C   UNL     1      -5.655  -5.090  -5.240  0.00  0.00    +0.007 A 
ATOM     34  C   UNL     1      -6.226  -5.740  -6.317  0.00  0.00    +0.046 A 
ATOM     35  C   UNL     1      -6.383  -7.118  -6.290  0.00  0.00    +0.120 A 
ATOM     36  C   UNL     1      -5.966  -7.840  -5.181  0.00  0.00    +0.046 A 
ATOM     37  C   UNL     1      -5.391  -7.186  -4.109  0.00  0.00    +0.007 A 
BRANCH  35  38
ATOM     38  O   UNL     1      -6.945  -7.759  -7.348  0.00  0.00    -0.495 OA
ATOM     39  C   UNL     1      -7.075  -9.179  -7.251  0.00  0.00    +0.277 C 
ENDBRANCH  35  38
ENDBRANCH  17  32
BRANCH   1  41
ATOM     40  C   UNL     1       0.081   1.358  -0.167  0.00  0.00    +0.013 C 
ATOM     41  C   UNL     1       0.039  -0.172  -0.170  0.00  0.00    +0.093 C 
ENDBRANCH   1  41
TORSDOF 7
