REMARK  Name = ZINC35842609
REMARK  21 active torsions:
REMARK  status: ('A' for Active; 'I' for Inactive)
REMARK    1  A    between atoms: C_1  and  C_2
REMARK    2  A    between atoms: C_2  and  C_3
REMARK    3  A    between atoms: C_3  and  C_5
REMARK    4  A    between atoms: C_3  and  O_39
REMARK    5  A    between atoms: C_5  and  N_6
REMARK    6  A    between atoms: N_6  and  C_7
REMARK    7  A    between atoms: N_6  and  C_12
REMARK    8  A    between atoms: C_7  and  C_8
REMARK    9  A    between atoms: C_8  and  C_9
REMARK   10  A    between atoms: C_9  and  O_10
REMARK   11  A    between atoms: O_10  and  C_11
REMARK   12  A    between atoms: C_12  and  C_13
REMARK   13  A    between atoms: N_15  and  C_16
REMARK   14  A    between atoms: N_15  and  C_28
REMARK   15  A    between atoms: C_16  and  C_17
REMARK   16  A    between atoms: C_17  and  C_18
REMARK   17  A    between atoms: C_28  and  C_29
REMARK   18  A    between atoms: C_32  and  C_35
REMARK   19  A    between atoms: C_35  and  C_36
REMARK   20  A    between atoms: C_35  and  C_37
REMARK   21  A    between atoms: C_35  and  C_38
REMARK                            x       y       z     vdW  Elec       q    Type
REMARK                         _______ _______ _______ _____ _____    ______ ____
ROOT
ATOM      1  C   UNL     1      -0.006  -1.090   3.937  0.00  0.00    +0.199 C 
ATOM      2  O   UNL     1       0.248  -0.123   3.251  0.00  0.00    -0.278 OA
ATOM      3  N   UNL     1      -0.633  -0.931   5.120  0.00  0.00    -0.298 N 
ENDROOT
BRANCH   1   4
ATOM      4  C   UNL     1       0.379  -2.469   3.469  0.00  0.00    +0.019 C 
BRANCH   4   5
ATOM      5  N   UNL     1       1.086  -2.371   2.185  0.00  0.00    +0.387 N 
ATOM      6  H   UNL     1       1.856  -1.725   2.274  0.00  0.00    -0.081 HD
BRANCH   5   7
ATOM      7  C   UNL     1       1.598  -3.694   1.804  0.00  0.00    -0.076 C 
BRANCH   7   8
ATOM      8  C   UNL     1       2.385  -3.580   0.497  0.00  0.00    +0.009 C 
BRANCH   8   9
ATOM      9  C   UNL     1       2.918  -4.959   0.101  0.00  0.00    +0.157 C 
BRANCH   9  10
ATOM     10  O   UNL     1       3.653  -4.852  -1.119  0.00  0.00    -0.383 OA
ATOM     11  C   UNL     1       4.197  -6.091  -1.580  0.00  0.00    +0.193 C 
ENDBRANCH   9  10
ENDBRANCH   8   9
ENDBRANCH   7   8
ENDBRANCH   5   7
BRANCH   5  12
ATOM     12  C   UNL     1       0.160  -1.888   1.151  0.00  0.00    -0.047 C 
BRANCH  12  13
ATOM     13  C   UNL     1      -1.076  -2.790   1.113  0.00  0.00    +0.098 C 
BRANCH  13  14
ATOM     14  O   UNL     1      -0.705  -4.086   0.640  0.00  0.00    -0.394 OA
ATOM     15  H   UNL     1      -0.259  -4.079  -0.218  0.00  0.00    +0.210 HD
ENDBRANCH  13  14
BRANCH  13  17
ATOM     16  C   UNL     1      -3.402  -3.016   0.231  0.00  0.00    +0.006 C 
ATOM     17  C   UNL     1      -2.120  -2.183   0.174  0.00  0.00    +0.026 C 
ENDBRANCH  13  17
ENDBRANCH  12  13
ENDBRANCH   5  12
ENDBRANCH   4   5
ENDBRANCH   1   4
BRANCH   3  18
ATOM     18  C   UNL     1      -0.837  -2.082   6.002  0.00  0.00    +0.142 C 
BRANCH  18  19
ATOM     19  C   UNL     1       0.262  -2.127   7.032  0.00  0.00    -0.030 A 
ATOM     20  C   UNL     1       1.457  -2.757   6.741  0.00  0.00    +0.005 A 
ATOM     21  C   UNL     1       2.466  -2.798   7.686  0.00  0.00    +0.004 A 
ATOM     22  C   UNL     1       2.279  -2.207   8.921  0.00  0.00    -0.042 A 
ATOM     23  C   UNL     1       1.084  -1.576   9.212  0.00  0.00    +0.004 A 
ATOM     24  C   UNL     1       0.077  -1.532   8.266  0.00  0.00    +0.005 A 
BRANCH  22  25
ATOM     25  C   UNL     1       3.377  -2.252   9.952  0.00  0.00    -0.013 C 
ATOM     26  C   UNL     1       4.625  -1.562   9.397  0.00  0.00    +0.015 C 
ATOM     27  C   UNL     1       2.917  -1.531  11.220  0.00  0.00    +0.015 C 
ATOM     28  C   UNL     1       3.706  -3.709  10.284  0.00  0.00    +0.015 C 
ENDBRANCH  22  25
ENDBRANCH  18  19
ENDBRANCH   3  18
BRANCH   3  29
ATOM     29  C   UNL     1      -1.111   0.394   5.522  0.00  0.00    +0.113 C 
BRANCH  29  30
ATOM     30  C   UNL     1      -2.545   0.592   5.026  0.00  0.00    +0.056 C 
BRANCH  30  31
ATOM     31  C   UNL     1      -3.037   1.955   5.440  0.00  0.00    -0.021 A 
ATOM     32  C   UNL     1      -3.750   2.246   6.540  0.00  0.00    +0.087 A 
ATOM     33  N   UNL     1      -4.015   3.588   6.582  0.00  0.00    -0.360 N 
ATOM     34  H   UNL     1      -4.516   4.035   7.282  0.00  0.00    +0.165 HD
ATOM     35  C   UNL     1      -3.464   4.208   5.484  0.00  0.00    +0.047 A 
ATOM     36  C   UNL     1      -2.822   3.214   4.723  0.00  0.00    +0.003 A 
ATOM     37  C   UNL     1      -2.163   3.557   3.541  0.00  0.00    +0.010 A 
ATOM     38  C   UNL     1      -2.143   4.860   3.130  0.00  0.00    +0.001 A 
ATOM     39  C   UNL     1      -2.771   5.846   3.878  0.00  0.00    +0.002 A 
ATOM     40  C   UNL     1      -3.435   5.528   5.043  0.00  0.00    +0.026 A 
ENDBRANCH  30  31
ENDBRANCH  29  30
ENDBRANCH   3  29
TORSDOF 16
