REMARK  Name = ZINC31046439
REMARK  7 active torsions:
REMARK  status: ('A' for Active; 'I' for Inactive)
REMARK    1  A    between atoms: C_1  and  C_2
REMARK    2  A    between atoms: C_2  and  C_36
REMARK    3  A    between atoms: C_4  and  N_13
REMARK    4  A    between atoms: C_14  and  C_16
REMARK    5  A    between atoms: N_21  and  C_23
REMARK    6  A    between atoms: C_23  and  C_24
REMARK    7  A    between atoms: C_26  and  C_29
REMARK                            x       y       z     vdW  Elec       q    Type
REMARK                         _______ _______ _______ _____ _____    ______ ____
ROOT
ATOM      1  C   UNL     1      -2.360  -5.527  -2.894  0.00  0.00    +0.058 C 
ATOM      2  C   UNL     1      -3.269  -4.547  -3.642  0.00  0.00    +0.009 C 
ATOM      3  C   UNL     1      -2.684  -3.136  -3.535  0.00  0.00    -0.018 C 
ATOM      4  C   UNL     1      -2.541  -2.759  -2.058  0.00  0.00    -0.078 C 
ATOM      5  N   UNL     1      -1.662  -3.726  -1.388  0.00  0.00    +0.386 N 
ATOM      6  C   UNL     1      -2.227  -5.080  -1.437  0.00  0.00    -0.065 C 
ATOM      7  H   UNL     1      -0.705  -3.741  -1.931  0.00  0.00    -0.081 HD
ENDROOT
BRANCH   1   9
ATOM      8  N   UNL     1      -3.171  -7.509  -4.133  0.00  0.00    -0.308 N 
ATOM      9  C   UNL     1      -2.959  -6.909  -2.945  0.00  0.00    +0.215 C 
ATOM     10  O   UNL     1      -3.250  -7.481  -1.916  0.00  0.00    -0.276 OA
ATOM     11  H   UNL     1      -2.906  -6.989  -5.066  0.00  0.00    +0.149 HD
BRANCH   8  15
ATOM     12  C   UNL     1      -4.044 -11.690  -4.402  0.00  0.00    +0.055 C 
ATOM     13  C   UNL     1      -4.176 -10.812  -5.648  0.00  0.00    +0.107 C 
ATOM     14  C   UNL     1      -3.329  -9.544  -5.479  0.00  0.00    +0.074 C 
ATOM     15  C   UNL     1      -3.753  -8.852  -4.181  0.00  0.00    +0.110 C 
ATOM     16  C   UNL     1      -5.256  -8.750  -4.128  0.00  0.00    +0.015 A 
ATOM     17  C   UNL     1      -5.832  -7.851  -3.246  0.00  0.00    +0.009 A 
ATOM     18  C   UNL     1      -7.206  -7.733  -3.168  0.00  0.00    +0.001 A 
ATOM     19  C   UNL     1      -8.013  -8.516  -3.973  0.00  0.00    +0.004 A 
ATOM     20  C   UNL     1      -7.445  -9.412  -4.855  0.00  0.00    +0.046 A 
ATOM     21  C   UNL     1      -6.061  -9.532  -4.937  0.00  0.00    +0.126 A 
ATOM     22  O   UNL     1      -5.539 -10.422  -5.820  0.00  0.00    -0.486 OA
ATOM     23  C   UNL     1      -3.703 -11.589  -6.878  0.00  0.00    +0.055 C 
ENDBRANCH   8  15
ENDBRANCH   1   9
BRANCH   5  24
ATOM     24  C   UNL     1      -1.390  -3.318  -0.003  0.00  0.00    +0.022 C 
BRANCH  24  25
ATOM     25  C   UNL     1      -0.593  -2.039  -0.003  0.00  0.00    +0.211 A 
ATOM     26  N   UNL     1      -1.075  -0.822   0.008  0.00  0.00    -0.193 NA
ATOM     27  C   UNL     1       0.002  -0.004   0.002  0.00  0.00    +0.202 A 
ATOM     28  N   UNL     1       1.065  -0.766  -0.018  0.00  0.00    -0.056 NA
ATOM     29  O   UNL     1       0.740  -1.935  -0.015  0.00  0.00    -0.340 OA
BRANCH  27  30
ATOM     30  C   UNL     1      -0.018   1.480   0.010  0.00  0.00    +0.023 A 
ATOM     31  C   UNL     1      -1.233   2.162   0.020  0.00  0.00    +0.013 A 
ATOM     32  C   UNL     1      -1.246   3.542   0.032  0.00  0.00    +0.021 A 
ATOM     33  C   UNL     1      -0.056   4.248   0.024  0.00  0.00    +0.041 A 
ATOM     34  C   UNL     1       1.154   3.575   0.010  0.00  0.00    +0.021 A 
ATOM     35  C   UNL     1       1.178   2.195   0.003  0.00  0.00    +0.013 A 
ATOM     36 CL   UNL     1      -0.079   5.984   0.034  0.00  0.00    -0.084 Cl
ENDBRANCH  27  30
ENDBRANCH  24  25
ENDBRANCH   5  24
TORSDOF 5
