REMARK  Name = ZINC43384516
REMARK  4 active torsions:
REMARK  status: ('A' for Active; 'I' for Inactive)
REMARK    1  A    between atoms: C_1  and  C_2
REMARK    2  A    between atoms: N_7  and  C_8
REMARK    3  A    between atoms: N_10  and  C_11
REMARK    4  A    between atoms: C_11  and  C_12
REMARK                            x       y       z     vdW  Elec       q    Type
REMARK                         _______ _______ _______ _____ _____    ______ ____
ROOT
ATOM      1  C   UNL     1       0.256  -4.858  -0.027  0.00  0.00    +0.325 C 
ATOM      2  O   UNL     1      -0.952  -4.691  -0.021  0.00  0.00    -0.251 OA
ATOM      3  N   UNL     1       0.763  -6.107  -0.036  0.00  0.00    -0.294 N 
ATOM      4  H   UNL     1       1.724  -6.240  -0.041  0.00  0.00    +0.150 HD
ENDROOT
BRANCH   1  11
ATOM      5  C   UNL     1      -0.018   1.503   0.010  0.00  0.00    +0.053 C 
ATOM      6  C   UNL     1       0.002  -0.004   0.002  0.00  0.00    +0.006 A 
ATOM      7  C   UNL     1      -1.025  -0.859   0.002  0.00  0.00    +0.095 A 
ATOM      8  N   UNL     1      -0.732  -2.188  -0.007  0.00  0.00    -0.342 N 
ATOM      9  H   UNL     1      -1.440  -2.851  -0.008  0.00  0.00    +0.167 HD
ATOM     10  C   UNL     1       0.575  -2.571  -0.014  0.00  0.00    +0.165 A 
ATOM     11  N   UNL     1       1.076  -3.804  -0.024  0.00  0.00    -0.139 NA
ATOM     12  S   UNL     1       1.403  -1.107  -0.018  0.00  0.00    -0.058 S 
ENDBRANCH   1  11
BRANCH   3  13
ATOM     13  C   UNL     1      -0.137  -7.263  -0.040  0.00  0.00    +0.150 C 
BRANCH  13  14
ATOM     14  C   UNL     1       0.688  -8.552  -0.051  0.00  0.00    +0.195 C 
ATOM     15  C   UNL     1      -0.234  -9.792  -0.118  0.00  0.00    +0.085 C 
ATOM     16  C   UNL     1       0.567 -10.730  -1.001  0.00  0.00    -0.002 A 
ATOM     17  C   UNL     1       0.468 -12.082  -1.242  0.00  0.00    +0.007 A 
ATOM     18  C   UNL     1       1.354 -12.697  -2.108  0.00  0.00    +0.000 A 
ATOM     19  C   UNL     1       2.338 -11.948  -2.728  0.00  0.00    +0.004 A 
ATOM     20  C   UNL     1       2.437 -10.593  -2.491  0.00  0.00    +0.046 A 
ATOM     21  C   UNL     1       1.546  -9.966  -1.623  0.00  0.00    +0.124 A 
ATOM     22  O   UNL     1       1.455  -8.654  -1.262  0.00  0.00    -0.487 OA
ENDBRANCH  13  14
ENDBRANCH   3  13
TORSDOF 3
