REMARK  Name = ZINC20717459
REMARK  7 active torsions:
REMARK  status: ('A' for Active; 'I' for Inactive)
REMARK    1  A    between atoms: C_1  and  C_2
REMARK    2  A    between atoms: C_2  and  O_3
REMARK    3  A    between atoms: O_3  and  C_4
REMARK    4  A    between atoms: C_7  and  C_10
REMARK    5  A    between atoms: C_21  and  S_26
REMARK    6  A    between atoms: S_26  and  N_29
REMARK    7  A    between atoms: N_32  and  C_35
REMARK                            x       y       z     vdW  Elec       q    Type
REMARK                         _______ _______ _______ _____ _____    ______ ____
ROOT
ATOM      1  C   UNL     1       2.032   1.570   1.345  0.00  0.00    +0.105 C 
ATOM      2  C   UNL     1       1.457   1.975  -0.001  0.00  0.00    +0.029 C 
ATOM      3  C   UNL     1       1.161   3.466  -0.214  0.00  0.00    +0.033 C 
ATOM      4  C   UNL     1      -0.002   3.410  -1.206  0.00  0.00    -0.030 C 
ATOM      5  C   UNL     1      -0.653   2.260  -1.078  0.00  0.00    -0.023 C 
ATOM      6  C   UNL     1      -0.018   1.474   0.010  0.00  0.00    +0.049 C 
ATOM      7  C   UNL     1       0.002  -0.004   0.002  0.00  0.00    -0.018 A 
ATOM      8  C   UNL     1      -0.948  -0.754  -0.656  0.00  0.00    +0.034 A 
ATOM      9  C   UNL     1      -0.894  -2.135  -0.622  0.00  0.00    +0.106 A 
ATOM     10  C   UNL     1       0.117  -2.770   0.076  0.00  0.00    +0.030 A 
ATOM     11  C   UNL     1       1.076  -2.029   0.734  0.00  0.00    +0.025 A 
ATOM     12  C   UNL     1       1.035  -0.640   0.700  0.00  0.00    +0.031 A 
ATOM     13  N   UNL     1       2.039   0.091   1.347  0.00  0.00    -0.336 N 
ATOM     14  H   UNL     1       2.843  -0.455   1.863  0.00  0.00    +0.147 HD
ENDROOT
BRANCH   1  18
ATOM     15  C   UNL     1       6.014   3.065   1.758  0.00  0.00    +0.121 A 
ATOM     16  C   UNL     1       4.967   3.685   2.424  0.00  0.00    +0.046 A 
ATOM     17  C   UNL     1       3.681   3.199   2.289  0.00  0.00    +0.009 A 
ATOM     18  C   UNL     1       3.437   2.097   1.491  0.00  0.00    -0.027 A 
ATOM     19  C   UNL     1       4.480   1.475   0.830  0.00  0.00    +0.009 A 
ATOM     20  C   UNL     1       5.767   1.959   0.958  0.00  0.00    +0.046 A 
BRANCH  15  21
ATOM     21  O   UNL     1       7.281   3.541   1.890  0.00  0.00    -0.492 OA
BRANCH  21  23
ATOM     22  C   UNL     1       9.656   3.527   1.444  0.00  0.00    +0.048 C 
ATOM     23  C   UNL     1       8.309   2.853   1.175  0.00  0.00    +0.225 C 
ENDBRANCH  21  23
ENDBRANCH  15  21
ENDBRANCH   1  18
BRANCH   9  24
ATOM     24  S   UNL     1      -2.113  -3.086  -1.467  0.00  0.00    +0.061 S 
ATOM     25  O   UNL     1      -2.154  -4.355  -0.828  0.00  0.00    -0.153 OA
ATOM     26  O   UNL     1      -3.261  -2.258  -1.589  0.00  0.00    -0.153 OA
BRANCH  24  27
ATOM     27  N   UNL     1      -1.552  -3.347  -3.003  0.00  0.00    -0.180 NA
ATOM     28  C   UNL     1      -1.863  -2.407  -4.090  0.00  0.00    +0.091 C 
ATOM     29  C   UNL     1      -0.548  -2.024  -4.787  0.00  0.00    -0.062 C 
ATOM     30  N   UNL     1       0.153  -3.246  -5.205  0.00  0.00    +0.380 N 
ATOM     31  C   UNL     1       0.531  -4.066  -4.046  0.00  0.00    -0.062 C 
ATOM     32  C   UNL     1      -0.735  -4.529  -3.318  0.00  0.00    +0.091 C 
ATOM     33  C   UNL     1       1.326  -2.925  -6.028  0.00  0.00    -0.096 C 
ATOM     34  H   UNL     1      -0.542  -3.836  -5.820  0.00  0.00    -0.082 HD
ENDBRANCH  24  27
ENDBRANCH   9  24
TORSDOF 5
