REMARK  Name = ZINC39465834
REMARK  7 active torsions:
REMARK  status: ('A' for Active; 'I' for Inactive)
REMARK    1  A    between atoms: C_1  and  C_2
REMARK    2  A    between atoms: C_2  and  O_3
REMARK    3  A    between atoms: O_3  and  C_4
REMARK    4  A    between atoms: C_9  and  C_10
REMARK    5  A    between atoms: C_15  and  O_16
REMARK    6  A    between atoms: P_21  and  S_27
REMARK    7  A    between atoms: S_27  and  C_30
REMARK                            x       y       z     vdW  Elec       q    Type
REMARK                         _______ _______ _______ _____ _____    ______ ____
ROOT
ATOM      1  C   UNL     1       0.777  -1.810  -1.336  0.00  0.00    +0.129 A 
ATOM      2  C   UNL     1       0.245  -2.669  -0.391  0.00  0.00    +0.050 A 
ATOM      3  C   UNL     1       0.351  -4.042  -0.552  0.00  0.00    -0.038 A 
ATOM      4  C   UNL     1       0.988  -4.565  -1.659  0.00  0.00    -0.023 A 
ATOM      5  C   UNL     1       1.523  -3.713  -2.612  0.00  0.00    +0.017 A 
ATOM      6  C   UNL     1       1.418  -2.334  -2.462  0.00  0.00    +0.028 A 
ATOM      7  C   UNL     1       1.128  -6.049  -1.875  0.00  0.00    +0.129 C 
ATOM      8  C   UNL     1       0.847  -6.368  -3.346  0.00  0.00    +0.195 C 
ATOM      9  O   UNL     1       1.097  -7.770  -3.571  0.00  0.00    -0.298 OA
ATOM     10  P   UNL     1       0.419  -8.846  -2.558  0.00  0.00    +0.424 P 
ATOM     11  O   UNL     1      -0.989  -9.093  -2.942  0.00  0.00    -0.246 OA
ATOM     12  N   UNL     1       0.488  -8.151  -1.059  0.00  0.00    -0.161 NA
ATOM     13  N   UNL     1       0.218  -6.798  -1.009  0.00  0.00    -0.224 NA
ATOM     14  C   UNL     1       0.322  -6.338   0.384  0.00  0.00    +0.108 C 
ATOM     15  C   UNL     1      -0.247  -4.936   0.505  0.00  0.00    +0.052 C 
ATOM     16  H   UNL     1       0.697  -8.669  -0.266  0.00  0.00    +0.152 HD
ENDROOT
BRANCH   6  17
ATOM     17  C   UNL     1       1.988  -1.427  -3.487  0.00  0.00    +0.027 A 
ATOM     18  C   UNL     1       1.459  -1.407  -4.776  0.00  0.00    +0.012 A 
ATOM     19  C   UNL     1       1.992  -0.560  -5.726  0.00  0.00    +0.001 A 
ATOM     20  C   UNL     1       3.052   0.270  -5.404  0.00  0.00    +0.004 A 
ATOM     21  C   UNL     1       3.584   0.258  -4.128  0.00  0.00    +0.046 A 
ATOM     22  C   UNL     1       3.055  -0.583  -3.163  0.00  0.00    +0.125 A 
BRANCH  22  23
ATOM     23  O   UNL     1       3.574  -0.592  -1.907  0.00  0.00    -0.506 OA
ATOM     24  H   UNL     1       4.295  -1.224  -1.785  0.00  0.00    +0.292 HD
ENDBRANCH  22  23
ENDBRANCH   6  17
BRANCH  10  25
ATOM     25  S   UNL     1       1.512 -10.662  -2.578  0.00  0.00    +0.085 S 
ATOM     26  O   UNL     1       2.864 -10.325  -2.300  0.00  0.00    -0.159 OA
ATOM     27  O   UNL     1       0.779 -11.587  -1.787  0.00  0.00    -0.159 OA
BRANCH  25  28
ATOM     28  C   UNL     1       1.476 -11.273  -4.231  0.00  0.00    +0.099 A 
ATOM     29  C   UNL     1       0.456 -12.115  -4.634  0.00  0.00    +0.027 A 
ATOM     30  C   UNL     1       0.427 -12.594  -5.930  0.00  0.00    +0.002 A 
ATOM     31  C   UNL     1       1.418 -12.232  -6.823  0.00  0.00    +0.000 A 
ATOM     32  C   UNL     1       2.437 -11.390  -6.420  0.00  0.00    +0.002 A 
ATOM     33  C   UNL     1       2.463 -10.907  -5.125  0.00  0.00    +0.027 A 
ENDBRANCH  25  28
ENDBRANCH  10  25
BRANCH   1  34
ATOM     34  O   UNL     1       0.671  -0.465  -1.174  0.00  0.00    -0.492 OA
BRANCH  34  36
ATOM     35  C   UNL     1      -0.019   1.526   0.010  0.00  0.00    +0.048 C 
ATOM     36  C   UNL     1       0.002  -0.004   0.002  0.00  0.00    +0.226 C 
ENDBRANCH  34  36
ENDBRANCH   1  34
TORSDOF 6
