REMARK  Name = ZINC04777164
REMARK  10 active torsions:
REMARK  status: ('A' for Active; 'I' for Inactive)
REMARK    1  A    between atoms: C_1  and  C_2
REMARK    2  A    between atoms: C_2  and  N_3
REMARK    3  A    between atoms: N_3  and  C_4
REMARK    4  A    between atoms: N_3  and  C_6
REMARK    5  A    between atoms: C_4  and  C_5
REMARK    6  A    between atoms: C_6  and  S_8
REMARK    7  A    between atoms: S_8  and  C_9
REMARK    8  A    between atoms: C_9  and  C_10
REMARK    9  A    between atoms: C_20  and  C_24
REMARK   10  A    between atoms: C_20  and  C_25
REMARK                            x       y       z     vdW  Elec       q    Type
REMARK                         _______ _______ _______ _____ _____    ______ ____
ROOT
ATOM      1  C   UNL     1      -5.447  -2.042   3.114  0.00  0.00    +0.230 C 
ATOM      2  O   UNL     1      -6.117  -2.280   2.132  0.00  0.00    -0.274 OA
ATOM      3  N   UNL     1      -5.960  -2.242   4.344  0.00  0.00    -0.254 N 
ATOM      4  C   UNL     1      -7.252  -2.720   4.486  0.00  0.00    +0.222 A 
ATOM      5  N   UNL     1      -7.962  -2.978   3.396  0.00  0.00    -0.222 NA
ATOM      6  C   UNL     1      -9.199  -3.433   3.488  0.00  0.00    +0.127 A 
ATOM      7  C   UNL     1      -9.745  -3.639   4.761  0.00  0.00    +0.057 A 
ATOM      8  C   UNL     1      -8.964  -3.359   5.888  0.00  0.00    +0.057 A 
ATOM      9  N   UNL     1      -7.734  -2.909   5.707  0.00  0.00    -0.218 NA
ATOM     10  C   UNL     1      -9.487  -3.571   7.280  0.00  0.00    +0.063 C 
ATOM     11  C   UNL     1     -11.013  -3.560   7.303  0.00  0.00    -0.022 C 
ATOM     12  C   UNL     1     -11.548  -4.589   6.298  0.00  0.00    +0.086 C 
ATOM     13  C   UNL     1     -11.118  -4.140   4.916  0.00  0.00    +0.167 C 
ATOM     14  O   UNL     1     -11.879  -4.192   3.973  0.00  0.00    -0.292 OA
ATOM     15  C   UNL     1     -11.504  -3.916   8.708  0.00  0.00    +0.011 C 
ATOM     16  C   UNL     1     -11.519  -2.167   6.925  0.00  0.00    +0.011 C 
ATOM     17  H   UNL     1      -5.425  -2.052   5.130  0.00  0.00    +0.158 HD
ENDROOT
BRANCH   1  18
ATOM     18  C   UNL     1      -4.041  -1.522   2.960  0.00  0.00    +0.172 C 
BRANCH  18  19
ATOM     19  S   UNL     1      -3.646  -1.361   1.197  0.00  0.00    -0.093 S 
BRANCH  19  20
ATOM     20  C   UNL     1      -1.993  -0.751   1.184  0.00  0.00    +0.110 C 
ATOM     21  S   UNL     1      -1.176  -0.462   2.661  0.00  0.00    -0.028 S 
BRANCH  20  22
ATOM     22  N   UNL     1      -1.372  -0.511   0.012  0.00  0.00    -0.320 N 
BRANCH  22  24
ATOM     23  C   UNL     1      -0.019   1.526   0.010  0.00  0.00    +0.024 C 
ATOM     24  C   UNL     1       0.002  -0.004   0.002  0.00  0.00    +0.102 C 
ENDBRANCH  22  24
BRANCH  22  25
ATOM     25  C   UNL     1      -2.072  -0.758  -1.251  0.00  0.00    +0.102 C 
ATOM     26  C   UNL     1      -1.816  -2.197  -1.703  0.00  0.00    +0.024 C 
ENDBRANCH  22  25
ENDBRANCH  20  22
ENDBRANCH  19  20
ENDBRANCH  18  19
ENDBRANCH   1  18
TORSDOF 6
