REMARK  Name = ZINC08739737
REMARK  13 active torsions:
REMARK  status: ('A' for Active; 'I' for Inactive)
REMARK    1  A    between atoms: C_1  and  C_2
REMARK    2  A    between atoms: C_2  and  C_4
REMARK    3  A    between atoms: C_4  and  O_40
REMARK    4  A    between atoms: C_9  and  C_39
REMARK    5  A    between atoms: N_21  and  O_22
REMARK    6  A    between atoms: O_22  and  C_23
REMARK    7  A    between atoms: C_23  and  C_24
REMARK    8  A    between atoms: N_26  and  CA_27
REMARK    9  A    between atoms: CA_27  and  CB_29
REMARK   10  A    between atoms: CA_27  and  C_33
REMARK   11  A    between atoms: CB_29  and  CG_30
REMARK   12  A    between atoms: CG_30  and  CD_31
REMARK   13  A    between atoms: C_37  and  C_38
REMARK                            x       y       z     vdW  Elec       q    Type
REMARK                         _______ _______ _______ _____ _____    ______ ____
ROOT
ATOM      1  C   UNK A   0      -5.658  -5.113  -5.051  0.00  0.00    +0.129 C 
ATOM      2  C   UNK A   0      -5.189  -6.483  -4.501  0.00  0.00    +0.043 C 
ATOM      3  C   UNK A   0      -4.562  -6.207  -3.107  0.00  0.00    +0.008 C 
ATOM      4  C   UNK A   0      -5.034  -4.782  -2.783  0.00  0.00    +0.002 C 
ATOM      5  C   UNK A   0      -4.934  -4.089  -4.155  0.00  0.00    +0.007 C 
ATOM      6  C   UNK A   0      -5.550  -2.711  -4.136  0.00  0.00    +0.010 C 
ATOM      7  C   UNK A   0      -5.555  -2.156  -2.697  0.00  0.00    +0.005 C 
ATOM      8  C   UNK A   0      -4.251  -2.559  -2.026  0.00  0.00    +0.002 C 
ATOM      9  C   UNK A   0      -4.302  -4.058  -1.695  0.00  0.00    -0.003 C 
ATOM     10  C   UNK A   0      -2.882  -4.523  -1.402  0.00  0.00    +0.008 C 
ATOM     11  C   UNK A   0      -2.398  -3.797  -0.136  0.00  0.00    +0.031 C 
ATOM     12  C   UNK A   0      -2.590  -2.299  -0.273  0.00  0.00    -0.062 C 
ATOM     13  C   UNK A   0      -1.570  -1.514   0.042  0.00  0.00    +0.026 C 
ATOM     14  C   UNK A   0      -1.688  -0.050  -0.046  0.00  0.00    +0.080 C 
ATOM     15  N   UNK A   0      -0.642   0.716  -0.051  0.00  0.00    -0.089 NA
ATOM     16  C   UNK A   0      -3.088   0.528  -0.098  0.00  0.00    +0.059 C 
ATOM     17  C   UNK A   0      -3.910  -0.286  -1.091  0.00  0.00    +0.017 C 
ATOM     18  C   UNK A   0      -3.913  -1.770  -0.763  0.00  0.00    -0.007 C 
ATOM     19  C   UNK A   0      -4.975  -2.002   0.312  0.00  0.00    +0.016 C 
ATOM     20  C   UNK A   0      -3.486  -4.014  -4.651  0.00  0.00    +0.015 C 
ENDROOT
BRANCH   1  22
ATOM     21  C   UNK A   0      -5.979  -4.011  -7.392  0.00  0.00    +0.089 C 
ATOM     22  C   UNK A   0      -5.224  -4.944  -6.481  0.00  0.00    +0.162 C 
ATOM     23  O   UNK A   0      -4.271  -5.556  -6.899  0.00  0.00    -0.295 OA
ENDBRANCH   1  22
BRANCH   1  24
ATOM     24  O   UNK A   0      -7.069  -4.977  -4.923  0.00  0.00    -0.381 OA
ATOM     25  H   UNK A   0      -7.574  -5.638  -5.416  0.00  0.00    +0.211 HD
ENDBRANCH   1  24
BRANCH  15  26
ATOM     26  O   UNK A   0      -0.795   2.123  -0.106  0.00  0.00    -0.384 OA
BRANCH  26  27
ATOM     27  C   UNK A   0       0.440   2.842  -0.105  0.00  0.00    +0.358 C 
BRANCH  27  28
ATOM     28  C   UNK A   0       0.160   4.322  -0.166  0.00  0.00    +0.254 C 
ATOM     29  O   UNK A   0      -0.985   4.721  -0.206  0.00  0.00    -0.272 OA
ATOM     30  N   GLU A   1       1.181   5.201  -0.176  0.00  0.00    -0.299 N 
ATOM     31  H   GLU A   1       2.096   4.882  -0.144  0.00  0.00    +0.150 HD
BRANCH  30  32
ATOM     32  CA  GLU A   1       0.908   6.639  -0.235  0.00  0.00    +0.187 C 
BRANCH  32  33
ATOM     33  C   GLU A   1       0.724   7.058  -1.671  0.00  0.00    +0.376 C 
ATOM     34  O   GLU A   1       0.812   6.238  -2.554  0.00  0.00    -0.244 OA
ATOM     35  OXT GLU A   1       0.463   8.340  -1.968  0.00  0.00    -0.244 OA
ENDBRANCH  32  33
BRANCH  32  36
ATOM     36  CB  GLU A   1       2.084   7.407   0.373  0.00  0.00    +0.045 C 
BRANCH  36  37
ATOM     37  CG  GLU A   1       2.193   7.076   1.863  0.00  0.00    +0.127 C 
BRANCH  37  38
ATOM     38  CD  GLU A   1       3.351   7.832   2.462  0.00  0.00    +0.356 C 
ATOM     39  OE1 GLU A   1       4.021   8.560   1.768  0.00  0.00    -0.246 OA
ATOM     40  OE2 GLU A   1       3.639   7.696   3.766  0.00  0.00    -0.246 OA
ENDBRANCH  37  38
ENDBRANCH  36  37
ENDBRANCH  32  36
ENDBRANCH  30  32
ENDBRANCH  27  28
ENDBRANCH  26  27
ENDBRANCH  15  26
TORSDOF 10
