REMARK  Name = ZINC39846543
REMARK  6 active torsions:
REMARK  status: ('A' for Active; 'I' for Inactive)
REMARK    1  A    between atoms: C_6  and  C_29
REMARK    2  A    between atoms: C_8  and  C_11
REMARK    3  A    between atoms: C_11  and  C_12
REMARK    4  A    between atoms: C_12  and  C_13
REMARK    5  A    between atoms: C_13  and  C_14
REMARK    6  A    between atoms: N_19  and  C_22
REMARK                            x       y       z     vdW  Elec       q    Type
REMARK                         _______ _______ _______ _____ _____    ______ ____
ROOT
ATOM      1  C   UNL     1      -4.350   3.157   0.063  0.00  0.00    +0.038 C 
ENDROOT
BRANCH   1   9
ATOM      2  C   UNL     1      -0.017   1.384   0.010  0.00  0.00    +0.001 A 
ATOM      3  C   UNL     1       0.002  -0.004   0.002  0.00  0.00    +0.002 A 
ATOM      4  C   UNL     1      -1.173  -0.724   0.010  0.00  0.00    +0.026 A 
ATOM      5  C   UNL     1      -2.393  -0.055   0.025  0.00  0.00    +0.047 A 
ATOM      6  N   UNL     1      -3.702  -0.481   0.036  0.00  0.00    -0.353 N 
ATOM      7  C   UNL     1      -4.546   0.607   0.051  0.00  0.00    +0.069 A 
ATOM      8  H   UNL     1      -3.987  -1.408   0.034  0.00  0.00    +0.166 HD
ATOM      9  C   UNL     1      -3.814   1.749   0.049  0.00  0.00    -0.013 A 
ATOM     10  C   UNL     1      -2.407   1.353   0.033  0.00  0.00    +0.003 A 
ATOM     11  C   UNL     1      -1.203   2.062   0.030  0.00  0.00    +0.010 A 
BRANCH   7  12
ATOM     12  C   UNL     1      -6.022   0.540   0.064  0.00  0.00    +0.087 A 
ATOM     13  C   UNL     1      -6.670  -0.588  -0.442  0.00  0.00    +0.030 A 
ATOM     14  C   UNL     1      -8.052  -0.635  -0.422  0.00  0.00    +0.004 A 
ATOM     15  C   UNL     1      -8.745   0.447   0.105  0.00  0.00    +0.020 A 
ATOM     16  C   UNL     1      -8.040   1.533   0.590  0.00  0.00    +0.111 A 
ATOM     17  N   UNL     1      -6.723   1.552   0.564  0.00  0.00    -0.254 NA
ENDBRANCH   7  12
ENDBRANCH   1   9
BRANCH   1  18
ATOM     18  C   UNL     1      -4.516   3.626   1.510  0.00  0.00    +0.014 C 
BRANCH  18  19
ATOM     19  C   UNL     1      -5.060   5.056   1.523  0.00  0.00    +0.096 C 
BRANCH  19  20
ATOM     20  C   UNL     1      -5.223   5.518   2.948  0.00  0.00    +0.216 C 
ATOM     21  O   UNL     1      -4.933   4.776   3.863  0.00  0.00    -0.276 OA
ATOM     22  N   UNL     1      -5.692   6.755   3.206  0.00  0.00    -0.298 N 
ATOM     23  C   UNL     1      -6.053   7.662   2.108  0.00  0.00    +0.126 C 
ATOM     24  C   UNL     1      -7.503   8.120   2.307  0.00  0.00    +0.124 C 
ATOM     25  N   UNL     1      -7.662   8.586   3.692  0.00  0.00    -0.325 N 
ATOM     26  C   UNL     1      -7.301   7.679   4.790  0.00  0.00    +0.124 C 
ATOM     27  C   UNL     1      -5.856   7.219   4.591  0.00  0.00    +0.126 C 
BRANCH  25  28
ATOM     28  C   UNL     1      -8.148   9.870   3.959  0.00  0.00    +0.065 A 
ATOM     29  C   UNL     1      -9.512  10.079   4.113  0.00  0.00    +0.026 A 
ATOM     30  C   UNL     1      -9.989  11.348   4.378  0.00  0.00    +0.002 A 
ATOM     31  C   UNL     1      -9.111  12.411   4.490  0.00  0.00    +0.003 A 
ATOM     32  C   UNL     1      -7.751  12.207   4.337  0.00  0.00    +0.040 A 
ATOM     33  C   UNL     1      -7.266  10.938   4.078  0.00  0.00    +0.144 A 
ATOM     34  F   UNL     1      -5.938  10.738   3.935  0.00  0.00    -0.204 F 
ENDBRANCH  25  28
ENDBRANCH  19  20
ENDBRANCH  18  19
ENDBRANCH   1  18
TORSDOF 6
