REMARK  Name = ZINC36490497
REMARK  12 active torsions:
REMARK  status: ('A' for Active; 'I' for Inactive)
REMARK    1  A    between atoms: C_1  and  C_2
REMARK    2  A    between atoms: C_2  and  C_3
REMARK    3  A    between atoms: C_3  and  C_4
REMARK    4  A    between atoms: C_4  and  N_5
REMARK    5  A    between atoms: C_6  and  C_8
REMARK    6  A    between atoms: C_8  and  C_10
REMARK    7  A    between atoms: C_8  and  N_20
REMARK    8  A    between atoms: C_12  and  N_17
REMARK    9  A    between atoms: N_20  and  C_21
REMARK   10  A    between atoms: C_27  and  C_29
REMARK   11  A    between atoms: C_29  and  N_30
REMARK   12  A    between atoms: C_31  and  C_33
REMARK                            x       y       z     vdW  Elec       q    Type
REMARK                         _______ _______ _______ _____ _____    ______ ____
ROOT
ATOM      1  N   UNL     1      -4.561  -5.831   0.104  0.00  0.00    -0.282 N 
ATOM      2  C   UNL     1      -5.141  -6.477   1.136  0.00  0.00    +0.234 C 
ATOM      3  O   UNL     1      -5.504  -5.856   2.112  0.00  0.00    -0.274 OA
ENDROOT
BRANCH   1   4
ATOM      4  C   UNL     1      -4.212  -6.564  -1.115  0.00  0.00    +0.077 C 
ATOM      5  C   UNL     1      -3.044  -7.509  -0.826  0.00  0.00    +0.022 C 
ATOM      6  C   UNL     1      -2.680  -8.274  -2.100  0.00  0.00    +0.002 C 
ATOM      7  C   UNL     1      -2.275  -7.283  -3.192  0.00  0.00    +0.000 C 
ATOM      8  C   UNL     1      -3.443  -6.338  -3.482  0.00  0.00    +0.002 C 
ATOM      9  C   UNL     1      -3.807  -5.572  -2.208  0.00  0.00    +0.022 C 
ENDBRANCH   1   4
BRANCH   1  10
ATOM     10  C   UNL     1      -4.279  -4.397   0.203  0.00  0.00    +0.194 C 
BRANCH  10  11
ATOM     11  C   UNL     1      -4.952  -3.674  -0.935  0.00  0.00    +0.002 A 
ATOM     12  C   UNL     1      -4.225  -2.806  -1.729  0.00  0.00    +0.040 A 
ATOM     13  C   UNL     1      -4.842  -2.142  -2.772  0.00  0.00    +0.127 A 
ATOM     14  C   UNL     1      -6.186  -2.345  -3.023  0.00  0.00    +0.034 A 
ATOM     15  C   UNL     1      -6.914  -3.213  -2.231  0.00  0.00    +0.022 A 
ATOM     16  C   UNL     1      -6.295  -3.882  -1.190  0.00  0.00    +0.047 A 
ATOM     17 CL   UNL     1      -7.207  -4.978  -0.199  0.00  0.00    -0.083 Cl
BRANCH  13  18
ATOM     18  N   UNL     1      -4.063  -1.212  -3.621  0.00  0.00    +0.056 N 
ATOM     19  O   UNL     1      -2.888  -1.034  -3.401  0.00  0.00    -0.126 OA
ATOM     20  O   UNL     1      -4.603  -0.631  -4.534  0.00  0.00    -0.126 OA
ENDBRANCH  13  18
ENDBRANCH  10  11
BRANCH  10  22
ATOM     21  N   UNL     1      -2.288  -2.934   0.313  0.00  0.00    -0.313 N 
ATOM     22  C   UNL     1      -2.791  -4.171   0.132  0.00  0.00    +0.238 C 
ATOM     23  O   UNL     1      -2.046  -5.103  -0.088  0.00  0.00    -0.273 OA
ATOM     24  H   UNL     1      -2.886  -2.178   0.418  0.00  0.00    +0.149 HD
BRANCH  21  25
ATOM     25  C   UNL     1      -0.837  -2.732   0.353  0.00  0.00    +0.104 C 
BRANCH  25  26
ATOM     26  C   UNL     1      -0.535  -1.248   0.568  0.00  0.00    +0.018 C 
BRANCH  26  28
ATOM     27  C   UNL     1       1.282   0.448   0.825  0.00  0.00    +0.004 C 
ATOM     28  C   UNL     1       0.980  -1.036   0.609  0.00  0.00    -0.002 C 
ENDBRANCH  26  28
ENDBRANCH  25  26
ENDBRANCH  21  25
ENDBRANCH  10  22
ENDBRANCH   1  10
BRANCH   2  29
ATOM     29  C   UNL     1      -5.337  -7.970   1.075  0.00  0.00    +0.200 C 
BRANCH  29  30
ATOM     30  N   UNL     1      -6.138  -8.403   2.223  0.00  0.00    -0.303 N 
ATOM     31  C   UNL     1      -6.443  -9.707   2.378  0.00  0.00    +0.244 C 
ATOM     32  O   UNL     1      -6.053 -10.523   1.566  0.00  0.00    -0.270 OA
ATOM     33  H   UNL     1      -6.449  -7.752   2.871  0.00  0.00    +0.150 HD
BRANCH  31  34
ATOM     34  C   UNL     1      -7.251 -10.145   3.536  0.00  0.00    +0.037 A 
ATOM     35  C   UNL     1      -7.705  -9.209   4.468  0.00  0.00    +0.013 A 
ATOM     36  C   UNL     1      -8.459  -9.624   5.546  0.00  0.00    +0.001 A 
ATOM     37  C   UNL     1      -8.765 -10.964   5.705  0.00  0.00    +0.000 A 
ATOM     38  C   UNL     1      -8.317 -11.896   4.786  0.00  0.00    +0.001 A 
ATOM     39  C   UNL     1      -7.568 -11.494   3.700  0.00  0.00    +0.013 A 
ENDBRANCH  31  34
ENDBRANCH  29  30
ENDBRANCH   2  29
TORSDOF 11
