REMARK  Name = ZINC66951896
REMARK  6 active torsions:
REMARK  status: ('A' for Active; 'I' for Inactive)
REMARK    1  A    between atoms: C_10  and  C_11
REMARK    2  A    between atoms: C_10  and  O_25
REMARK    3  A    between atoms: C_11  and  N_12
REMARK    4  A    between atoms: N_15  and  C_16
REMARK    5  A    between atoms: C_19  and  C_22
REMARK    6  A    between atoms: C_22  and  C_23
REMARK                            x       y       z     vdW  Elec       q    Type
REMARK                         _______ _______ _______ _____ _____    ______ ____
ROOT
ATOM      1  N   UNL     1       4.733   1.487   0.593  0.00  0.00    -0.296 N 
ATOM      2  C   UNL     1       5.599   2.306   1.220  0.00  0.00    +0.304 C 
ATOM      3  O   UNL     1       6.159   1.938   2.235  0.00  0.00    -0.253 OA
ATOM      4  N   UNL     1       5.846   3.534   0.723  0.00  0.00    -0.269 N 
ATOM      5  H   UNL     1       4.286   1.781  -0.216  0.00  0.00    +0.150 HD
ATOM      6  H   UNL     1       5.345   3.857  -0.042  0.00  0.00    +0.156 HD
ENDROOT
BRANCH   4   7
ATOM      7  C   UNL     1       6.825   4.344   1.310  0.00  0.00    +0.035 A 
ATOM      8  C   UNL     1       6.664   5.723   1.337  0.00  0.00    +0.023 A 
ATOM      9  C   UNL     1       7.632   6.519   1.917  0.00  0.00    +0.006 A 
ATOM     10  C   UNL     1       8.761   5.944   2.472  0.00  0.00    -0.034 A 
ATOM     11  C   UNL     1       8.924   4.571   2.447  0.00  0.00    +0.006 A 
ATOM     12  C   UNL     1       7.957   3.769   1.873  0.00  0.00    +0.023 A 
BRANCH  10  13
ATOM     13  C   UNL     1       9.815   6.815   3.105  0.00  0.00    +0.153 C 
BRANCH  13  14
ATOM     14  C   UNL     1       9.507   6.999   4.533  0.00  0.00    +0.067 C 
ATOM     15  N   UNL     1       9.269   7.141   5.634  0.00  0.00    -0.196 NA
ENDBRANCH  13  14
ENDBRANCH  10  13
ENDBRANCH   4   7
BRANCH   1  16
ATOM     16  C   UNL     1       4.465   0.152   1.134  0.00  0.00    +0.145 C 
BRANCH  16  26
ATOM     17  C   UNL     1       2.882  -4.511   1.802  0.00  0.00    +0.000 A 
ATOM     18  C   UNL     1       2.873  -3.392   2.614  0.00  0.00    +0.000 A 
ATOM     19  C   UNL     1       3.096  -2.146   2.065  0.00  0.00    +0.007 A 
ATOM     20  C   UNL     1       3.332  -2.007   0.703  0.00  0.00    -0.011 A 
ATOM     21  C   UNL     1       3.346  -3.122  -0.104  0.00  0.00    -0.041 A 
ATOM     22  C   UNL     1       3.117  -4.375   0.450  0.00  0.00    +0.004 A 
ATOM     23  C   UNL     1       3.610  -3.048  -1.585  0.00  0.00    +0.035 C 
ATOM     24  C   UNL     1       3.411  -1.622  -2.096  0.00  0.00    +0.008 C 
ATOM     25  C   UNL     1       4.222  -0.672  -1.206  0.00  0.00    +0.041 C 
ATOM     26  C   UNL     1       3.560  -0.617   0.169  0.00  0.00    +0.107 C 
BRANCH  26  27
ATOM     27  O   UNL     1       2.305   0.058   0.061  0.00  0.00    -0.382 OA
ATOM     28  H   UNL     1       1.833   0.147   0.900  0.00  0.00    +0.211 HD
ENDBRANCH  26  27
ENDBRANCH  16  26
ENDBRANCH   1  16
TORSDOF 6
