REMARK  Name = ZINC08873259
REMARK  7 active torsions:
REMARK  status: ('A' for Active; 'I' for Inactive)
REMARK    1  A    between atoms: C_1  and  O_2
REMARK    2  A    between atoms: O_2  and  C_3
REMARK    3  A    between atoms: C_4  and  C_11
REMARK    4  A    between atoms: N_12  and  N_13
REMARK    5  A    between atoms: C_14  and  C_16
REMARK    6  A    between atoms: C_17  and  C_27
REMARK    7  A    between atoms: C_27  and  N_57
REMARK                            x       y       z     vdW  Elec       q    Type
REMARK                         _______ _______ _______ _____ _____    ______ ____
ROOT
ATOM      1  C   UNL     1      -3.620  -4.978   0.023  0.00  0.00    +0.154 A 
ATOM      2  C   UNL     1      -3.666  -6.347   0.065  0.00  0.00    +0.079 A 
ATOM      3  N   UNL     1      -4.958  -6.680   0.058  0.00  0.00    -0.135 NA
ATOM      4  N   UNL     1      -5.675  -5.615   0.014  0.00  0.00    -0.058 NA
ATOM      5  N   UNL     1      -4.930  -4.565  -0.004  0.00  0.00    -0.183 N 
ATOM      6  C   UNL     1      -5.375  -3.240  -0.045  0.00  0.00    +0.241 A 
ATOM      7  C   UNL     1      -6.771  -2.801   0.035  0.00  0.00    +0.206 A 
ATOM      8  N   UNL     1      -6.796  -1.499  -0.036  0.00  0.00    -0.032 NA
ATOM      9  O   UNL     1      -5.460  -1.045  -0.162  0.00  0.00    -0.239 OA
ATOM     10  N   UNL     1      -4.618  -2.185  -0.156  0.00  0.00    -0.027 NA
ATOM     11  N   UNL     1      -7.879  -3.631   0.164  0.00  0.00    -0.337 N 
ATOM     12  H   UNL     1      -7.762  -4.593   0.209  0.00  0.00    +0.144 HD
ATOM     13  H   UNL     1      -8.769  -3.248   0.209  0.00  0.00    +0.144 HD
ENDROOT
BRANCH   1  15
ATOM     14  N   UNL     1      -2.016  -3.518   1.145  0.00  0.00    -0.202 N 
ATOM     15  C   UNL     1      -2.419  -4.128   0.013  0.00  0.00    +0.284 C 
ATOM     16  O   UNL     1      -1.790  -3.976  -1.017  0.00  0.00    -0.267 OA
ATOM     17  H   UNL     1      -2.554  -3.584   1.950  0.00  0.00    +0.178 HD
BRANCH  14  19
ATOM     18  C   UNL     1      -0.431  -2.202   2.252  0.00  0.00    +0.142 C 
ATOM     19  N   UNL     1      -0.820  -2.789   1.161  0.00  0.00    -0.187 NA
BRANCH  18  21
ATOM     20  C   UNL     1       1.607  -1.338   1.108  0.00  0.00    +0.147 A 
ATOM     21  C   UNL     1       0.827  -1.435   2.268  0.00  0.00    +0.039 A 
ATOM     22  C   UNL     1       1.248  -0.802   3.439  0.00  0.00    +0.033 A 
ATOM     23  C   UNL     1       2.428  -0.086   3.448  0.00  0.00    +0.043 A 
ATOM     24  C   UNL     1       3.196   0.008   2.300  0.00  0.00    +0.043 A 
ATOM     25  C   UNL     1       2.789  -0.615   1.133  0.00  0.00    +0.085 A 
ATOM     26 CL   UNL     1       3.761  -0.491  -0.300  0.00  0.00    -0.080 Cl
ATOM     27 CL   UNL     1       2.950   0.701   4.904  0.00  0.00    -0.083 Cl
BRANCH  20  29
ATOM     28  C   UNL     1       0.381  -1.191  -0.923  0.00  0.00    +0.277 C 
ATOM     29  O   UNL     1       1.207  -1.950  -0.037  0.00  0.00    -0.493 OA
ENDBRANCH  20  29
ENDBRANCH  18  21
ENDBRANCH  14  19
ENDBRANCH   1  15
BRANCH   2  30
ATOM     30  C   UNL     1      -2.491  -7.289   0.112  0.00  0.00    -0.018 C 
BRANCH  30  37
ATOM     31  C   UNL     1      -1.731  -6.303   2.199  0.00  0.00    -0.078 C 
ATOM     32  C   UNL     1      -1.096  -6.552   3.540  0.00  0.00    -0.019 C 
ATOM     33  C   UNL     1       0.434  -6.609   3.354  0.00  0.00    -0.002 C 
ATOM     34  C   UNL     1       0.877  -7.890   2.817  0.00  0.00    -0.002 C 
ATOM     35  C   UNL     1       0.276  -8.178   1.426  0.00  0.00    -0.019 C 
ATOM     36  C   UNL     1      -1.142  -8.650   1.607  0.00  0.00    -0.078 C 
ATOM     37  N   UNL     1      -2.181  -7.567   1.523  0.00  0.00    +0.383 N 
ATOM     38  H   UNL     1      -3.032  -7.899   1.991  0.00  0.00    -0.081 HD
ENDBRANCH  30  37
ENDBRANCH   2  30
TORSDOF 6
