REMARK  Name = ZINC09359172
REMARK  6 active torsions:
REMARK  status: ('A' for Active; 'I' for Inactive)
REMARK    1  A    between atoms: C_1  and  C_2
REMARK    2  A    between atoms: C_2  and  C_3
REMARK    3  A    between atoms: C_4  and  O_17
REMARK    4  A    between atoms: N_8  and  C_11
REMARK    5  A    between atoms: N_18  and  C_19
REMARK    6  A    between atoms: C_25  and  N_53
REMARK                            x       y       z     vdW  Elec       q    Type
REMARK                         _______ _______ _______ _____ _____    ______ ____
ROOT
ATOM      1  C   UNL     1       2.393   1.323  -0.012  0.00  0.00    +0.202 C 
ATOM      2  C   UNL     1       1.096   2.011   0.038  0.00  0.00    +0.198 C 
ATOM      3  N   UNL     1      -0.006   1.280   0.044  0.00  0.00    -0.131 NA
ATOM      4  C   UNL     1       0.028  -0.049   0.006  0.00  0.00    +0.335 C 
ATOM      5  O   UNL     1      -1.030  -0.653   0.016  0.00  0.00    -0.250 OA
ATOM      6  N   UNL     1       1.164  -0.760  -0.041  0.00  0.00    -0.220 N 
ATOM      7  C   UNL     1       2.368  -0.150  -0.052  0.00  0.00    +0.241 C 
ATOM      8  O   UNL     1       3.400  -0.795  -0.094  0.00  0.00    -0.274 OA
ENDROOT
BRANCH   6   9
ATOM      9  C   UNL     1       1.097  -2.223  -0.080  0.00  0.00    +0.086 C 
ATOM     10  C   UNL     1       0.323  -2.665  -1.324  0.00  0.00    +0.023 C 
ATOM     11  C   UNL     1       0.253  -4.193  -1.365  0.00  0.00    +0.002 C 
ATOM     12  C   UNL     1      -0.460  -4.705  -0.112  0.00  0.00    +0.000 C 
ATOM     13  C   UNL     1       0.314  -4.263   1.132  0.00  0.00    +0.002 C 
ATOM     14  C   UNL     1       0.384  -2.735   1.173  0.00  0.00    +0.023 C 
ENDBRANCH   6   9
BRANCH   1  16
ATOM     15  C   UNL     1       4.898   1.291   0.082  0.00  0.00    +0.061 C 
ATOM     16  C   UNL     1       3.587   2.028  -0.020  0.00  0.00    +0.031 C 
ATOM     17  N   UNL     1       3.576   3.370  -0.119  0.00  0.00    -0.290 NA
BRANCH  17  18
ATOM     18  C   UNL     1       4.837   4.107  -0.243  0.00  0.00    +0.091 C 
ATOM     19  C   UNL     1       5.417   4.361   1.150  0.00  0.00    +0.025 C 
ATOM     20  C   UNL     1       6.734   5.130   1.021  0.00  0.00    +0.002 C 
ATOM     21  C   UNL     1       6.477   6.467   0.323  0.00  0.00    -0.001 C 
ATOM     22  C   UNL     1       5.896   6.213  -1.069  0.00  0.00    -0.014 C 
ATOM     23  C   UNL     1       4.580   5.444  -0.940  0.00  0.00    -0.050 C 
BRANCH  23  26
ATOM     24  H   UNL     1       3.844   6.068  -2.759  0.00  0.00    -0.090 HD
ATOM     25  H   UNL     1       4.630   4.604  -2.819  0.00  0.00    -0.090 HD
ATOM     26  N   UNL     1       4.001   5.188  -2.271  0.00  0.00    +0.381 N 
ATOM     27  H   UNL     1       3.103   4.701  -2.161  0.00  0.00    -0.090 HD
ENDBRANCH  23  26
ENDBRANCH  17  18
ENDBRANCH   1  16
BRANCH   2  28
ATOM     28  O   UNL     1       1.031   3.359   0.077  0.00  0.00    -0.496 OA
ATOM     29  H   UNL     1       0.130   3.708   0.108  0.00  0.00    +0.293 HD
ENDBRANCH   2  28
TORSDOF 5
