REMARK  Name = ZINC08762146
REMARK  7 active torsions:
REMARK  status: ('A' for Active; 'I' for Inactive)
REMARK    1  A    between atoms: C_4  and  C_7
REMARK    2  A    between atoms: N_15  and  C_18
REMARK    3  A    between atoms: C_18  and  C_19
REMARK    4  A    between atoms: C_19  and  N_20
REMARK    5  A    between atoms: N_20  and  C_21
REMARK    6  A    between atoms: C_24  and  C_26
REMARK    7  A    between atoms: N_32  and  C_33
REMARK                            x       y       z     vdW  Elec       q    Type
REMARK                         _______ _______ _______ _____ _____    ______ ____
ROOT
ATOM      1  C   UNL     1      -1.423   3.356   4.115  0.00  0.00    +0.157 C 
ATOM      2  C   UNL     1      -1.146   2.447   2.989  0.00  0.00    +0.145 C 
ATOM      3  C   UNL     1      -2.529   1.739   2.751  0.00  0.00    +0.249 C 
ATOM      4  C   UNL     1      -2.045   0.699   1.790  0.00  0.00    +0.254 C 
ATOM      5  O   UNL     1      -2.485  -0.422   1.653  0.00  0.00    -0.272 OA
ATOM      6  N   UNL     1      -1.012   1.262   1.097  0.00  0.00    -0.238 N 
ATOM      7  C   UNL     1      -0.538   2.407   1.685  0.00  0.00    +0.230 C 
ATOM      8  O   UNL     1       0.228   3.216   1.208  0.00  0.00    -0.275 OA
ATOM      9  O   UNL     1      -2.861   1.425   4.096  0.00  0.00    -0.257 OA
ATOM     10  N   UNL     1      -2.531   2.665   4.859  0.00  0.00    -0.244 N 
ENDROOT
BRANCH   1  14
ATOM     11  C   UNL     1       2.008   3.833   6.614  0.00  0.00    +0.000 A 
ATOM     12  C   UNL     1       1.544   2.566   6.311  0.00  0.00    +0.000 A 
ATOM     13  C   UNL     1       0.434   2.412   5.502  0.00  0.00    +0.006 A 
ATOM     14  C   UNL     1      -0.213   3.524   4.997  0.00  0.00    -0.022 A 
ATOM     15  C   UNL     1       0.254   4.790   5.296  0.00  0.00    +0.006 A 
ATOM     16  C   UNL     1       1.361   4.945   6.109  0.00  0.00    +0.000 A 
ENDBRANCH   1  14
BRANCH  10  17
ATOM     17  C   UNL     1      -2.143   2.360   6.165  0.00  0.00    +0.065 A 
ATOM     18  C   UNL     1      -1.985   3.375   7.099  0.00  0.00    +0.028 A 
ATOM     19  C   UNL     1      -1.605   3.070   8.392  0.00  0.00    +0.002 A 
ATOM     20  C   UNL     1      -1.373   1.755   8.753  0.00  0.00    +0.000 A 
ATOM     21  C   UNL     1      -1.525   0.742   7.824  0.00  0.00    +0.002 A 
ATOM     22  C   UNL     1      -1.909   1.040   6.532  0.00  0.00    +0.028 A 
ENDBRANCH  10  17
BRANCH   6  23
ATOM     23  C   UNL     1      -0.464   0.699  -0.139  0.00  0.00    +0.135 C 
BRANCH  23  24
ATOM     24  C   UNL     1      -1.212   1.281  -1.340  0.00  0.00    +0.122 C 
BRANCH  24  25
ATOM     25  N   UNL     1      -0.664   0.718  -2.577  0.00  0.00    -0.328 N 
ATOM     26  H   UNL     1       0.065   0.079  -2.537  0.00  0.00    +0.147 HD
BRANCH  25  27
ATOM     27  C   UNL     1      -1.188   1.100  -3.807  0.00  0.00    +0.115 A 
ATOM     28  C   UNL     1      -0.658   0.566  -4.979  0.00  0.00    +0.079 A 
ATOM     29  C   UNL     1      -1.193   0.951  -6.195  0.00  0.00    +0.037 A 
ATOM     30  C   UNL     1      -2.236   1.869  -6.200  0.00  0.00    +0.072 A 
ATOM     31  C   UNL     1      -2.708   2.362  -5.000  0.00  0.00    +0.096 A 
ATOM     32 CL   UNL     1       0.651  -0.573  -4.914  0.00  0.00    -0.080 Cl
ATOM     33  N   UNL     1      -2.211   2.002  -3.787  0.00  0.00    -0.348 N 
ATOM     34  H   UNL     1      -2.582   2.386  -2.910  0.00  0.00    +0.167 HD
BRANCH  30  35
ATOM     35  C   UNL     1      -2.845   2.322  -7.502  0.00  0.00    +0.419 C 
ATOM     36  F   UNL     1      -3.868   3.240  -7.243  0.00  0.00    -0.166 F 
ATOM     37  F   UNL     1      -1.862   2.929  -8.290  0.00  0.00    -0.166 F 
ATOM     38  F   UNL     1      -3.370   1.217  -8.180  0.00  0.00    -0.166 F 
ENDBRANCH  30  35
ENDBRANCH  25  27
ENDBRANCH  24  25
ENDBRANCH  23  24
ENDBRANCH   6  23
TORSDOF 7
