REMARK  Name = ZINC15319238
REMARK  10 active torsions:
REMARK  status: ('A' for Active; 'I' for Inactive)
REMARK    1  A    between atoms: C_1  and  O_2
REMARK    2  A    between atoms: O_2  and  C_3
REMARK    3  A    between atoms: C_3  and  C_5
REMARK    4  A    between atoms: C_7  and  C_37
REMARK    5  A    between atoms: C_14  and  C_30
REMARK    6  A    between atoms: C_16  and  C_26
REMARK    7  A    between atoms: C_17  and  N_25
REMARK    8  A    between atoms: N_18  and  C_19
REMARK    9  A    between atoms: C_26  and  O_28
REMARK   10  A    between atoms: O_28  and  C_29
REMARK                            x       y       z     vdW  Elec       q    Type
REMARK                         _______ _______ _______ _____ _____    ______ ____
ROOT
ATOM      1  C   UNL     1       5.568  -2.479   2.627  0.00  0.00    +0.176 C 
ATOM      2  C   UNL     1       4.961  -3.266   3.794  0.00  0.00    +0.046 C 
ATOM      3  C   UNL     1       5.795  -2.993   5.048  0.00  0.00    +0.061 C 
ATOM      4  C   UNL     1       5.809  -1.511   5.334  0.00  0.00    +0.025 C 
ATOM      5  C   UNL     1       5.725  -0.609   4.334  0.00  0.00    +0.025 C 
ATOM      6  C   UNL     1       5.614  -1.021   2.993  0.00  0.00    +0.176 C 
ATOM      7  O   UNL     1       5.555  -0.183   2.115  0.00  0.00    -0.291 OA
ATOM      8  C   UNL     1       5.745   0.871   4.621  0.00  0.00    +0.094 C 
ATOM      9  C   UNL     1       6.284   1.150   5.993  0.00  0.00    +0.084 C 
ATOM     10  C   UNL     1       6.344   0.170   6.936  0.00  0.00    +0.103 C 
ATOM     11  N   UNL     1       5.916  -1.101   6.638  0.00  0.00    -0.261 N 
ENDROOT
BRANCH   8  12
ATOM     12  C   UNL     1       4.342   1.412   4.521  0.00  0.00    -0.035 A 
ATOM     13  C   UNL     1       4.040   2.377   3.578  0.00  0.00    +0.007 A 
ATOM     14  C   UNL     1       2.753   2.874   3.485  0.00  0.00    +0.038 A 
ATOM     15  C   UNL     1       1.768   2.406   4.338  0.00  0.00    +0.123 A 
ATOM     16  C   UNL     1       2.072   1.441   5.283  0.00  0.00    +0.038 A 
ATOM     17  C   UNL     1       3.359   0.945   5.373  0.00  0.00    +0.007 A 
ATOM     18  F   UNL     1       0.512   2.896   4.253  0.00  0.00    -0.205 F 
ENDBRANCH   8  12
BRANCH  11  19
ATOM     19  C   UNL     1       5.586  -1.984   7.673  0.00  0.00    +0.040 A 
ATOM     20  C   UNL     1       6.582  -2.499   8.492  0.00  0.00    +0.024 A 
ATOM     21  C   UNL     1       6.252  -3.365   9.516  0.00  0.00    +0.002 A 
ATOM     22  C   UNL     1       4.934  -3.729   9.718  0.00  0.00    +0.000 A 
ATOM     23  C   UNL     1       3.940  -3.223   8.900  0.00  0.00    +0.002 A 
ATOM     24  C   UNL     1       4.263  -2.351   7.878  0.00  0.00    +0.024 A 
ENDBRANCH  11  19
BRANCH   2  25
ATOM     25  C   UNL     1       4.989  -4.740   3.479  0.00  0.00    -0.043 A 
ATOM     26  C   UNL     1       3.875  -5.351   2.934  0.00  0.00    +0.004 A 
ATOM     27  C   UNL     1       3.901  -6.701   2.641  0.00  0.00    +0.000 A 
ATOM     28  C   UNL     1       5.038  -7.443   2.902  0.00  0.00    +0.000 A 
ATOM     29  C   UNL     1       6.150  -6.833   3.452  0.00  0.00    +0.000 A 
ATOM     30  C   UNL     1       6.125  -5.481   3.740  0.00  0.00    +0.004 A 
ENDBRANCH   2  25
BRANCH  10  31
ATOM     31  N   UNL     1       6.832   0.453   8.186  0.00  0.00    -0.346 N 
ATOM     32  H   UNL     1       6.480  -0.012   8.961  0.00  0.00    +0.143 HD
ATOM     33  H   UNL     1       7.530   1.117   8.295  0.00  0.00    +0.143 HD
ENDBRANCH  10  31
BRANCH   1  34
ATOM     34  C   UNL     1       6.963  -2.978   2.353  0.00  0.00    +0.318 C 
ATOM     35  O   UNL     1       7.905  -2.480   2.924  0.00  0.00    -0.250 OA
BRANCH  34  37
ATOM     36  C   UNL     1       8.531  -4.403   1.262  0.00  0.00    +0.280 C 
ATOM     37  O   UNL     1       7.160  -3.974   1.476  0.00  0.00    -0.467 OA
ENDBRANCH  34  37
ENDBRANCH   1  34
BRANCH   9  38
ATOM     38  C   UNL     1       6.732   2.441   6.309  0.00  0.00    +0.339 C 
ATOM     39  O   UNL     1       7.082   2.703   7.446  0.00  0.00    -0.245 OA
BRANCH  38  40
ATOM     40  O   UNL     1       6.776   3.393   5.352  0.00  0.00    -0.465 OA
ATOM     41  C   UNL     1       7.243   4.686   5.744  0.00  0.00    +0.280 C 
ENDBRANCH  38  40
ENDBRANCH   9  38
TORSDOF 8
