REMARK  Name = ZINC36546440
REMARK  13 active torsions:
REMARK  status: ('A' for Active; 'I' for Inactive)
REMARK    1  A    between atoms: C_1  and  C_2
REMARK    2  A    between atoms: C_2  and  C_3
REMARK    3  A    between atoms: C_2  and  C_4
REMARK    4  A    between atoms: C_2  and  N_5
REMARK    5  A    between atoms: C_6  and  C_8
REMARK    6  A    between atoms: C_8  and  C_10
REMARK    7  A    between atoms: C_8  and  N_19
REMARK    8  A    between atoms: C_13  and  O_18
REMARK    9  A    between atoms: C_14  and  O_16
REMARK   10  A    between atoms: O_16  and  C_17
REMARK   11  A    between atoms: N_19  and  C_20
REMARK   12  A    between atoms: C_27  and  C_29
REMARK   13  A    between atoms: C_29  and  C_30
REMARK                            x       y       z     vdW  Elec       q    Type
REMARK                         _______ _______ _______ _____ _____    ______ ____
ROOT
ATOM      1  N   UNL     1       4.006  -0.018  -2.780  0.00  0.00    -0.254 N 
ATOM      2  C   UNL     1       4.814  -0.482  -3.754  0.00  0.00    +0.225 C 
ATOM      3  O   UNL     1       4.347  -1.102  -4.686  0.00  0.00    -0.275 OA
ENDROOT
BRANCH   1   4
ATOM      4  C   UNL     1       4.545   0.697  -1.704  0.00  0.00    +0.056 A 
ATOM      5  C   UNL     1       5.222   0.028  -0.694  0.00  0.00    +0.025 A 
ATOM      6  C   UNL     1       5.753   0.736   0.366  0.00  0.00    +0.002 A 
ATOM      7  C   UNL     1       5.610   2.110   0.423  0.00  0.00    +0.002 A 
ATOM      8  C   UNL     1       4.936   2.780  -0.581  0.00  0.00    +0.022 A 
ATOM      9  C   UNL     1       4.407   2.078  -1.648  0.00  0.00    +0.062 A 
ATOM     10 CL   UNL     1       3.568   2.921  -2.913  0.00  0.00    -0.082 Cl
ENDBRANCH   1   4
BRANCH   1  11
ATOM     11  C   UNL     1       2.563  -0.263  -2.848  0.00  0.00    +0.197 C 
BRANCH  11  12
ATOM     12  C   UNL     1       2.295  -1.737  -2.691  0.00  0.00    -0.014 A 
ATOM     13  C   UNL     1       2.921  -2.448  -1.684  0.00  0.00    +0.010 A 
ATOM     14  C   UNL     1       2.679  -3.801  -1.535  0.00  0.00    +0.049 A 
ATOM     15  C   UNL     1       1.806  -4.447  -2.396  0.00  0.00    +0.158 A 
ATOM     16  C   UNL     1       1.176  -3.732  -3.410  0.00  0.00    +0.162 A 
ATOM     17  C   UNL     1       1.420  -2.375  -3.550  0.00  0.00    +0.055 A 
BRANCH  16  18
ATOM     18  O   UNL     1       0.319  -4.361  -4.257  0.00  0.00    -0.491 OA
ATOM     19  C   UNL     1      -0.292  -3.564  -5.274  0.00  0.00    +0.277 C 
ENDBRANCH  16  18
BRANCH  15  20
ATOM     20  O   UNL     1       1.567  -5.778  -2.252  0.00  0.00    -0.503 OA
ATOM     21  H   UNL     1       0.826  -5.983  -1.665  0.00  0.00    +0.292 HD
ENDBRANCH  15  20
ENDBRANCH  11  12
BRANCH  11  23
ATOM     22  N   UNL     1       0.665   1.053  -1.960  0.00  0.00    -0.309 N 
ATOM     23  C   UNL     1       1.873   0.494  -1.743  0.00  0.00    +0.239 C 
ATOM     24  O   UNL     1       2.404   0.601  -0.658  0.00  0.00    -0.273 OA
ATOM     25  H   UNL     1       0.241   0.968  -2.828  0.00  0.00    +0.149 HD
BRANCH  22  27
ATOM     26  C   UNL     1       0.871   2.963  -0.447  0.00  0.00    +0.031 C 
ATOM     27  C   UNL     1      -0.005   1.788  -0.886  0.00  0.00    +0.026 C 
ATOM     28  C   UNL     1      -0.239   0.854   0.303  0.00  0.00    +0.031 C 
ATOM     29  C   UNL     1      -1.350   2.316  -1.391  0.00  0.00    +0.031 C 
ENDBRANCH  22  27
ENDBRANCH  11  23
ENDBRANCH   1  11
BRANCH   2  30
ATOM     30  C   UNL     1       6.299  -0.231  -3.684  0.00  0.00    +0.131 C 
BRANCH  30  31
ATOM     31  C   UNL     1       6.970  -0.849  -4.884  0.00  0.00    -0.035 A 
ATOM     32  C   UNL     1       7.416  -2.156  -4.827  0.00  0.00    +0.008 A 
ATOM     33  C   UNL     1       8.032  -2.727  -5.925  0.00  0.00    +0.050 A 
ATOM     34  C   UNL     1       8.204  -1.990  -7.085  0.00  0.00    +0.166 A 
ATOM     35  C   UNL     1       7.754  -0.673  -7.142  0.00  0.00    +0.166 A 
ATOM     36  C   UNL     1       7.132  -0.109  -6.040  0.00  0.00    +0.053 A 
ATOM     37  O   UNL     1       8.037  -0.168  -8.378  0.00  0.00    -0.453 OA
ATOM     38  C   UNL     1       9.027  -1.052  -8.937  0.00  0.00    +0.466 C 
ATOM     39  O   UNL     1       8.768  -2.310  -8.286  0.00  0.00    -0.453 OA
ENDBRANCH  30  31
ENDBRANCH   2  30
TORSDOF 9
