REMARK  Name = ZINC58394114
REMARK  8 active torsions:
REMARK  status: ('A' for Active; 'I' for Inactive)
REMARK    1  A    between atoms: C_1  and  C_2
REMARK    2  A    between atoms: C_7  and  C_9
REMARK    3  A    between atoms: C_7  and  C_10
REMARK    4  A    between atoms: N_13  and  C_17
REMARK    5  A    between atoms: C_17  and  C_18
REMARK    6  A    between atoms: N_20  and  C_21
REMARK    7  A    between atoms: C_21  and  C_22
REMARK    8  A    between atoms: C_22  and  C_23
REMARK                            x       y       z     vdW  Elec       q    Type
REMARK                         _______ _______ _______ _____ _____    ______ ____
ROOT
ATOM      1  C   UNL     1      -1.571  -4.131  -3.313  0.00  0.00    +0.213 C 
ENDROOT
BRANCH   1  13
ATOM      2  C   UNL     1      -0.019   1.528   0.010  0.00  0.00    +0.007 C 
ATOM      3  C   UNL     1       0.002  -0.004   0.002  0.00  0.00    -0.011 C 
ATOM      4  C   UNL     1       0.726  -0.492  -1.255  0.00  0.00    +0.038 C 
ATOM      5  C   UNL     1       0.711  -2.014  -1.298  0.00  0.00    +0.113 C 
ATOM      6  C   UNL     1       1.264  -2.646  -0.036  0.00  0.00    +0.041 C 
ATOM      7  C   UNL     1       0.787  -2.030   1.268  0.00  0.00    -0.032 C 
ATOM      8  C   UNL     1       0.764  -0.507   1.226  0.00  0.00    +0.009 C 
ATOM      9  C   UNL     1      -0.596  -2.567   1.647  0.00  0.00    +0.011 C 
ATOM     10  C   UNL     1       1.769  -2.455   2.382  0.00  0.00    +0.011 C 
ATOM     11  C   UNL     1      -0.665  -2.529  -1.638  0.00  0.00    +0.247 C 
ATOM     12  O   UNL     1      -1.716  -2.282  -1.086  0.00  0.00    -0.273 OA
ATOM     13  N   UNL     1      -0.504  -3.320  -2.721  0.00  0.00    -0.215 N 
ATOM     14  C   UNL     1       0.750  -3.268  -3.183  0.00  0.00    +0.310 C 
ATOM     15  O   UNL     1       1.137  -3.883  -4.158  0.00  0.00    -0.252 OA
ATOM     16  N   UNL     1       1.532  -2.462  -2.446  0.00  0.00    -0.285 N 
ATOM     17  H   UNL     1       2.452  -2.214  -2.618  0.00  0.00    +0.151 HD
ENDBRANCH   1  13
BRANCH   1  18
ATOM     18  C   UNL     1      -2.293  -3.324  -4.361  0.00  0.00    +0.231 C 
ATOM     19  O   UNL     1      -1.950  -2.184  -4.591  0.00  0.00    -0.274 OA
ATOM     20  N   UNL     1      -3.319  -3.870  -5.043  0.00  0.00    -0.314 N 
ATOM     21  H   UNL     1      -3.593  -4.782  -4.859  0.00  0.00    +0.149 HD
BRANCH  20  22
ATOM     22  C   UNL     1      -4.021  -3.085  -6.062  0.00  0.00    +0.109 C 
BRANCH  22  23
ATOM     23  C   UNL     1      -5.135  -3.933  -6.681  0.00  0.00    +0.057 C 
BRANCH  23  24
ATOM     24  C   UNL     1      -5.857  -3.126  -7.729  0.00  0.00    -0.001 A 
ATOM     25  C   UNL     1      -7.008  -2.437  -7.398  0.00  0.00    +0.045 A 
ATOM     26  C   UNL     1      -7.672  -1.696  -8.361  0.00  0.00    +0.124 A 
ATOM     27  C   UNL     1      -7.183  -1.646  -9.655  0.00  0.00    +0.047 A 
ATOM     28  C   UNL     1      -6.032  -2.334  -9.989  0.00  0.00    +0.023 A 
ATOM     29  C   UNL     1      -5.362  -3.070  -9.024  0.00  0.00    +0.132 A 
ATOM     30  O   UNL     1      -4.220  -3.741  -9.336  0.00  0.00    -0.466 OA
ATOM     31  C   UNL     1      -3.953  -3.951 -10.725  0.00  0.00    +0.394 C 
ATOM     32  O   UNL     1      -4.146  -2.714 -11.421  0.00  0.00    -0.339 OA
ATOM     33  C   UNL     1      -5.512  -2.276 -11.403  0.00  0.00    +0.202 C 
ATOM     34  F   UNL     1      -8.797  -1.022  -8.037  0.00  0.00    -0.205 F 
ENDBRANCH  23  24
ENDBRANCH  22  23
ENDBRANCH  20  22
ENDBRANCH   1  18
TORSDOF 5
