REMARK  Name = ZINC12418142
REMARK  8 active torsions:
REMARK  status: ('A' for Active; 'I' for Inactive)
REMARK    1  A    between atoms: C_1  and  O_2
REMARK    2  A    between atoms: O_2  and  C_3
REMARK    3  A    between atoms: C_5  and  C_12
REMARK    4  A    between atoms: C_8  and  O_9
REMARK    5  A    between atoms: O_9  and  C_10
REMARK    6  A    between atoms: C_12  and  C_13
REMARK    7  A    between atoms: C_13  and  N_14
REMARK    8  A    between atoms: C_15  and  N_24
REMARK                            x       y       z     vdW  Elec       q    Type
REMARK                         _______ _______ _______ _____ _____    ______ ____
ROOT
ATOM      1  C   UNL     1       1.078   3.514   0.011  0.00  0.00    +0.133 C 
ENDROOT
BRANCH   1   2
ATOM      2  N   UNL     1       1.128   2.050   0.002  0.00  0.00    -0.281 N 
ATOM      3  C   UNL     1       2.343   1.408  -0.013  0.00  0.00    +0.120 A 
ATOM      4  C   UNL     1       2.380   0.041  -0.021  0.00  0.00    +0.120 A 
ATOM      5  C   UNL     1       1.171  -0.674  -0.013  0.00  0.00    +0.270 A 
ATOM      6  O   UNL     1       1.180  -1.893  -0.020  0.00  0.00    -0.266 OA
ATOM      7  N   UNL     1       0.002  -0.004   0.002  0.00  0.00    -0.274 N 
ATOM      8  H   UNL     1      -0.860  -0.512   0.008  0.00  0.00    +0.173 HD
ATOM      9  C   UNL     1      -0.016   1.341   0.009  0.00  0.00    +0.331 A 
ATOM     10  O   UNL     1      -1.082   1.925   0.018  0.00  0.00    -0.246 OA
ATOM     11 BR   UNL     1       4.035  -0.873  -0.042  0.00  0.00    -0.041 Br
BRANCH   3  12
ATOM     12  N   UNL     1       3.508   2.132  -0.020  0.00  0.00    -0.343 N 
ATOM     13  H   UNL     1       4.363   1.675  -0.031  0.00  0.00    +0.144 HD
ATOM     14  H   UNL     1       3.477   3.102  -0.014  0.00  0.00    +0.144 HD
ENDBRANCH   3  12
ENDBRANCH   1   2
BRANCH   1  15
ATOM     15  C   UNL     1       1.074   4.016   1.456  0.00  0.00    +0.058 C 
BRANCH  15  18
ATOM     16  C   UNL     1      -0.228   7.554   1.695  0.00  0.00    +0.162 A 
ATOM     17  C   UNL     1      -0.179   6.170   1.682  0.00  0.00    +0.054 A 
ATOM     18  C   UNL     1       1.022   5.522   1.465  0.00  0.00    -0.028 A 
ATOM     19  C   UNL     1       2.177   6.253   1.249  0.00  0.00    +0.025 A 
ATOM     20  C   UNL     1       2.134   7.636   1.256  0.00  0.00    +0.065 A 
ATOM     21  C   UNL     1       0.933   8.290   1.478  0.00  0.00    +0.163 A 
ATOM     22 BR   UNL     1       3.816   5.361   0.946  0.00  0.00    -0.050 Br
BRANCH  16  24
ATOM     23  C   UNL     1      -2.559   7.373   2.129  0.00  0.00    +0.277 C 
ATOM     24  O   UNL     1      -1.409   8.193   1.913  0.00  0.00    -0.491 OA
ENDBRANCH  16  24
BRANCH  21  25
ATOM     25  O   UNL     1       0.889   9.650   1.485  0.00  0.00    -0.491 OA
ATOM     26  C   UNL     1       2.119  10.340   1.256  0.00  0.00    +0.277 C 
ENDBRANCH  21  25
ENDBRANCH  15  18
ENDBRANCH   1  15
TORSDOF 6
