REMARK  Name = ZINC13063721
REMARK  12 active torsions:
REMARK  status: ('A' for Active; 'I' for Inactive)
REMARK    1  A    between atoms: C_1  and  C_2
REMARK    2  A    between atoms: C_2  and  C_3
REMARK    3  A    between atoms: C_10  and  C_15
REMARK    4  A    between atoms: C_15  and  N_75
REMARK    5  A    between atoms: C_16  and  C_17
REMARK    6  A    between atoms: C_16  and  N_75
REMARK    7  A    between atoms: C_20  and  C_23
REMARK    8  A    between atoms: C_24  and  C_26
REMARK    9  A    between atoms: C_24  and  C_28
REMARK   10  A    between atoms: C_24  and  N_75
REMARK   11  A    between atoms: C_26  and  C_27
REMARK   12  A    between atoms: N_32  and  C_33
REMARK                            x       y       z     vdW  Elec       q    Type
REMARK                         _______ _______ _______ _____ _____    ______ ____
ROOT
ATOM      1  N   UNL     1      -2.940   4.567   1.835  0.00  0.00    +0.392 N 
ATOM      2  H   UNL     1      -2.975   3.867   2.585  0.00  0.00    -0.080 HD
ENDROOT
BRANCH   1   3
ATOM      3  C   UNL     1      -2.809   3.874   0.536  0.00  0.00    -0.036 C 
BRANCH   3  11
ATOM      4  C   UNL     1      -0.198  -1.658   1.466  0.00  0.00    -0.047 A 
ATOM      5  C   UNL     1       1.111  -1.253   1.241  0.00  0.00    +0.005 A 
ATOM      6  C   UNL     1       1.396   0.058   0.926  0.00  0.00    +0.026 A 
ATOM      7  C   UNL     1       0.364   0.986   0.832  0.00  0.00    +0.049 A 
ATOM      8  C   UNL     1      -0.961   0.571   1.062  0.00  0.00    -0.001 A 
ATOM      9  C   UNL     1      -1.228  -0.765   1.380  0.00  0.00    +0.013 A 
ATOM     10  C   UNL     1      -2.040   1.557   0.967  0.00  0.00    +0.017 A 
ATOM     11  C   UNL     1      -1.722   2.836   0.649  0.00  0.00    +0.001 A 
ATOM     12  C   UNL     1      -0.377   3.201   0.428  0.00  0.00    +0.251 A 
ATOM     13  O   UNL     1      -0.112   4.357   0.149  0.00  0.00    -0.268 OA
ATOM     14  N   UNL     1       0.621   2.304   0.518  0.00  0.00    -0.322 N 
ATOM     15  H   UNL     1       1.535   2.588   0.360  0.00  0.00    +0.169 HD
BRANCH   4  17
ATOM     16  C   UNL     1      -0.730  -3.889   0.522  0.00  0.00    +0.009 C 
ATOM     17  C   UNL     1      -0.485  -3.098   1.808  0.00  0.00    +0.032 C 
ENDBRANCH   4  17
ENDBRANCH   3  11
ENDBRANCH   1   3
BRANCH   1  18
ATOM     18  C   UNL     1      -1.775   5.450   2.056  0.00  0.00    -0.042 C 
BRANCH  18  19
ATOM     19  C   UNL     1      -1.780   5.909   3.492  0.00  0.00    -0.064 A 
ATOM     20  C   UNL     1      -2.330   7.132   3.824  0.00  0.00    +0.002 A 
ATOM     21  C   UNL     1      -2.338   7.551   5.141  0.00  0.00    +0.003 A 
ATOM     22  C   UNL     1      -1.788   6.751   6.125  0.00  0.00    -0.050 A 
ATOM     23  C   UNL     1      -1.233   5.529   5.792  0.00  0.00    +0.003 A 
ATOM     24  C   UNL     1      -1.229   5.108   4.475  0.00  0.00    +0.002 A 
ATOM     25  C   UNL     1      -1.792   7.210   7.560  0.00  0.00    +0.044 C 
ENDBRANCH  18  19
ENDBRANCH   1  18
BRANCH   1  26
ATOM     26  C   UNL     1      -4.186   5.361   1.861  0.00  0.00    +0.003 C 
BRANCH  26  27
ATOM     27  C   UNL     1      -5.322   4.461   2.275  0.00  0.00    +0.138 A 
ATOM     28  N   UNL     1      -5.529   3.230   1.876  0.00  0.00    -0.115 NA
ATOM     29  N   UNL     1      -6.597   2.799   2.454  0.00  0.00    -0.023 NA
ATOM     30  N   UNL     1      -7.080   3.726   3.205  0.00  0.00    -0.044 NA
ATOM     31  N   UNL     1      -6.322   4.767   3.122  0.00  0.00    -0.228 N 
BRANCH  31  32
ATOM     32  C   UNL     1      -6.513   6.041   3.818  0.00  0.00    +0.111 C 
ATOM     33  C   UNL     1      -6.369   5.825   5.326  0.00  0.00    +0.027 C 
ATOM     34  C   UNL     1      -6.569   7.156   6.054  0.00  0.00    +0.002 C 
ATOM     35  C   UNL     1      -7.966   7.700   5.747  0.00  0.00    +0.000 C 
ATOM     36  C   UNL     1      -8.110   7.916   4.240  0.00  0.00    +0.002 C 
ATOM     37  C   UNL     1      -7.910   6.585   3.512  0.00  0.00    +0.027 C 
ENDBRANCH  31  32
ENDBRANCH  26  27
BRANCH  26  38
ATOM     38  C   UNL     1      -4.477   5.944   0.476  0.00  0.00    -0.011 C 
ATOM     39  C   UNL     1      -3.393   6.961   0.113  0.00  0.00    +0.002 C 
ENDBRANCH  26  38
ENDBRANCH   1  26
TORSDOF 9
