REMARK  Name = ZINC65282346
REMARK  6 active torsions:
REMARK  status: ('A' for Active; 'I' for Inactive)
REMARK    1  A    between atoms: C_1  and  C_2
REMARK    2  A    between atoms: C_5  and  C_7
REMARK    3  A    between atoms: N_9  and  C_10
REMARK    4  A    between atoms: N_18  and  C_19
REMARK    5  A    between atoms: C_19  and  C_20
REMARK    6  A    between atoms: C_19  and  C_21
REMARK                            x       y       z     vdW  Elec       q    Type
REMARK                         _______ _______ _______ _____ _____    ______ ____
ROOT
ATOM      1  C   UNL     1       3.904  -4.159  -0.038  0.00  0.00    +0.076 C 
ATOM      2  C   UNL     1       4.115  -4.625  -1.480  0.00  0.00    +0.041 C 
ATOM      3  C   UNL     1       5.040  -5.846  -1.488  0.00  0.00    +0.111 C 
ATOM      4  N   UNL     1       6.280  -5.504  -0.777  0.00  0.00    -0.286 N 
ATOM      5  C   UNL     1       6.186  -4.962   0.585  0.00  0.00    +0.111 C 
ATOM      6  C   UNL     1       5.248  -3.751   0.570  0.00  0.00    +0.041 C 
ATOM      7  C   UNL     1       7.480  -5.686  -1.362  0.00  0.00    +0.303 C 
ATOM      8  O   UNL     1       8.492  -5.312  -0.803  0.00  0.00    -0.253 OA
ATOM      9  N   UNL     1       7.558  -6.282  -2.569  0.00  0.00    -0.293 N 
ATOM     10  H   UNL     1       6.747  -6.515  -3.048  0.00  0.00    +0.151 HD
ENDROOT
BRANCH   1  13
ATOM     11  C   UNL     1       1.660  -3.210  -0.019  0.00  0.00    +0.280 C 
ATOM     12  O   UNL     1       1.213  -4.342  -0.028  0.00  0.00    -0.267 OA
ATOM     13  N   UNL     1       2.993  -3.012  -0.023  0.00  0.00    -0.306 N 
ATOM     14  H   UNL     1       3.349  -2.110  -0.017  0.00  0.00    +0.149 HD
BRANCH  11  19
ATOM     15  C   UNL     1      -0.005   1.512   0.031  0.00  0.00    +0.086 C 
ATOM     16  C   UNL     1       0.012   0.005   0.018  0.00  0.00    +0.103 A 
ATOM     17  C   UNL     1      -1.077  -0.794   0.015  0.00  0.00    +0.045 A 
ATOM     18  C   UNL     1      -0.616  -2.120   0.000  0.00  0.00    +0.055 A 
ATOM     19  C   UNL     1       0.748  -2.061  -0.005  0.00  0.00    +0.189 A 
ATOM     20  O   UNL     1       1.110  -0.762   0.001  0.00  0.00    -0.455 OA
ENDBRANCH  11  19
ENDBRANCH   1  13
BRANCH   9  21
ATOM     21  C   UNL     1       8.867  -6.579  -3.156  0.00  0.00    +0.102 C 
ATOM     22  C   UNL     1       9.373  -7.920  -2.624  0.00  0.00    +0.033 C 
BRANCH  21  23
ATOM     23  C   UNL     1       8.739  -6.649  -4.656  0.00  0.00    -0.027 A 
ATOM     24  C   UNL     1       7.633  -7.248  -5.229  0.00  0.00    +0.007 A 
ATOM     25  C   UNL     1       7.516  -7.313  -6.604  0.00  0.00    +0.020 A 
ATOM     26  C   UNL     1       8.506  -6.778  -7.408  0.00  0.00    +0.041 A 
ATOM     27  C   UNL     1       9.614  -6.179  -6.835  0.00  0.00    +0.020 A 
ATOM     28  C   UNL     1       9.727  -6.109  -5.459  0.00  0.00    +0.007 A 
ATOM     29 CL   UNL     1       8.360  -6.860  -9.136  0.00  0.00    -0.084 Cl
ENDBRANCH  21  23
ENDBRANCH   9  21
TORSDOF 4
