REMARK  Name = ZINC12702981
REMARK  10 active torsions:
REMARK  status: ('A' for Active; 'I' for Inactive)
REMARK    1  A    between atoms: C_1  and  C_2
REMARK    2  A    between atoms: C_5  and  C_8
REMARK    3  A    between atoms: N_11  and  C_13
REMARK    4  A    between atoms: C_13  and  C_14
REMARK    5  A    between atoms: N_16  and  C_17
REMARK    6  A    between atoms: N_16  and  C_24
REMARK    7  A    between atoms: C_24  and  C_26
REMARK    8  A    between atoms: C_24  and  C_33
REMARK    9  A    between atoms: C_29  and  O_32
REMARK   10  A    between atoms: N_35  and  C_36
REMARK                            x       y       z     vdW  Elec       q    Type
REMARK                         _______ _______ _______ _____ _____    ______ ____
ROOT
ATOM      1  C   UNL     1      -3.195   1.191   1.380  0.00  0.00    +0.244 C 
ATOM      2  O   UNL     1      -2.793   1.878   2.296  0.00  0.00    -0.273 OA
ATOM      3  N   UNL     1      -2.517   1.157   0.215  0.00  0.00    -0.251 N 
ENDROOT
BRANCH   3   4
ATOM      4  C   UNL     1      -2.981   0.364  -0.842  0.00  0.00    +0.073 A 
ATOM      5  C   UNL     1      -2.599  -0.968  -0.931  0.00  0.00    +0.026 A 
ATOM      6  C   UNL     1      -3.058  -1.748  -1.975  0.00  0.00    +0.002 A 
ATOM      7  C   UNL     1      -3.898  -1.205  -2.930  0.00  0.00    +0.003 A 
ATOM      8  C   UNL     1      -4.281   0.121  -2.845  0.00  0.00    +0.040 A 
ATOM      9  C   UNL     1      -3.829   0.907  -1.800  0.00  0.00    +0.145 A 
ATOM     10  F   UNL     1      -4.208   2.201  -1.714  0.00  0.00    -0.204 F 
ENDBRANCH   3   4
BRANCH   1  11
ATOM     11  C   UNL     1      -4.451   0.375   1.545  0.00  0.00    +0.264 C 
BRANCH  11  15
ATOM     12  C   UNL     1      -5.383   0.363   4.948  0.00  0.00    +0.205 A 
ATOM     13  N   UNL     1      -6.104   1.389   4.476  0.00  0.00    -0.108 NA
ATOM     14  N   UNL     1      -5.842   1.494   3.217  0.00  0.00    -0.045 NA
ATOM     15  N   UNL     1      -4.995   0.582   2.889  0.00  0.00    -0.154 N 
ATOM     16  N   UNL     1      -4.704  -0.123   3.928  0.00  0.00    -0.130 NA
BRANCH  12  21
ATOM     17  C   UNL     1      -5.290  -1.569  10.374  0.00  0.00    +0.044 C 
ATOM     18  C   UNL     1      -5.315  -1.063   8.955  0.00  0.00    -0.050 A 
ATOM     19  C   UNL     1      -6.114   0.015   8.620  0.00  0.00    +0.004 A 
ATOM     20  C   UNL     1      -6.140   0.481   7.322  0.00  0.00    +0.012 A 
ATOM     21  C   UNL     1      -5.359  -0.135   6.347  0.00  0.00    +0.023 A 
ATOM     22  C   UNL     1      -4.559  -1.223   6.688  0.00  0.00    +0.012 A 
ATOM     23  C   UNL     1      -4.537  -1.679   7.991  0.00  0.00    +0.004 A 
ENDBRANCH  12  21
ENDBRANCH  11  15
ENDBRANCH   1  11
BRANCH   3  24
ATOM     24  C   UNL     1      -1.296   1.950   0.055  0.00  0.00    +0.197 C 
BRANCH  24  25
ATOM     25  C   UNL     1      -1.417   2.816  -1.173  0.00  0.00    -0.018 A 
ATOM     26  C   UNL     1      -1.512   2.232  -2.422  0.00  0.00    +0.009 A 
ATOM     27  C   UNL     1      -1.629   3.023  -3.549  0.00  0.00    +0.046 A 
ATOM     28  C   UNL     1      -1.638   4.405  -3.426  0.00  0.00    +0.117 A 
ATOM     29  C   UNL     1      -1.536   4.988  -2.172  0.00  0.00    +0.046 A 
ATOM     30  C   UNL     1      -1.426   4.192  -1.048  0.00  0.00    +0.009 A 
BRANCH  28  31
ATOM     31  O   UNL     1      -1.746   5.186  -4.533  0.00  0.00    -0.507 OA
ATOM     32  H   UNL     1      -0.897   5.424  -4.931  0.00  0.00    +0.292 HD
ENDBRANCH  28  31
ENDBRANCH  24  25
BRANCH  24  33
ATOM     33  C   UNL     1      -0.114   1.027  -0.095  0.00  0.00    +0.239 C 
ATOM     34  O   UNL     1      -0.276  -0.175  -0.071  0.00  0.00    -0.273 OA
ATOM     35  N   UNL     1       1.122   1.537  -0.262  0.00  0.00    -0.311 N 
ATOM     36  H   UNL     1       1.252   2.498  -0.282  0.00  0.00    +0.149 HD
BRANCH  35  37
ATOM     37  C   UNL     1       2.271   0.640  -0.414  0.00  0.00    +0.073 C 
ATOM     38  C   UNL     1       2.844   0.276   0.971  0.00  0.00    +0.022 C 
ATOM     39  C   UNL     1       4.376   0.225   0.746  0.00  0.00    +0.002 C 
ATOM     40  C   UNL     1       4.616   1.396  -0.239  0.00  0.00    +0.002 C 
ATOM     41  C   UNL     1       3.397   1.352  -1.184  0.00  0.00    +0.022 C 
ENDBRANCH  35  37
ENDBRANCH  24  33
ENDBRANCH   3  24
TORSDOF 9
