REMARK  Name = ZINC12882721
REMARK  6 active torsions:
REMARK  status: ('A' for Active; 'I' for Inactive)
REMARK    1  A    between atoms: C_1  and  C_2
REMARK    2  A    between atoms: C_2  and  C_3
REMARK    3  A    between atoms: C_23  and  C_30
REMARK    4  A    between atoms: C_30  and  C_32
REMARK    5  A    between atoms: C_37  and  O_38
REMARK    6  A    between atoms: O_38  and  C_39
REMARK                            x       y       z     vdW  Elec       q    Type
REMARK                         _______ _______ _______ _____ _____    ______ ____
ROOT
ATOM      1  C   UNL     1       4.948   2.452  -3.699  0.00  0.00    -0.047 A 
ATOM      2  C   UNL     1       4.115   2.662  -4.783  0.00  0.00    +0.005 A 
ATOM      3  C   UNL     1       2.991   3.451  -4.655  0.00  0.00    +0.024 A 
ATOM      4  C   UNL     1       2.686   4.043  -3.430  0.00  0.00    +0.036 A 
ATOM      5  C   UNL     1       3.531   3.824  -2.348  0.00  0.00    -0.026 A 
ATOM      6  C   UNL     1       4.653   3.036  -2.480  0.00  0.00    +0.008 A 
ATOM      7  C   UNL     1       2.935   4.585  -1.194  0.00  0.00    +0.060 C 
ATOM      8  C   UNL     1       1.694   5.229  -1.761  0.00  0.00    +0.212 C 
ATOM      9  O   UNL     1       0.910   5.937  -1.165  0.00  0.00    -0.277 OA
ATOM     10  N   UNL     1       1.624   4.868  -3.055  0.00  0.00    -0.286 N 
ATOM     11  C   UNL     1       2.592   3.658  -0.033  0.00  0.00    +0.085 C 
ATOM     12  C   UNL     1       1.158   3.219  -0.053  0.00  0.00    -0.011 A 
ATOM     13  C   UNL     1      -0.044   3.892  -0.044  0.00  0.00    +0.006 A 
ATOM     14  C   UNL     1      -1.233   3.187  -0.073  0.00  0.00    +0.000 A 
ATOM     15  C   UNL     1      -1.214   1.805  -0.118  0.00  0.00    +0.002 A 
ATOM     16  C   UNL     1      -0.013   1.125  -0.122  0.00  0.00    +0.023 A 
ATOM     17  C   UNL     1       1.189   1.827  -0.092  0.00  0.00    +0.038 A 
ATOM     18  N   UNL     1       2.510   1.373  -0.094  0.00  0.00    -0.285 N 
ATOM     19  C   UNL     1       3.396   2.389  -0.062  0.00  0.00    +0.228 C 
ATOM     20  O   UNL     1       4.605   2.296  -0.057  0.00  0.00    -0.275 OA
ATOM     21  C   UNL     1       2.913   4.494   1.222  0.00  0.00    +0.066 C 
ATOM     22  C   UNL     1       4.136   5.315   0.743  0.00  0.00    -0.055 C 
ATOM     23  C   UNL     1       3.211   6.937  -0.721  0.00  0.00    -0.076 C 
ATOM     24  C   UNL     1       3.935   7.730   0.394  0.00  0.00    -0.020 C 
ATOM     25  C   UNL     1       4.175   6.652   1.498  0.00  0.00    -0.016 C 
ATOM     26  H   UNL     1       0.918   5.147  -3.658  0.00  0.00    +0.155 HD
ATOM     27  H   UNL     1       2.761   0.437  -0.115  0.00  0.00    +0.155 HD
ATOM     28  N   UNL     1       3.853   5.611  -0.659  0.00  0.00    +0.395 N 
ATOM     29  H   UNL     1       4.724   5.616  -1.204  0.00  0.00    -0.079 HD
ENDROOT
BRANCH   1  31
ATOM     30  C   UNL     1       7.362   2.456  -4.264  0.00  0.00    +0.009 C 
ATOM     31  C   UNL     1       6.174   1.588  -3.845  0.00  0.00    +0.032 C 
ENDBRANCH   1  31
BRANCH  21  32
ATOM     32  C   UNL     1       1.761   5.399   1.577  0.00  0.00    +0.169 C 
ATOM     33  O   UNL     1       1.734   6.538   1.161  0.00  0.00    -0.292 OA
BRANCH  32  34
ATOM     34  C   UNL     1       0.672   4.902   2.426  0.00  0.00    +0.059 A 
ATOM     35  C   UNL     1       0.698   3.588   2.909  0.00  0.00    +0.015 A 
ATOM     36  C   UNL     1      -0.327   3.129   3.705  0.00  0.00    +0.001 A 
ATOM     37  C   UNL     1      -1.386   3.962   4.032  0.00  0.00    +0.004 A 
ATOM     38  C   UNL     1      -1.426   5.259   3.564  0.00  0.00    +0.046 A 
ATOM     39  C   UNL     1      -0.401   5.743   2.765  0.00  0.00    +0.131 A 
BRANCH  39  40
ATOM     40  O   UNL     1      -0.436   7.019   2.308  0.00  0.00    -0.494 OA
ATOM     41  C   UNL     1      -1.559   7.815   2.694  0.00  0.00    +0.277 C 
ENDBRANCH  39  40
ENDBRANCH  32  34
ENDBRANCH  21  32
TORSDOF 4
