REMARK  Name = ZINC40562326
REMARK  7 active torsions:
REMARK  status: ('A' for Active; 'I' for Inactive)
REMARK    1  A    between atoms: C_1  and  C_2
REMARK    2  A    between atoms: C_2  and  C_4
REMARK    3  A    between atoms: C_2  and  O_28
REMARK    4  A    between atoms: N_6  and  C_7
REMARK    5  A    between atoms: C_15  and  C_16
REMARK    6  A    between atoms: C_16  and  C_18
REMARK    7  A    between atoms: O_28  and  C_29
REMARK                            x       y       z     vdW  Elec       q    Type
REMARK                         _______ _______ _______ _____ _____    ______ ____
ROOT
ATOM      1  C   UNL     1       3.208  -0.190   2.685  0.00  0.00    +0.091 A 
ATOM      2  C   UNL     1       4.459   0.479   3.061  0.00  0.00    +0.042 A 
ATOM      3  C   UNL     1       5.236   1.481   2.477  0.00  0.00    +0.013 A 
ATOM      4  C   UNL     1       6.381   1.898   3.095  0.00  0.00    +0.001 A 
ATOM      5  C   UNL     1       6.776   1.331   4.298  0.00  0.00    +0.004 A 
ATOM      6  C   UNL     1       6.023   0.340   4.890  0.00  0.00    +0.047 A 
ATOM      7  C   UNL     1       4.853  -0.099   4.280  0.00  0.00    +0.138 A 
ATOM      8  O   UNL     1       3.936  -1.029   4.617  0.00  0.00    -0.450 OA
ATOM      9  C   UNL     1       2.951  -1.098   3.693  0.00  0.00    +0.197 A 
ENDROOT
BRANCH   1  12
ATOM     10  C   UNL     1       2.384   1.281   1.020  0.00  0.00    +0.258 C 
ATOM     11  O   UNL     1       3.071   2.170   1.477  0.00  0.00    -0.271 OA
ATOM     12  N   UNL     1       2.439   0.044   1.552  0.00  0.00    -0.279 N 
ATOM     13  H   UNL     1       1.942  -0.682   1.144  0.00  0.00    +0.155 HD
BRANCH  10  15
ATOM     14  C   UNL     1       1.932   0.760  -1.362  0.00  0.00    +0.062 C 
ATOM     15  C   UNL     1       1.468   1.560  -0.144  0.00  0.00    +0.256 C 
BRANCH  15  16
ATOM     16  O   UNL     1       1.499   2.956  -0.451  0.00  0.00    -0.478 OA
BRANCH  16  17
ATOM     17  C   UNL     1       0.422   3.468  -1.103  0.00  0.00    +0.140 A 
ATOM     18  C   UNL     1      -0.676   2.664  -1.370  0.00  0.00    +0.048 A 
ATOM     19  C   UNL     1      -1.769   3.187  -2.033  0.00  0.00    +0.023 A 
ATOM     20  C   UNL     1      -1.770   4.512  -2.433  0.00  0.00    +0.043 A 
ATOM     21  C   UNL     1      -0.675   5.316  -2.168  0.00  0.00    +0.043 A 
ATOM     22  C   UNL     1       0.418   4.799  -1.500  0.00  0.00    +0.084 A 
ATOM     23 CL   UNL     1       1.788   5.810  -1.162  0.00  0.00    -0.080 Cl
ATOM     24 CL   UNL     1      -3.145   5.165  -3.267  0.00  0.00    -0.083 Cl
ENDBRANCH  16  17
ENDBRANCH  15  16
ENDBRANCH  10  15
ENDBRANCH   1  12
BRANCH   9  25
ATOM     25  C   UNL     1       1.833  -1.966   3.750  0.00  0.00    +0.230 C 
ATOM     26  O   UNL     1       0.954  -1.883   2.911  0.00  0.00    -0.283 OA
BRANCH  25  27
ATOM     27  C   UNL     1       1.734  -2.973   4.826  0.00  0.00    +0.029 A 
ATOM     28  C   UNL     1       2.664  -2.978   5.869  0.00  0.00    +0.015 A 
ATOM     29  C   UNL     1       2.570  -3.919   6.870  0.00  0.00    +0.050 A 
ATOM     30  C   UNL     1       1.551  -4.865   6.849  0.00  0.00    +0.162 A 
ATOM     31  C   UNL     1       0.619  -4.863   5.814  0.00  0.00    +0.163 A 
ATOM     32  C   UNL     1       0.706  -3.919   4.808  0.00  0.00    +0.061 A 
ATOM     33  O   UNL     1      -0.389  -5.778   5.784  0.00  0.00    -0.485 OA
ATOM     34  C   UNL     1      -0.231  -6.937   6.610  0.00  0.00    +0.270 C 
ATOM     35  C   UNL     1       0.235  -6.477   7.998  0.00  0.00    +0.270 C 
ATOM     36  O   UNL     1       1.480  -5.787   7.847  0.00  0.00    -0.485 OA
ENDBRANCH  25  27
ENDBRANCH   9  25
TORSDOF 6
