REMARK  Name = ZINC16924093
REMARK  8 active torsions:
REMARK  status: ('A' for Active; 'I' for Inactive)
REMARK    1  A    between atoms: C_1  and  C_2
REMARK    2  A    between atoms: C_5  and  O_28
REMARK    3  A    between atoms: C_6  and  N_8
REMARK    4  A    between atoms: C_9  and  C_11
REMARK    5  A    between atoms: C_11  and  C_12
REMARK    6  A    between atoms: N_16  and  C_20
REMARK    7  A    between atoms: C_22  and  C_27
REMARK    8  A    between atoms: C_25  and  C_26
REMARK                            x       y       z     vdW  Elec       q    Type
REMARK                         _______ _______ _______ _____ _____    ______ ____
ROOT
ATOM      1  C   UNL     1      -3.518   7.413   0.387  0.00  0.00    +0.151 C 
ATOM      2  C   UNL     1      -4.818   8.197   0.495  0.00  0.00    +0.241 C 
ATOM      3  O   UNL     1      -5.652   8.194  -0.385  0.00  0.00    -0.274 OA
ATOM      4  N   UNL     1      -4.975   8.882   1.615  0.00  0.00    -0.200 N 
ATOM      5  C   UNL     1      -4.063   8.900   2.606  0.00  0.00    +0.286 C 
ATOM      6  O   UNL     1      -4.118   9.494   3.665  0.00  0.00    -0.262 OA
ATOM      7  S   UNL     1      -2.752   7.846   2.000  0.00  0.00    -0.054 S 
ENDROOT
BRANCH   4   8
ATOM      8  C   UNL     1      -6.151   9.627   1.780  0.00  0.00    +0.048 A 
ATOM      9  C   UNL     1      -7.266   9.045   2.369  0.00  0.00    +0.027 A 
ATOM     10  C   UNL     1      -8.423   9.782   2.530  0.00  0.00    -0.049 A 
ATOM     11  C   UNL     1      -8.471  11.098   2.107  0.00  0.00    +0.004 A 
ATOM     12  C   UNL     1      -7.362  11.680   1.521  0.00  0.00    +0.005 A 
ATOM     13  C   UNL     1      -6.201  10.949   1.361  0.00  0.00    -0.029 A 
ATOM     14  C   UNL     1      -4.991  11.585   0.727  0.00  0.00    +0.045 C 
ATOM     15  C   UNL     1      -9.634   9.152   3.168  0.00  0.00    +0.044 C 
ENDBRANCH   4   8
BRANCH   1  16
ATOM     16  C   UNL     1      -3.781   5.910   0.281  0.00  0.00    +0.120 C 
BRANCH  16  18
ATOM     17  N   UNL     1      -2.457   3.834   0.044  0.00  0.00    -0.283 N 
ATOM     18  C   UNL     1      -2.470   5.178   0.152  0.00  0.00    +0.219 C 
ATOM     19  O   UNL     1      -1.428   5.797   0.145  0.00  0.00    -0.275 OA
ATOM     20  H   UNL     1      -3.292   3.344  -0.015  0.00  0.00    +0.155 HD
BRANCH  17  26
ATOM     21  C   UNL     1       2.274   3.654  -1.284  0.00  0.00    +0.044 C 
ATOM     22  C   UNL     1       1.073   3.034  -0.619  0.00  0.00    -0.048 A 
ATOM     23  C   UNL     1       1.176   1.785  -0.034  0.00  0.00    +0.007 A 
ATOM     24  C   UNL     1       0.077   1.211   0.577  0.00  0.00    +0.047 A 
ATOM     25  C   UNL     1      -1.133   1.885   0.602  0.00  0.00    +0.138 A 
ATOM     26  C   UNL     1      -1.236   3.146   0.018  0.00  0.00    +0.076 A 
ATOM     27  C   UNL     1      -0.130   3.715  -0.594  0.00  0.00    +0.030 A 
BRANCH  25  28
ATOM     28  O   UNL     1      -2.216   1.319   1.198  0.00  0.00    -0.505 OA
ATOM     29  H   UNL     1      -2.304   1.532   2.137  0.00  0.00    +0.292 HD
ENDBRANCH  25  28
ENDBRANCH  17  26
ENDBRANCH  16  18
ENDBRANCH   1  16
TORSDOF 5
