REMARK  Name = ZINC02549468
REMARK  4 active torsions:
REMARK  status: ('A' for Active; 'I' for Inactive)
REMARK    1  A    between atoms: C_6  and  O_7
REMARK    2  A    between atoms: O_7  and  C_8
REMARK    3  A    between atoms: C_10  and  N_17
REMARK    4  A    between atoms: C_12  and  N_14
REMARK                            x       y       z     vdW  Elec       q    Type
REMARK                         _______ _______ _______ _____ _____    ______ ____
ROOT
ATOM      1  C   UNL     1       3.505   1.857  -0.126  0.00  0.00    +0.132 A 
ATOM      2  C   UNL     1       4.730   1.221  -0.249  0.00  0.00    +0.069 A 
ATOM      3  C   UNL     1       5.891   1.973  -0.363  0.00  0.00    +0.030 A 
ATOM      4  C   UNL     1       5.821   3.361  -0.353  0.00  0.00    +0.055 A 
ATOM      5  C   UNL     1       4.598   3.991  -0.230  0.00  0.00    +0.131 A 
ATOM      6  C   UNL     1       3.441   3.244  -0.122  0.00  0.00    +0.079 A 
ENDROOT
BRANCH   5   7
ATOM      7  N   UNL     1       4.527   5.469  -0.220  0.00  0.00    +0.057 N 
ATOM      8  O   UNL     1       5.546   6.129  -0.321  0.00  0.00    -0.126 OA
ATOM      9  O   UNL     1       3.449   6.026  -0.112  0.00  0.00    -0.126 OA
ENDBRANCH   5   7
BRANCH   3  10
ATOM     10  N   UNL     1       7.128   1.335  -0.488  0.00  0.00    -0.358 N 
ATOM     11  H   UNL     1       7.175   0.366  -0.495  0.00  0.00    +0.142 HD
ATOM     12  H   UNL     1       7.938   1.861  -0.568  0.00  0.00    +0.142 HD
ENDBRANCH   3  10
BRANCH   1  13
ATOM     13  O   UNL     1       2.366   1.124  -0.014  0.00  0.00    -0.456 OA
BRANCH  13  19
ATOM     14  C   UNL     1       0.394   1.818   1.121  0.00  0.00    +0.049 A 
ATOM     15  C   UNL     1      -0.814   2.489   1.111  0.00  0.00    +0.043 A 
ATOM     16  C   UNL     1      -1.242   3.129  -0.040  0.00  0.00    +0.142 A 
ATOM     17  C   UNL     1      -0.457   3.102  -1.182  0.00  0.00    +0.080 A 
ATOM     18  C   UNL     1       0.749   2.426  -1.176  0.00  0.00    +0.069 A 
ATOM     19  C   UNL     1       1.178   1.784  -0.023  0.00  0.00    +0.130 A 
ATOM     20 CL   UNL     1      -0.991   3.910  -2.622  0.00  0.00    -0.080 Cl
ATOM     21  F   UNL     1      -2.423   3.785  -0.048  0.00  0.00    -0.204 F 
ENDBRANCH  13  19
ENDBRANCH   1  13
TORSDOF 4
