REMARK  Name = ZINC10211862
REMARK  6 active torsions:
REMARK  status: ('A' for Active; 'I' for Inactive)
REMARK    1  A    between atoms: C_1  and  C_2
REMARK    2  A    between atoms: C_4  and  C_16
REMARK    3  A    between atoms: C_5  and  C_15
REMARK    4  A    between atoms: N_6  and  C_7
REMARK    5  A    between atoms: C_16  and  C_18
REMARK    6  A    between atoms: C_18  and  N_19
REMARK                            x       y       z     vdW  Elec       q    Type
REMARK                         _______ _______ _______ _____ _____    ______ ____
ROOT
ATOM      1  C   UNL     1       2.493   1.454  -0.013  0.00  0.00    +0.064 C 
ATOM      2  C   UNL     1       1.052   1.895   0.002  0.00  0.00    +0.022 A 
ATOM      3  C   UNL     1      -0.013   1.076   0.008  0.00  0.00    +0.034 A 
ATOM      4  C   UNL     1      -1.201   1.940   0.018  0.00  0.00    +0.040 A 
ATOM      5  C   UNL     1      -0.726   3.238   0.026  0.00  0.00    +0.031 A 
ATOM      6  N   UNL     1       0.620   3.192   0.013  0.00  0.00    -0.317 N 
ATOM      7  C   UNL     1      -1.568   4.488   0.041  0.00  0.00    +0.064 C 
ENDROOT
BRANCH   6   8
ATOM      8  C   UNL     1       1.459   4.315   0.011  0.00  0.00    +0.049 A 
ATOM      9  C   UNL     1       1.474   5.173   1.102  0.00  0.00    +0.046 A 
ATOM     10  C   UNL     1       2.307   6.277   1.100  0.00  0.00    +0.044 A 
ATOM     11  C   UNL     1       3.116   6.532   0.007  0.00  0.00    +0.040 A 
ATOM     12  C   UNL     1       3.099   5.681  -1.083  0.00  0.00    +0.044 A 
ATOM     13  C   UNL     1       2.272   4.573  -1.084  0.00  0.00    +0.046 A 
ATOM     14 CL   UNL     1       4.115   6.006  -2.453  0.00  0.00    -0.083 Cl
ATOM     15 CL   UNL     1       2.332   7.347   2.467  0.00  0.00    -0.083 Cl
ENDBRANCH   6   8
BRANCH   4  16
ATOM     16  C   UNL     1      -2.602   1.513   0.021  0.00  0.00    +0.186 C 
ATOM     17  O   UNL     1      -3.488   2.341   0.028  0.00  0.00    -0.290 OA
BRANCH  16  18
ATOM     18  C   UNL     1      -2.942   0.045   0.014  0.00  0.00    +0.227 C 
BRANCH  18  19
ATOM     19  N   UNL     1      -4.398  -0.119   0.019  0.00  0.00    -0.221 N 
ATOM     20  C   UNL     1      -5.054  -0.186  -1.155  0.00  0.00    +0.287 A 
ATOM     21  O   UNL     1      -4.442  -0.111  -2.209  0.00  0.00    -0.265 OA
ATOM     22  C   UNL     1      -6.457  -0.344  -1.155  0.00  0.00    +0.126 A 
ATOM     23  C   UNL     1      -7.089  -0.422   0.056  0.00  0.00    +0.084 A 
ATOM     24  C   UNL     1      -6.308  -0.341   1.222  0.00  0.00    +0.154 A 
ATOM     25  N   UNL     1      -5.014  -0.200   1.142  0.00  0.00    -0.175 NA
ATOM     26 CL   UNL     1      -8.812  -0.618   0.150  0.00  0.00    -0.080 Cl
ATOM     27 CL   UNL     1      -7.349  -0.436  -2.641  0.00  0.00    -0.076 Cl
ENDBRANCH  18  19
ENDBRANCH  16  18
ENDBRANCH   4  16
TORSDOF 4
