REMARK  Name = ZINC12501048
REMARK  10 active torsions:
REMARK  status: ('A' for Active; 'I' for Inactive)
REMARK    1  A    between atoms: C_1  and  O_2
REMARK    2  A    between atoms: O_2  and  C_3
REMARK    3  A    between atoms: C_3  and  C_5
REMARK    4  A    between atoms: C_11  and  C_13
REMARK    5  A    between atoms: C_13  and  C_15
REMARK    6  A    between atoms: C_13  and  N_24
REMARK    7  A    between atoms: C_15  and  C_16
REMARK    8  A    between atoms: C_20  and  C_22
REMARK    9  A    between atoms: N_24  and  S_25
REMARK   10  A    between atoms: S_25  and  C_28
REMARK                            x       y       z     vdW  Elec       q    Type
REMARK                         _______ _______ _______ _____ _____    ______ ____
ROOT
ATOM      1  C   UNL     1      -2.617  -0.654   0.873  0.00  0.00    +0.166 C 
ENDROOT
BRANCH   1   8
ATOM      2  C   UNL     1      -1.341  -4.341  -2.244  0.00  0.00    +0.101 C 
ATOM      3  C   UNL     1      -2.867  -4.314  -2.123  0.00  0.00    +0.033 C 
ATOM      4  C   UNL     1      -3.256  -4.114  -0.655  0.00  0.00    +0.108 C 
ATOM      5  N   UNL     1      -2.590  -2.906  -0.150  0.00  0.00    -0.300 N 
ATOM      6  C   UNL     1      -1.133  -2.787  -0.302  0.00  0.00    +0.108 C 
ATOM      7  C   UNL     1      -0.767  -3.004  -1.770  0.00  0.00    +0.033 C 
ATOM      8  C   UNL     1      -3.301  -1.925   0.438  0.00  0.00    +0.235 C 
ATOM      9  O   UNL     1      -4.493  -2.063   0.617  0.00  0.00    -0.274 OA
BRANCH   2  10
ATOM     10  C   UNL     1      -0.955  -4.571  -3.682  0.00  0.00    +0.310 C 
ATOM     11  O   UNL     1      -1.812  -4.700  -4.524  0.00  0.00    -0.251 OA
BRANCH  10  13
ATOM     12  C   UNL     1       0.639  -4.856  -5.431  0.00  0.00    +0.280 C 
ATOM     13  O   UNL     1       0.341  -4.632  -4.028  0.00  0.00    -0.468 OA
ENDBRANCH  10  13
ENDBRANCH   2  10
ENDBRANCH   1   8
BRANCH   1  14
ATOM     14  N   UNL     1      -3.457   0.043   1.851  0.00  0.00    -0.178 NA
ATOM     15  H   UNL     1      -4.172   0.624   1.548  0.00  0.00    +0.149 HD
BRANCH  14  16
ATOM     16  S   UNL     1      -3.184  -0.161   3.471  0.00  0.00    +0.059 S 
ATOM     17  O   UNL     1      -4.149   0.632   4.148  0.00  0.00    -0.153 OA
ATOM     18  O   UNL     1      -3.058  -1.560   3.689  0.00  0.00    -0.153 OA
BRANCH  16  19
ATOM     19  C   UNL     1      -1.611   0.548   3.828  0.00  0.00    +0.106 A 
ATOM     20  C   UNL     1      -0.460  -0.225   3.681  0.00  0.00    +0.029 A 
ATOM     21  C   UNL     1       0.771   0.293   3.943  0.00  0.00    +0.010 A 
ATOM     22  C   UNL     1       0.886   1.625   4.379  0.00  0.00    -0.018 A 
ATOM     23  C   UNL     1       2.139   2.193   4.666  0.00  0.00    +0.008 A 
ATOM     24  C   UNL     1       2.212   3.485   5.086  0.00  0.00    +0.001 A 
ATOM     25  C   UNL     1       1.061   4.256   5.237  0.00  0.00    +0.001 A 
ATOM     26  C   UNL     1      -0.169   3.740   4.970  0.00  0.00    +0.008 A 
ATOM     27  C   UNL     1      -0.284   2.409   4.534  0.00  0.00    -0.016 A 
ATOM     28  C   UNL     1      -1.538   1.840   4.248  0.00  0.00    +0.037 A 
ENDBRANCH  16  19
ENDBRANCH  14  16
ENDBRANCH   1  14
BRANCH   1  29
ATOM     29  C   UNL     1      -2.394   0.247  -0.343  0.00  0.00    +0.065 C 
BRANCH  29  30
ATOM     30  C   UNL     1      -1.588   1.452   0.066  0.00  0.00    -0.045 A 
ATOM     31  C   UNL     1      -2.230   2.591   0.520  0.00  0.00    +0.004 A 
ATOM     32  C   UNL     1      -1.496   3.703   0.892  0.00  0.00    +0.001 A 
ATOM     33  C   UNL     1      -0.119   3.681   0.818  0.00  0.00    +0.011 A 
ATOM     34  C   UNL     1       0.534   2.535   0.367  0.00  0.00    +0.012 A 
ATOM     35  C   UNL     1      -0.211   1.417  -0.007  0.00  0.00    +0.015 A 
BRANCH  34  36
ATOM     36  C   UNL     1       2.013   2.505   0.284  0.00  0.00    +0.094 C 
ATOM     37  N   UNL     1       2.740   3.645   0.548  0.00  0.00    -0.345 N 
ATOM     38  H   UNL     1       3.589   1.282  -0.118  0.00  0.00    +0.157 HD
ATOM     39  H   UNL     1       2.291   4.445   0.862  0.00  0.00    +0.144 HD
ATOM     40  H   UNL     1       3.702   3.646   0.421  0.00  0.00    +0.144 HD
ATOM     41  N   UNL     1       2.574   1.353  -0.048  0.00  0.00    -0.387 N 
ATOM     42  H   UNL     1       1.988   0.531  -0.235  0.00  0.00    +0.157 HD
ENDBRANCH  34  36
ENDBRANCH  29  30
ENDBRANCH   1  29
TORSDOF 9
