REMARK  Name = ZINC67131800
REMARK  5 active torsions:
REMARK  status: ('A' for Active; 'I' for Inactive)
REMARK    1  A    between atoms: C_1  and  O_2
REMARK    2  A    between atoms: O_2  and  C_3
REMARK    3  A    between atoms: C_3  and  C_5
REMARK    4  A    between atoms: N_8  and  C_16
REMARK    5  A    between atoms: C_16  and  C_17
REMARK                            x       y       z     vdW  Elec       q    Type
REMARK                         _______ _______ _______ _____ _____    ______ ____
ROOT
ATOM      1  C   UNL     1       0.679  -2.115   1.088  0.00  0.00    +0.298 C 
ATOM      2  C   UNL     1      -0.739  -2.681   1.256  0.00  0.00    +0.162 C 
ATOM      3  N   UNL     1      -0.624  -4.146   1.359  0.00  0.00    -0.317 N 
ATOM      4  C   UNL     1       0.416  -4.666   2.145  0.00  0.00    +0.072 A 
ATOM      5  C   UNL     1       0.409  -6.002   2.512  0.00  0.00    +0.027 A 
ATOM      6  C   UNL     1       1.437  -6.510   3.284  0.00  0.00    +0.002 A 
ATOM      7  C   UNL     1       2.472  -5.686   3.688  0.00  0.00    +0.004 A 
ATOM      8  C   UNL     1       2.483  -4.352   3.326  0.00  0.00    +0.047 A 
ATOM      9  C   UNL     1       1.455  -3.834   2.553  0.00  0.00    +0.143 A 
ATOM     10  O   UNL     1       1.474  -2.519   2.206  0.00  0.00    -0.474 OA
ENDROOT
BRANCH   1  11
ATOM     11  C   UNL     1       0.618  -0.611   1.029  0.00  0.00    +0.350 C 
ATOM     12  O   UNL     1       1.124   0.049   1.905  0.00  0.00    -0.247 OA
BRANCH  11  14
ATOM     13  C   UNL     1      -0.017   1.425   0.010  0.00  0.00    +0.280 C 
ATOM     14  O   UNL     1       0.002  -0.004   0.002  0.00  0.00    -0.465 OA
ENDBRANCH  11  14
ENDBRANCH   1  11
BRANCH   3  15
ATOM     15  C   UNL     1      -1.564  -5.030   0.665  0.00  0.00    +0.160 C 
BRANCH  15  16
ATOM     16  C   UNL     1      -1.034  -5.346  -0.710  0.00  0.00    +0.066 A 
ATOM     17  C   UNL     1      -0.685  -6.643  -1.034  0.00  0.00    +0.095 A 
ATOM     18  C   UNL     1      -0.196  -6.912  -2.317  0.00  0.00    +0.259 A 
ATOM     19  O   UNL     1       0.121  -8.048  -2.634  0.00  0.00    -0.267 OA
ATOM     20  N   UNL     1      -0.081  -5.896  -3.199  0.00  0.00    -0.267 N 
ATOM     21  C   UNL     1       0.394  -6.143  -4.452  0.00  0.00    +0.116 A 
ATOM     22  C   UNL     1       0.518  -5.141  -5.353  0.00  0.00    +0.058 A 
ATOM     23  C   UNL     1       0.158  -3.831  -5.004  0.00  0.00    +0.025 A 
ATOM     24  C   UNL     1      -0.318  -3.575  -3.753  0.00  0.00    +0.048 A 
ATOM     25  C   UNL     1      -0.440  -4.630  -2.830  0.00  0.00    +0.141 A 
ATOM     26  N   UNL     1      -0.909  -4.383  -1.609  0.00  0.00    -0.232 NA
ATOM     27 CL   UNL     1       1.125  -5.478  -6.944  0.00  0.00    -0.082 Cl
ENDBRANCH  15  16
ENDBRANCH   3  15
TORSDOF 4
