REMARK  Name = ZINC12374899
REMARK  4 active torsions:
REMARK  status: ('A' for Active; 'I' for Inactive)
REMARK    1  A    between atoms: C_3  and  C_6
REMARK    2  A    between atoms: C_9  and  C_35
REMARK    3  A    between atoms: C_14  and  C_16
REMARK    4  A    between atoms: N_21  and  C_24
REMARK                            x       y       z     vdW  Elec       q    Type
REMARK                         _______ _______ _______ _____ _____    ______ ____
ROOT
ATOM      1  C   UNL     1       3.628   0.645  -0.090  0.00  0.00    +0.140 C 
ATOM      2  C   UNL     1       3.946   0.086  -1.481  0.00  0.00    +0.066 C 
ATOM      3  C   UNL     1       5.464   0.007  -1.678  0.00  0.00    +0.215 C 
ATOM      4  N   UNL     1       6.058  -0.671  -0.523  0.00  0.00    -0.238 N 
ATOM      5  C   UNL     1       5.431  -0.804   0.683  0.00  0.00    +0.119 A 
ATOM      6  C   UNL     1       6.252  -1.478   1.512  0.00  0.00    +0.078 A 
ATOM      7  C   UNL     1       7.434  -1.773   0.795  0.00  0.00    +0.149 A 
ATOM      8  N   UNL     1       7.307  -1.284  -0.426  0.00  0.00    -0.164 NA
ATOM      9  N   UNL     1       4.153  -0.287   0.927  0.00  0.00    -0.319 N 
ATOM     10  H   UNL     1       3.641  -0.530   1.714  0.00  0.00    +0.148 HD
ENDROOT
BRANCH   7  11
ATOM     11  C   UNL     1       8.607  -2.501   1.319  0.00  0.00    +0.267 C 
ATOM     12  O   UNL     1       8.560  -3.018   2.418  0.00  0.00    -0.268 OA
ATOM     13  N   UNL     1       9.729  -2.594   0.578  0.00  0.00    -0.300 N 
ATOM     14  C   UNL     1       9.865  -1.851  -0.685  0.00  0.00    +0.089 C 
ATOM     15  C   UNL     1      11.196  -1.093  -0.661  0.00  0.00    -0.059 C 
ATOM     16  N   UNL     1      12.290  -2.035  -0.391  0.00  0.00    +0.385 N 
ATOM     17  C   UNL     1      12.137  -2.606   0.953  0.00  0.00    -0.059 C 
ATOM     18  C   UNL     1      10.855  -3.435   1.012  0.00  0.00    +0.089 C 
ATOM     19  H   UNL     1      12.271  -2.776  -1.075  0.00  0.00    -0.081 HD
BRANCH  16  20
ATOM     20  C   UNL     1      13.575  -1.328  -0.477  0.00  0.00    -0.065 C 
ATOM     21  C   UNL     1      13.606  -0.199   0.554  0.00  0.00    -0.009 C 
ATOM     22  C   UNL     1      14.944   0.538   0.464  0.00  0.00    -0.012 C 
ATOM     23  C   UNL     1      16.085  -0.442   0.746  0.00  0.00    +0.007 C 
ATOM     24  C   UNL     1      16.054  -1.571  -0.286  0.00  0.00    -0.012 C 
ATOM     25  C   UNL     1      14.716  -2.307  -0.196  0.00  0.00    -0.009 C 
ATOM     26  C   UNL     1      16.220  -0.985  -1.689  0.00  0.00    +0.007 C 
ATOM     27  C   UNL     1      15.079  -0.005  -1.971  0.00  0.00    -0.012 C 
ATOM     28  C   UNL     1      15.110   1.124  -0.939  0.00  0.00    +0.007 C 
ATOM     29  C   UNL     1      13.741  -0.741  -1.881  0.00  0.00    -0.009 C 
ENDBRANCH  16  20
ENDBRANCH   7  11
BRANCH   1  32
ATOM     30  C   UNL     1       0.078   1.597   0.179  0.00  0.00    +0.041 A 
ATOM     31  C   UNL     1       1.434   1.924  -0.052  0.00  0.00    +0.046 A 
ATOM     32  C   UNL     1       2.136   0.783   0.072  0.00  0.00    +0.125 A 
ATOM     33  O   UNL     1       1.283  -0.211   0.364  0.00  0.00    -0.466 OA
ATOM     34  C   UNL     1       0.033   0.276   0.430  0.00  0.00    +0.195 A 
ENDBRANCH   1  32
BRANCH   3  35
ATOM     35  C   UNL     1       5.775  -0.779  -2.954  0.00  0.00    +0.412 C 
ATOM     36  F   UNL     1       5.196  -0.134  -4.052  0.00  0.00    -0.168 F 
ATOM     37  F   UNL     1       7.161  -0.849  -3.132  0.00  0.00    -0.168 F 
ATOM     38  F   UNL     1       5.253  -2.072  -2.843  0.00  0.00    -0.168 F 
ENDBRANCH   3  35
TORSDOF 4
