REMARK  Name = ZINC35470015
REMARK  8 active torsions:
REMARK  status: ('A' for Active; 'I' for Inactive)
REMARK    1  A    between atoms: C_1  and  C_2
REMARK    2  A    between atoms: C_3  and  C_8
REMARK    3  A    between atoms: C_8  and  N_9
REMARK    4  A    between atoms: N_9  and  C_10
REMARK    5  A    between atoms: C_10  and  C_11
REMARK    6  A    between atoms: C_14  and  C_17
REMARK    7  A    between atoms: C_23  and  C_25
REMARK    8  A    between atoms: C_32  and  C_35
REMARK                            x       y       z     vdW  Elec       q    Type
REMARK                         _______ _______ _______ _____ _____    ______ ____
ROOT
ATOM      1  N   UNL     1       3.663   0.259  -1.668  0.00  0.00    -0.287 N 
ATOM      2  C   UNL     1       4.027  -0.822  -0.949  0.00  0.00    +0.247 C 
ATOM      3  O   UNL     1       4.336  -1.852  -1.514  0.00  0.00    -0.270 OA
ENDROOT
BRANCH   2   4
ATOM      4  C   UNL     1       4.050  -0.753   0.526  0.00  0.00    +0.039 A 
ATOM      5  C   UNL     1       2.864  -0.517   1.233  0.00  0.00    +0.015 A 
ATOM      6  C   UNL     1       2.872  -0.451   2.596  0.00  0.00    +0.028 A 
ATOM      7  C   UNL     1       4.062  -0.618   3.296  0.00  0.00    +0.066 A 
ATOM      8  C   UNL     1       5.262  -0.857   2.602  0.00  0.00    +0.090 A 
ATOM      9  C   UNL     1       5.249  -0.928   1.210  0.00  0.00    +0.043 A 
ATOM     10  N   UNL     1       6.242  -0.977   3.536  0.00  0.00    -0.233 NA
ATOM     11  C   UNL     1       5.732  -0.831   4.723  0.00  0.00    +0.105 A 
ATOM     12  N   UNL     1       4.393  -0.608   4.634  0.00  0.00    -0.342 N 
ATOM     13  H   UNL     1       3.783  -0.468   5.375  0.00  0.00    +0.167 HD
ATOM     14  C   UNL     1       6.511  -0.900   6.011  0.00  0.00    +0.086 C 
ENDBRANCH   2   4
BRANCH   1  15
ATOM     15  C   UNL     1       3.747   1.596  -1.075  0.00  0.00    +0.163 C 
BRANCH  15  18
ATOM     16  C   UNL     1       6.757   1.695  -1.931  0.00  0.00    +0.065 C 
ATOM     17  C   UNL     1       6.234   1.705  -0.518  0.00  0.00    +0.035 A 
ATOM     18  C   UNL     1       4.938   1.662  -0.154  0.00  0.00    +0.054 A 
ATOM     19  N   UNL     1       4.909   1.690   1.215  0.00  0.00    -0.348 N 
ATOM     20  H   UNL     1       4.117   1.671   1.774  0.00  0.00    +0.166 HD
ATOM     21  C   UNL     1       6.190   1.750   1.639  0.00  0.00    +0.171 A 
ATOM     22  N   UNL     1       6.976   1.754   0.598  0.00  0.00    -0.350 N 
ATOM     23  H   UNL     1       7.945   1.788   0.626  0.00  0.00    +0.166 HD
ENDBRANCH  15  18
ENDBRANCH   1  15
BRANCH   1  24
ATOM     24  C   UNL     1       3.182   0.096  -3.042  0.00  0.00    +0.143 C 
BRANCH  24  25
ATOM     25  C   UNL     1       4.331  -0.305  -3.932  0.00  0.00    -0.030 A 
ATOM     26  C   UNL     1       4.127  -0.465  -5.291  0.00  0.00    +0.006 A 
ATOM     27  C   UNL     1       5.175  -0.831  -6.110  0.00  0.00    +0.009 A 
ATOM     28  C   UNL     1       6.441  -1.040  -5.566  0.00  0.00    -0.018 A 
ATOM     29  C   UNL     1       6.641  -0.878  -4.197  0.00  0.00    +0.009 A 
ATOM     30  C   UNL     1       5.586  -0.506  -3.388  0.00  0.00    +0.006 A 
BRANCH  28  31
ATOM     31  C   UNL     1       7.572  -1.435  -6.442  0.00  0.00    -0.018 A 
ATOM     32  C   UNL     1       7.373  -1.592  -7.812  0.00  0.00    +0.008 A 
ATOM     33  C   UNL     1       8.429  -1.959  -8.622  0.00  0.00    +0.001 A 
ATOM     34  C   UNL     1       9.682  -2.171  -8.076  0.00  0.00    +0.000 A 
ATOM     35  C   UNL     1       9.884  -2.017  -6.717  0.00  0.00    +0.001 A 
ATOM     36  C   UNL     1       8.837  -1.644  -5.898  0.00  0.00    +0.008 A 
ENDBRANCH  28  31
ENDBRANCH  24  25
ENDBRANCH   1  24
TORSDOF 6
