REMARK  Name = ZINC18199035
REMARK  6 active torsions:
REMARK  status: ('A' for Active; 'I' for Inactive)
REMARK    1  A    between atoms: C_1  and  O_2
REMARK    2  A    between atoms: O_2  and  C_3
REMARK    3  A    between atoms: C_6  and  C_11
REMARK    4  A    between atoms: C_8  and  O_9
REMARK    5  A    between atoms: O_9  and  C_10
REMARK    6  A    between atoms: C_16  and  C_25
REMARK                            x       y       z     vdW  Elec       q    Type
REMARK                         _______ _______ _______ _____ _____    ______ ____
ROOT
ATOM      1  C   UNL     1       3.319   6.369  -3.442  0.00  0.00    +0.032 C 
ATOM      2  C   UNL     1       2.372   7.000  -2.420  0.00  0.00    +0.060 C 
ATOM      3  C   UNL     1       2.338   6.154  -1.169  0.00  0.00    +0.020 C 
ATOM      4  C   UNL     1       2.505   4.816  -1.232  0.00  0.00    +0.041 C 
ATOM      5  C   UNL     1       2.451   3.939  -0.000  0.00  0.00    +0.177 C 
ATOM      6  N   UNL     1       2.532   4.760   1.201  0.00  0.00    -0.219 N 
ATOM      7  C   UNL     1       2.373   6.106   1.197  0.00  0.00    +0.220 A 
ATOM      8  N   UNL     1       2.494   6.533   2.425  0.00  0.00    -0.180 NA
ATOM      9  C   UNL     1       2.736   5.495   3.238  0.00  0.00    +0.233 A 
ATOM     10  N   UNL     1       2.768   4.390   2.525  0.00  0.00    -0.132 NA
ATOM     11  N   UNL     1       2.924   5.574   4.619  0.00  0.00    -0.326 N 
ATOM     12  N   UNL     1       2.127   6.802   0.025  0.00  0.00    -0.287 N 
ATOM     13  C   UNL     1       2.740   4.175  -2.462  0.00  0.00    +0.164 C 
ATOM     14  O   UNL     1       2.877   2.968  -2.487  0.00  0.00    -0.292 OA
ATOM     15  C   UNL     1       2.825   4.951  -3.747  0.00  0.00    +0.088 C 
ATOM     16  H   UNL     1       2.883   6.434   5.065  0.00  0.00    +0.145 HD
ATOM     17  H   UNL     1       3.095   4.768   5.131  0.00  0.00    +0.145 HD
ATOM     18  H   UNL     1       1.816   7.720   0.045  0.00  0.00    +0.155 HD
ENDROOT
BRANCH   5  19
ATOM     19  C   UNL     1       1.157   3.167   0.008  0.00  0.00    -0.000 A 
ATOM     20  C   UNL     1      -0.050   3.842   0.023  0.00  0.00    +0.009 A 
ATOM     21  C   UNL     1      -1.238   3.135   0.031  0.00  0.00    +0.020 A 
ATOM     22  C   UNL     1      -1.220   1.751   0.017  0.00  0.00    +0.042 A 
ATOM     23  C   UNL     1      -0.013   1.076   0.008  0.00  0.00    +0.040 A 
ATOM     24  C   UNL     1       1.176   1.784   0.000  0.00  0.00    +0.048 A 
ATOM     25 CL   UNL     1       2.691   0.937  -0.018  0.00  0.00    -0.083 Cl
ATOM     26 CL   UNL     1      -2.711   0.864   0.020  0.00  0.00    -0.083 Cl
ENDBRANCH   5  19
BRANCH   1  30
ATOM     27  C   UNL     1       3.322   8.697  -7.029  0.00  0.00    +0.161 A 
ATOM     28  C   UNL     1       2.146   8.125  -6.571  0.00  0.00    +0.049 A 
ATOM     29  C   UNL     1       2.149   7.369  -5.414  0.00  0.00    +0.008 A 
ATOM     30  C   UNL     1       3.322   7.189  -4.705  0.00  0.00    -0.040 A 
ATOM     31  C   UNL     1       4.500   7.757  -5.157  0.00  0.00    +0.053 A 
ATOM     32  C   UNL     1       4.504   8.512  -6.318  0.00  0.00    +0.162 A 
BRANCH  27  34
ATOM     33  C   UNL     1       2.071   9.584  -8.847  0.00  0.00    +0.277 C 
ATOM     34  O   UNL     1       3.321   9.437  -8.170  0.00  0.00    -0.491 OA
ENDBRANCH  27  34
BRANCH  32  35
ATOM     35  O   UNL     1       5.661   9.071  -6.763  0.00  0.00    -0.491 OA
ATOM     36  C   UNL     1       6.836   8.839  -5.983  0.00  0.00    +0.277 C 
ENDBRANCH  32  35
ENDBRANCH   1  30
TORSDOF 4
