REMARK  Name = ZINC05372313
REMARK  8 active torsions:
REMARK  status: ('A' for Active; 'I' for Inactive)
REMARK    1  A    between atoms: C_1  and  C_2
REMARK    2  A    between atoms: C_2  and  C_3
REMARK    3  A    between atoms: C_3  and  O_29
REMARK    4  A    between atoms: C_7  and  O_24
REMARK    5  A    between atoms: C_10  and  O_11
REMARK    6  A    between atoms: C_18  and  O_22
REMARK    7  A    between atoms: O_22  and  C_23
REMARK    8  A    between atoms: C_25  and  O_28
REMARK                            x       y       z     vdW  Elec       q    Type
REMARK                         _______ _______ _______ _____ _____    ______ ____
ROOT
ATOM      1  C   UNL     1      -0.019   1.526   0.010  0.00  0.00    +0.073 C 
ATOM      2  C   UNL     1       1.412   2.060  -0.000  0.00  0.00    +0.074 C 
ATOM      3  C   UNL     1       1.425   3.549   0.233  0.00  0.00    +0.007 A 
ATOM      4  C   UNL     1       0.355   4.223   0.765  0.00  0.00    +0.030 A 
ATOM      5  C   UNL     1       0.426   5.608   0.966  0.00  0.00    +0.134 A 
ATOM      6  C   UNL     1       1.578   6.314   0.625  0.00  0.00    +0.078 A 
ATOM      7  C   UNL     1       2.676   5.623   0.075  0.00  0.00    +0.078 A 
ATOM      8  C   UNL     1       2.590   4.245  -0.116  0.00  0.00    +0.132 A 
ATOM      9  C   UNL     1       3.901   6.354  -0.291  0.00  0.00    +0.198 C 
ATOM     10  O   UNL     1       4.848   5.758  -0.766  0.00  0.00    -0.286 OA
ATOM     11  C   UNL     1       3.976   7.815  -0.080  0.00  0.00    +0.037 A 
ATOM     12  C   UNL     1       5.128   8.514  -0.422  0.00  0.00    +0.012 A 
ATOM     13  C   UNL     1       5.194   9.883  -0.224  0.00  0.00    +0.004 A 
ATOM     14  C   UNL     1       4.121  10.566   0.313  0.00  0.00    +0.046 A 
ATOM     15  C   UNL     1       2.959   9.887   0.663  0.00  0.00    +0.132 A 
ATOM     16  C   UNL     1       2.878   8.504   0.468  0.00  0.00    +0.075 A 
ATOM     17  C   UNL     1       1.653   7.771   0.834  0.00  0.00    +0.202 C 
ATOM     18  O   UNL     1       0.705   8.368   1.309  0.00  0.00    -0.286 OA
ATOM     19  C   UNL     1      -0.928   3.532   1.152  0.00  0.00    +0.151 C 
ATOM     20  C   UNL     1      -0.710   2.026   1.284  0.00  0.00    +0.071 C 
ENDROOT
BRANCH   1  22
ATOM     21  C   UNL     1       0.825  -0.496  -1.190  0.00  0.00    +0.007 C 
ATOM     22  C   UNL     1       0.002  -0.004   0.002  0.00  0.00    +0.032 C 
ENDBRANCH   1  22
BRANCH   8  23
ATOM     23  O   UNL     1       3.642   3.572  -0.644  0.00  0.00    -0.506 OA
ATOM     24  H   UNL     1       3.625   3.510  -1.609  0.00  0.00    +0.292 HD
ENDBRANCH   8  23
BRANCH  15  25
ATOM     25  O   UNL     1       1.907  10.562   1.190  0.00  0.00    -0.494 OA
ATOM     26  C   UNL     1       2.062  11.973   1.359  0.00  0.00    +0.277 C 
ENDBRANCH  15  25
BRANCH   5  27
ATOM     27  O   UNL     1      -0.635   6.266   1.496  0.00  0.00    -0.506 OA
ATOM     28  H   UNL     1      -0.620   6.323   2.461  0.00  0.00    +0.292 HD
ENDBRANCH   5  27
BRANCH  19  29
ATOM     29  O   UNL     1      -1.916   3.778   0.149  0.00  0.00    -0.387 OA
ATOM     30  H   UNL     1      -2.121   4.714   0.020  0.00  0.00    +0.210 HD
ENDBRANCH  19  29
BRANCH   1  31
ATOM     31  O   UNL     1      -0.720   2.004  -1.139  0.00  0.00    -0.388 OA
ATOM     32  H   UNL     1      -0.330   1.731  -1.980  0.00  0.00    +0.210 HD
ENDBRANCH   1  31
TORSDOF 6
