REMARK  Name = ZINC06422293
REMARK  7 active torsions:
REMARK  status: ('A' for Active; 'I' for Inactive)
REMARK    1  A    between atoms: C_1  and  C_2
REMARK    2  A    between atoms: C_8  and  N_10
REMARK    3  A    between atoms: C_14  and  C_16
REMARK    4  A    between atoms: C_16  and  O_17
REMARK    5  A    between atoms: O_17  and  C_18
REMARK    6  A    between atoms: C_18  and  C_20
REMARK    7  A    between atoms: C_24  and  N_26
REMARK                            x       y       z     vdW  Elec       q    Type
REMARK                         _______ _______ _______ _____ _____    ______ ____
ROOT
ATOM      1  N   UNL     1       3.129  -5.093  -0.055  0.00  0.00    -0.296 N 
ATOM      2  C   UNL     1       2.049  -4.287  -0.041  0.00  0.00    +0.306 C 
ATOM      3  O   UNL     1       0.932  -4.767  -0.032  0.00  0.00    -0.252 OA
ATOM      4  N   UNL     1       2.207  -2.949  -0.035  0.00  0.00    -0.237 N 
ATOM      5  C   UNL     1       1.127  -2.142  -0.020  0.00  0.00    +0.258 C 
ATOM      6  O   UNL     1       0.014  -2.621  -0.012  0.00  0.00    -0.272 OA
ATOM      7  H   UNL     1       4.020  -4.710  -0.062  0.00  0.00    +0.151 HD
ATOM      8  H   UNL     1       3.098  -2.566  -0.041  0.00  0.00    +0.159 HD
ENDROOT
BRANCH   1  15
ATOM      9  C   UNL     1       4.360  -6.705  -2.122  0.00  0.00    +0.009 C 
ATOM     10  C   UNL     1       4.189  -7.205  -0.686  0.00  0.00    +0.006 C 
ATOM     11  C   UNL     1       5.430  -6.842   0.131  0.00  0.00    +0.005 C 
ATOM     12  C   UNL     1       5.259  -7.341   1.567  0.00  0.00    +0.000 C 
ATOM     13  C   UNL     1       4.027  -6.684   2.192  0.00  0.00    +0.002 C 
ATOM     14  C   UNL     1       2.785  -7.048   1.375  0.00  0.00    +0.022 C 
ATOM     15  C   UNL     1       2.956  -6.548  -0.061  0.00  0.00    +0.077 C 
ENDBRANCH   1  15
BRANCH   5  16
ATOM     16  C   UNL     1       1.305  -0.646  -0.014  0.00  0.00    +0.328 C 
BRANCH  16  17
ATOM     17  O   UNL     1       0.002  -0.004   0.002  0.00  0.00    -0.452 OA
BRANCH  17  18
ATOM     18  C   UNL     1      -0.016   1.343   0.009  0.00  0.00    +0.340 C 
ATOM     19  O   UNL     1       1.028   1.965   0.003  0.00  0.00    -0.245 OA
BRANCH  18  20
ATOM     20  C   UNL     1      -1.305   2.064   0.019  0.00  0.00    +0.061 A 
ATOM     21  C   UNL     1      -2.506   1.351   0.021  0.00  0.00    +0.016 A 
ATOM     22  C   UNL     1      -3.709   2.027   0.031  0.00  0.00    +0.022 A 
ATOM     23  C   UNL     1      -3.731   3.410   0.038  0.00  0.00    +0.062 A 
ATOM     24  C   UNL     1      -2.540   4.129   0.036  0.00  0.00    +0.044 A 
ATOM     25  C   UNL     1      -1.327   3.459   0.033  0.00  0.00    +0.039 A 
ATOM     26 CL   UNL     1      -5.249   4.252   0.049  0.00  0.00    -0.082 Cl
BRANCH  24  27
ATOM     27  N   UNL     1      -2.567   5.527   0.044  0.00  0.00    -0.357 N 
ATOM     28  H   UNL     1      -3.416   5.995   0.051  0.00  0.00    +0.142 HD
ATOM     29  H   UNL     1      -1.736   6.028   0.042  0.00  0.00    +0.142 HD
ENDBRANCH  24  27
ENDBRANCH  18  20
ENDBRANCH  17  18
ENDBRANCH  16  17
ENDBRANCH   5  16
TORSDOF 6
