REMARK  Name = ZINC08832457
REMARK  9 active torsions:
REMARK  status: ('A' for Active; 'I' for Inactive)
REMARK    1  A    between atoms: C_1  and  C_2
REMARK    2  A    between atoms: C_2  and  C_3
REMARK    3  A    between atoms: C_2  and  C_4
REMARK    4  A    between atoms: C_2  and  C_5
REMARK    5  A    between atoms: C_12  and  N_17
REMARK    6  A    between atoms: C_13  and  C_14
REMARK    7  A    between atoms: C_18  and  C_20
REMARK    8  A    between atoms: C_23  and  C_25
REMARK    9  A    between atoms: C_29  and  N_31
REMARK                            x       y       z     vdW  Elec       q    Type
REMARK                         _______ _______ _______ _____ _____    ______ ____
ROOT
ATOM      1  C   UNL     1       6.700  13.491   0.392  0.00  0.00    -0.000 C 
ATOM      2  C   UNL     1       7.500  12.499  -0.457  0.00  0.00    +0.009 C 
ATOM      3  C   UNL     1       7.202  11.069  -0.006  0.00  0.00    +0.037 C 
ATOM      4  C   UNL     1       5.692  10.864   0.008  0.00  0.00    -0.023 A 
ATOM      5  C   UNL     1       4.847  11.917   0.021  0.00  0.00    -0.004 A 
ATOM      6  S   UNL     1       3.229  11.200   0.025  0.00  0.00    -0.077 S 
ATOM      7  C   UNL     1       3.666   9.523   0.019  0.00  0.00    +0.085 A 
ATOM      8  C   UNL     1       5.053   9.558   0.007  0.00  0.00    +0.068 A 
ATOM      9  C   UNL     1       5.214  13.369   0.026  0.00  0.00    +0.046 C 
ENDROOT
BRANCH   8  10
ATOM     10  C   UNL     1       5.845   8.325  -0.007  0.00  0.00    +0.244 C 
ATOM     11  O   UNL     1       6.164   7.818  -1.067  0.00  0.00    -0.270 OA
ATOM     12  N   UNL     1       6.220   7.751   1.153  0.00  0.00    -0.325 N 
ATOM     13  H   UNL     1       5.966   8.155   1.998  0.00  0.00    +0.145 HD
ATOM     14  H   UNL     1       6.744   6.935   1.144  0.00  0.00    +0.145 HD
ENDBRANCH   8  10
BRANCH   1  16
ATOM     15  C   UNL     1       6.371  15.905   0.946  0.00  0.00    +0.011 C 
ATOM     16  C   UNL     1       7.183  14.915   0.109  0.00  0.00    -0.035 C 
ATOM     17  C   UNL     1       8.664  15.034   0.474  0.00  0.00    +0.011 C 
ATOM     18  C   UNL     1       6.998  15.230  -1.377  0.00  0.00    +0.011 C 
ENDBRANCH   1  16
BRANCH   7  19
ATOM     19  N   UNL     1       2.833   8.417   0.021  0.00  0.00    -0.273 N 
ATOM     20  C   UNL     1       1.495   8.580   0.034  0.00  0.00    +0.284 C 
ATOM     21  O   UNL     1       1.019   9.700   0.045  0.00  0.00    -0.266 OA
ATOM     22  H   UNL     1       3.212   7.524   0.012  0.00  0.00    +0.156 HD
BRANCH  20  23
ATOM     23  C   UNL     1       0.615   7.410   0.035  0.00  0.00    +0.190 A 
ATOM     24  C   UNL     1      -0.763   7.434   0.048  0.00  0.00    +0.055 A 
ATOM     25  C   UNL     1      -1.190   6.103   0.045  0.00  0.00    +0.050 A 
ATOM     26  C   UNL     1      -0.070   5.322   0.030  0.00  0.00    +0.136 A 
ATOM     27  O   UNL     1       1.011   6.120   0.031  0.00  0.00    -0.450 OA
BRANCH  26  28
ATOM     28  C   UNL     1      -0.050   3.845   0.022  0.00  0.00    +0.019 A 
ATOM     29  C   UNL     1      -1.248   3.127   0.030  0.00  0.00    +0.012 A 
ATOM     30  C   UNL     1      -1.222   1.748   0.017  0.00  0.00    +0.003 A 
ATOM     31  C   UNL     1      -0.013   1.076   0.008  0.00  0.00    +0.033 A 
ATOM     32  C   UNL     1       1.178   1.781   0.000  0.00  0.00    +0.127 A 
ATOM     33  C   UNL     1       1.167   3.160   0.007  0.00  0.00    +0.044 A 
BRANCH  32  34
ATOM     34  N   UNL     1       2.467   1.053  -0.015  0.00  0.00    +0.056 N 
ATOM     35  O   UNL     1       2.478  -0.165  -0.021  0.00  0.00    -0.126 OA
ATOM     36  O   UNL     1       3.516   1.672  -0.021  0.00  0.00    -0.126 OA
ENDBRANCH  32  34
ENDBRANCH  26  28
ENDBRANCH  20  23
ENDBRANCH   7  19
TORSDOF 6
