REMARK  Name = ZINC59461654
REMARK  5 active torsions:
REMARK  status: ('A' for Active; 'I' for Inactive)
REMARK    1  A    between atoms: C_4  and  C_7
REMARK    2  A    between atoms: C_10  and  N_13
REMARK    3  A    between atoms: N_13  and  N_14
REMARK    4  A    between atoms: C_16  and  C_32
REMARK    5  A    between atoms: C_23  and  C_26
REMARK                            x       y       z     vdW  Elec       q    Type
REMARK                         _______ _______ _______ _____ _____    ______ ____
ROOT
ATOM      1  N   UNL     1       7.357  -4.003  -0.098  0.00  0.00    -0.175 NA
ATOM      2  C   UNL     1       8.510  -4.644  -0.113  0.00  0.00    +0.173 C 
ATOM      3  C   UNL     1       8.728  -6.106  -0.134  0.00  0.00    +0.122 C 
ATOM      4  N   UNL     1      10.019  -6.307  -0.144  0.00  0.00    -0.168 NA
ATOM      5  N   UNL     1      10.719  -5.102  -0.132  0.00  0.00    -0.130 N 
ATOM      6  C   UNL     1       9.861  -4.062  -0.119  0.00  0.00    +0.294 C 
ATOM      7  O   UNL     1      10.148  -2.877  -0.111  0.00  0.00    -0.266 OA
ATOM      8  C   UNL     1      12.105  -4.988  -0.137  0.00  0.00    +0.189 A 
ATOM      9  N   UNL     1      13.021  -5.938  -0.160  0.00  0.00    -0.223 NA
ATOM     10  C   UNL     1      14.313  -5.649  -0.162  0.00  0.00    +0.080 A 
ATOM     11  C   UNL     1      14.707  -4.339  -0.139  0.00  0.00    +0.077 A 
ATOM     12  S   UNL     1      13.120  -3.516  -0.122  0.00  0.00    -0.058 S 
ENDROOT
BRANCH  10  13
ATOM     13  C   UNL     1      15.323  -6.734  -0.188  0.00  0.00    +0.001 A 
ATOM     14  C   UNL     1      16.683  -6.425  -0.183  0.00  0.00    +0.010 A 
ATOM     15  C   UNL     1      17.618  -7.439  -0.207  0.00  0.00    +0.001 A 
ATOM     16  C   UNL     1      17.210  -8.760  -0.236  0.00  0.00    +0.000 A 
ATOM     17  C   UNL     1      15.862  -9.073  -0.241  0.00  0.00    +0.001 A 
ATOM     18  C   UNL     1      14.918  -8.067  -0.211  0.00  0.00    +0.010 A 
ENDBRANCH  10  13
BRANCH   3  19
ATOM     19  C   UNL     1       7.677  -7.150  -0.142  0.00  0.00    +0.004 A 
ATOM     20  C   UNL     1       6.330  -6.788  -0.134  0.00  0.00    +0.010 A 
ATOM     21  C   UNL     1       5.356  -7.765  -0.141  0.00  0.00    +0.001 A 
ATOM     22  C   UNL     1       5.713  -9.102  -0.156  0.00  0.00    +0.000 A 
ATOM     23  C   UNL     1       7.047  -9.467  -0.163  0.00  0.00    +0.001 A 
ATOM     24  C   UNL     1       8.030  -8.499  -0.162  0.00  0.00    +0.010 A 
ENDBRANCH   3  19
BRANCH   1  25
ATOM     25  N   UNL     1       7.337  -2.713  -0.086  0.00  0.00    -0.237 N 
ATOM     26  H   UNL     1       8.169  -2.215  -0.088  0.00  0.00    +0.174 HD
BRANCH  25  30
ATOM     27  C   UNL     1       3.698  -0.688  -0.038  0.00  0.00    -0.018 A 
ATOM     28  C   UNL     1       4.895   0.027  -0.041  0.00  0.00    +0.010 A 
ATOM     29  C   UNL     1       6.098  -0.645  -0.056  0.00  0.00    +0.025 A 
ATOM     30  C   UNL     1       6.119  -2.036  -0.069  0.00  0.00    +0.048 A 
ATOM     31  C   UNL     1       4.926  -2.751  -0.067  0.00  0.00    +0.025 A 
ATOM     32  C   UNL     1       3.721  -2.083  -0.046  0.00  0.00    +0.010 A 
BRANCH  27  36
ATOM     33  C   UNL     1      -0.017   1.379   0.010  0.00  0.00    +0.000 A 
ATOM     34  C   UNL     1       1.169   2.092   0.002  0.00  0.00    +0.001 A 
ATOM     35  C   UNL     1       2.377   1.426  -0.013  0.00  0.00    +0.008 A 
ATOM     36  C   UNL     1       2.402   0.033  -0.021  0.00  0.00    -0.018 A 
ATOM     37  C   UNL     1       1.205  -0.680  -0.013  0.00  0.00    +0.008 A 
ATOM     38  C   UNL     1       0.002  -0.004   0.002  0.00  0.00    +0.001 A 
ENDBRANCH  27  36
ENDBRANCH  25  30
ENDBRANCH   1  25
TORSDOF 5
