REMARK  Name = ZINC09282632
REMARK  10 active torsions:
REMARK  status: ('A' for Active; 'I' for Inactive)
REMARK    1  A    between atoms: C_1  and  C_2
REMARK    2  A    between atoms: C_2  and  N_3
REMARK    3  A    between atoms: N_3  and  C_4
REMARK    4  A    between atoms: N_3  and  C_6
REMARK    5  A    between atoms: C_4  and  C_5
REMARK    6  A    between atoms: C_9  and  C_12
REMARK    7  A    between atoms: C_20  and  O_34
REMARK    8  A    between atoms: C_23  and  C_24
REMARK    9  A    between atoms: C_23  and  N_69
REMARK   10  A    between atoms: N_26  and  C_27
REMARK                            x       y       z     vdW  Elec       q    Type
REMARK                         _______ _______ _______ _____ _____    ______ ____
ROOT
ATOM      1  C   UNL     1      -6.484   4.125  -1.231  0.00  0.00    -0.031 C 
ATOM      2  C   UNL     1      -6.983   5.174  -0.237  0.00  0.00    +0.011 C 
ATOM      3  C   UNL     1      -7.761   4.498   0.892  0.00  0.00    +0.005 C 
ATOM      4  C   UNL     1      -8.259   5.564   1.872  0.00  0.00    +0.000 C 
ATOM      5  C   UNL     1      -7.066   6.325   2.454  0.00  0.00    +0.003 C 
ATOM      6  C   UNL     1      -6.280   6.992   1.323  0.00  0.00    +0.035 C 
ATOM      7  C   UNL     1      -5.782   5.920   0.353  0.00  0.00    +0.066 C 
ATOM      8  C   UNL     1      -4.990   6.570  -0.783  0.00  0.00    +0.016 C 
ATOM      9  C   UNL     1      -4.548   5.486  -1.770  0.00  0.00    -0.075 C 
ATOM     10  N   UNL     1      -5.745   4.810  -2.315  0.00  0.00    +0.390 N 
ATOM     11  H   UNL     1      -6.359   5.514  -2.742  0.00  0.00    -0.080 HD
ENDROOT
BRANCH   1  15
ATOM     12  C   UNL     1      -3.950   1.338   0.789  0.00  0.00    +0.030 A 
ATOM     13  C   UNL     1      -3.457   2.084  -0.274  0.00  0.00    +0.023 A 
ATOM     14  C   UNL     1      -4.279   2.979  -0.928  0.00  0.00    +0.004 A 
ATOM     15  C   UNL     1      -5.590   3.142  -0.519  0.00  0.00    -0.060 A 
ATOM     16  C   UNL     1      -6.084   2.406   0.542  0.00  0.00    +0.004 A 
ATOM     17  C   UNL     1      -5.268   1.504   1.198  0.00  0.00    +0.023 A 
BRANCH  12  18
ATOM     18  N   UNL     1      -3.122   0.428   1.450  0.00  0.00    -0.330 N 
BRANCH  18  20
ATOM     19  C   UNL     1      -1.663  -0.845  -0.044  0.00  0.00    +0.024 C 
ATOM     20  C   UNL     1      -1.733   0.254   1.018  0.00  0.00    +0.102 C 
ENDBRANCH  18  20
BRANCH  18  21
ATOM     21  C   UNL     1      -3.643  -0.353   2.575  0.00  0.00    +0.102 C 
ATOM     22  C   UNL     1      -3.411   0.413   3.879  0.00  0.00    +0.024 C 
ENDBRANCH  18  21
ENDBRANCH  12  18
ENDBRANCH   1  15
BRANCH   7  23
ATOM     23  O   UNL     1      -4.944   4.998   1.052  0.00  0.00    -0.388 OA
ATOM     24  H   UNL     1      -4.158   5.401   1.447  0.00  0.00    +0.210 HD
ENDBRANCH   7  23
BRANCH  10  25
ATOM     25  C   UNL     1      -5.346   3.833  -3.348  0.00  0.00    +0.020 C 
BRANCH  25  26
ATOM     26  C   UNL     1      -4.930   4.585  -4.587  0.00  0.00    +0.201 C 
ATOM     27  O   UNL     1      -4.949   5.797  -4.596  0.00  0.00    -0.278 OA
ATOM     28  N   UNL     1      -4.537   3.909  -5.685  0.00  0.00    -0.287 N 
ATOM     29  H   UNL     1      -4.588   2.940  -5.702  0.00  0.00    +0.155 HD
BRANCH  28  30
ATOM     30  C   UNL     1      -4.055   4.604  -6.800  0.00  0.00    +0.033 A 
ATOM     31  C   UNL     1      -4.601   5.835  -7.141  0.00  0.00    +0.025 A 
ATOM     32  C   UNL     1      -4.120   6.521  -8.239  0.00  0.00    +0.022 A 
ATOM     33  C   UNL     1      -3.104   5.979  -9.005  0.00  0.00    +0.041 A 
ATOM     34  C   UNL     1      -2.562   4.751  -8.670  0.00  0.00    +0.022 A 
ATOM     35  C   UNL     1      -3.035   4.062  -7.570  0.00  0.00    +0.025 A 
ATOM     36 CL   UNL     1      -2.507   6.842 -10.388  0.00  0.00    -0.084 Cl
ENDBRANCH  28  30
ENDBRANCH  25  26
ENDBRANCH  10  25
TORSDOF 8
