REMARK  Name = ZINC14888941
REMARK  13 active torsions:
REMARK  status: ('A' for Active; 'I' for Inactive)
REMARK    1  A    between atoms: C_1  and  C_2
REMARK    2  A    between atoms: C_2  and  C_3
REMARK    3  A    between atoms: C_2  and  C_4
REMARK    4  A    between atoms: C_4  and  C_5
REMARK    5  A    between atoms: C_5  and  C_6
REMARK    6  A    between atoms: C_6  and  C_17
REMARK    7  A    between atoms: N_9  and  C_13
REMARK    8  A    between atoms: C_13  and  C_14
REMARK    9  A    between atoms: C_14  and  N_74
REMARK   10  A    between atoms: C_15  and  N_74
REMARK   11  A    between atoms: C_16  and  N_74
REMARK   12  A    between atoms: C_23  and  C_25
REMARK   13  A    between atoms: C_29  and  C_31
REMARK                            x       y       z     vdW  Elec       q    Type
REMARK                         _______ _______ _______ _____ _____    ______ ____
ROOT
ATOM      1  C   UNL     1      -8.733  -3.557  -2.520  0.00  0.00    +0.115 C 
ATOM      2  C   UNL     1      -8.155  -2.999  -3.806  0.00  0.00    +0.247 C 
ATOM      3  O   UNL     1      -7.017  -3.112  -4.207  0.00  0.00    -0.273 OA
ATOM      4  N   UNL     1      -9.171  -2.352  -4.411  0.00  0.00    -0.226 N 
ATOM      5  C   UNL     1     -10.298  -2.422  -3.694  0.00  0.00    +0.309 C 
ATOM      6  O   UNL     1     -11.349  -1.915  -4.034  0.00  0.00    -0.252 OA
ATOM      7  N   UNL     1     -10.139  -3.118  -2.553  0.00  0.00    -0.285 N 
ATOM      8  H   UNL     1     -10.818  -3.297  -1.884  0.00  0.00    +0.151 HD
ENDROOT
BRANCH   1   9
ATOM      9  C   UNL     1      -8.013  -2.967  -1.306  0.00  0.00    +0.024 C 
ATOM     10  C   UNL     1      -8.057  -1.440  -1.380  0.00  0.00    +0.025 C 
ATOM     11  C   UNL     1      -7.365  -0.853  -0.145  0.00  0.00    +0.108 C 
ATOM     12  N   UNL     1      -6.011  -1.414  -0.050  0.00  0.00    -0.298 N 
ATOM     13  C   UNL     1      -5.848  -2.874  -0.069  0.00  0.00    +0.108 C 
ATOM     14  C   UNL     1      -6.557  -3.438  -1.298  0.00  0.00    +0.025 C 
ATOM     15  C   UNL     1      -4.938  -0.604   0.046  0.00  0.00    +0.247 C 
ATOM     16  O   UNL     1      -5.089   0.600   0.116  0.00  0.00    -0.270 OA
BRANCH  15  17
ATOM     17  C   UNL     1      -3.576  -1.181   0.066  0.00  0.00    +0.038 A 
ATOM     18  C   UNL     1      -2.595  -0.689  -0.797  0.00  0.00    +0.013 A 
ATOM     19  C   UNL     1      -1.323  -1.227  -0.779  0.00  0.00    +0.001 A 
ATOM     20  C   UNL     1      -1.011  -2.249   0.094  0.00  0.00    +0.011 A 
ATOM     21  C   UNL     1      -1.984  -2.755   0.959  0.00  0.00    +0.018 A 
ATOM     22  C   UNL     1      -3.270  -2.216   0.947  0.00  0.00    +0.024 A 
BRANCH  21  23
ATOM     23  C   UNL     1      -1.650  -3.853   1.890  0.00  0.00    +0.135 A 
ATOM     24  C   UNL     1      -0.441  -4.464   2.002  0.00  0.00    +0.050 A 
ATOM     25  C   UNL     1      -0.573  -5.446   3.004  0.00  0.00    +0.042 A 
ATOM     26  C   UNL     1      -1.843  -5.386   3.450  0.00  0.00    +0.196 A 
ATOM     27  O   UNL     1      -2.491  -4.423   2.774  0.00  0.00    -0.463 OA
ENDBRANCH  21  23
ENDBRANCH  15  17
ENDBRANCH   1   9
BRANCH   1  28
ATOM     28  C   UNL     1      -8.643  -5.085  -2.508  0.00  0.00    +0.036 C 
BRANCH  28  29
ATOM     29  C   UNL     1      -9.369  -5.648  -3.731  0.00  0.00    +0.005 C 
BRANCH  29  31
ATOM     30  C   UNL     1     -10.040  -7.722  -2.509  0.00  0.00    +0.007 C 
ATOM     31  C   UNL     1      -9.279  -7.176  -3.719  0.00  0.00    -0.017 C 
ATOM     32  C   UNL     1      -9.896  -7.733  -5.003  0.00  0.00    +0.007 C 
ENDBRANCH  29  31
ENDBRANCH  28  29
ENDBRANCH   1  28
BRANCH   4  33
ATOM     33  C   UNL     1      -9.055  -1.655  -5.694  0.00  0.00    +0.099 C 
BRANCH  33  34
ATOM     34  C   UNL     1      -9.376  -2.627  -6.832  0.00  0.00    -0.060 C 
BRANCH  34  37
ATOM     35  C   UNL     1      -7.869  -1.534  -8.380  0.00  0.00    -0.097 C 
ATOM     36  C   UNL     1      -9.787  -2.753  -9.215  0.00  0.00    -0.097 C 
ATOM     37  N   UNL     1      -9.275  -1.905  -8.118  0.00  0.00    +0.377 N 
ATOM     38  H   UNL     1      -9.842  -1.050  -8.066  0.00  0.00    -0.083 HD
ENDBRANCH  34  37
ENDBRANCH  33  34
ENDBRANCH   4  33
TORSDOF 9
