REMARK  Name = ZINC36257357
REMARK  7 active torsions:
REMARK  status: ('A' for Active; 'I' for Inactive)
REMARK    1  A    between atoms: C_1  and  O_2
REMARK    2  A    between atoms: O_2  and  C_3
REMARK    3  A    between atoms: C_3  and  C_5
REMARK    4  A    between atoms: C_6  and  N_19
REMARK    5  A    between atoms: C_9  and  C_10
REMARK    6  A    between atoms: C_15  and  O_16
REMARK    7  A    between atoms: N_19  and  C_20
REMARK                            x       y       z     vdW  Elec       q    Type
REMARK                         _______ _______ _______ _____ _____    ______ ____
ROOT
ATOM      1  C   UNL     1      -1.023  -1.914  -0.245  0.00  0.00    +0.134 C 
ATOM      2  C   UNL     1      -2.323  -2.424  -0.320  0.00  0.00    +0.088 C 
ATOM      3  S   UNL     1      -2.096  -4.167  -0.604  0.00  0.00    -0.069 S 
ATOM      4  C   UNL     1      -0.316  -4.241  -0.627  0.00  0.00    +0.062 C 
ATOM      5  C   UNL     1       0.485  -5.322  -0.808  0.00  0.00    +0.030 C 
ATOM      6  C   UNL     1       0.071  -2.837  -0.408  0.00  0.00    +0.209 C 
ATOM      7  O   UNL     1       1.237  -2.482  -0.362  0.00  0.00    -0.286 OA
ENDROOT
BRANCH   5   8
ATOM      8  C   UNL     1       1.937  -5.198  -0.631  0.00  0.00    +0.018 A 
ATOM      9  C   UNL     1       2.455  -4.446   0.430  0.00  0.00    +0.011 A 
ATOM     10  C   UNL     1       3.819  -4.334   0.589  0.00  0.00    +0.001 A 
ATOM     11  C   UNL     1       4.681  -4.962  -0.296  0.00  0.00    +0.004 A 
ATOM     12  C   UNL     1       4.184  -5.707  -1.347  0.00  0.00    +0.046 A 
ATOM     13  C   UNL     1       2.815  -5.838  -1.522  0.00  0.00    +0.124 A 
BRANCH  13  14
ATOM     14  O   UNL     1       2.326  -6.575  -2.550  0.00  0.00    -0.506 OA
ATOM     15  H   UNL     1       2.185  -6.071  -3.363  0.00  0.00    +0.292 HD
ENDBRANCH  13  14
ENDBRANCH   5   8
BRANCH   1  16
ATOM     16  C   UNL     1      -0.782  -0.491  -0.016  0.00  0.00    +0.345 C 
ATOM     17  O   UNL     1      -1.721   0.271   0.118  0.00  0.00    -0.245 OA
BRANCH  16  19
ATOM     18  C   UNL     1       0.643   1.380   0.273  0.00  0.00    +0.280 C 
ATOM     19  O   UNL     1       0.481  -0.022   0.046  0.00  0.00    -0.464 OA
ENDBRANCH  16  19
ENDBRANCH   1  16
BRANCH   2  20
ATOM     20  N   UNL     1      -3.502  -1.739  -0.201  0.00  0.00    -0.307 N 
ATOM     21  H   UNL     1      -3.496  -0.772  -0.134  0.00  0.00    +0.153 HD
BRANCH  20  22
ATOM     22  C   UNL     1      -4.715  -2.434  -0.176  0.00  0.00    +0.050 A 
ATOM     23  C   UNL     1      -4.781  -3.699   0.395  0.00  0.00    +0.025 A 
ATOM     24  C   UNL     1      -5.981  -4.383   0.418  0.00  0.00    +0.002 A 
ATOM     25  C   UNL     1      -7.116  -3.810  -0.127  0.00  0.00    +0.002 A 
ATOM     26  C   UNL     1      -7.054  -2.552  -0.697  0.00  0.00    +0.022 A 
ATOM     27  C   UNL     1      -5.858  -1.859  -0.719  0.00  0.00    +0.062 A 
ATOM     28 CL   UNL     1      -5.783  -0.277  -1.428  0.00  0.00    -0.082 Cl
ENDBRANCH  20  22
ENDBRANCH   2  20
TORSDOF 6
