REMARK  Name = ZINC02367273
REMARK  10 active torsions:
REMARK  status: ('A' for Active; 'I' for Inactive)
REMARK    1  A    between atoms: C_1  and  C_2
REMARK    2  A    between atoms: C_9  and  O_20
REMARK    3  A    between atoms: C_10  and  C_13
REMARK    4  A    between atoms: C_14  and  C_15
REMARK    5  A    between atoms: C_14  and  C_17
REMARK    6  A    between atoms: O_20  and  C_21
REMARK    7  A    between atoms: C_24  and  C_27
REMARK    8  A    between atoms: C_27  and  C_28
REMARK    9  A    between atoms: C_27  and  C_29
REMARK   10  A    between atoms: C_27  and  C_30
REMARK                            x       y       z     vdW  Elec       q    Type
REMARK                         _______ _______ _______ _____ _____    ______ ____
ROOT
ATOM      1  C   UNL     1       2.796  -2.829  -0.949  0.00  0.00    +0.047 C 
ATOM      2  C   UNL     1       3.052  -1.395  -0.563  0.00  0.00    -0.007 A 
ATOM      3  C   UNL     1       4.325  -0.963  -0.333  0.00  0.00    +0.008 A 
ATOM      4  C   UNL     1       4.547   0.373   0.025  0.00  0.00    +0.019 A 
ATOM      5  C   UNL     1       3.503   1.225   0.142  0.00  0.00    +0.096 A 
ATOM      6  N   UNL     1       2.228   0.802  -0.085  0.00  0.00    -0.267 N 
ATOM      7  C   UNL     1       1.980  -0.495  -0.436  0.00  0.00    +0.147 A 
ATOM      8  N   UNL     1       0.739  -0.929  -0.662  0.00  0.00    -0.194 NA
ATOM      9  C   UNL     1      -0.308  -0.128  -0.558  0.00  0.00    +0.235 A 
ATOM     10  C   UNL     1      -0.116   1.228  -0.197  0.00  0.00    +0.103 A 
ATOM     11  C   UNL     1       1.208   1.679   0.042  0.00  0.00    +0.269 A 
ATOM     12  O   UNL     1       1.422   2.837   0.355  0.00  0.00    -0.266 OA
ENDROOT
BRANCH  10  13
ATOM     13  C   UNL     1      -1.209   2.106  -0.084  0.00  0.00    +0.042 C 
ATOM     14  C   UNL     1      -2.269   1.790   0.754  0.00  0.00    +0.114 C 
BRANCH  14  15
ATOM     15  C   UNL     1      -3.463   2.641   0.779  0.00  0.00    +0.252 C 
ATOM     16  O   UNL     1      -3.525   3.624   0.065  0.00  0.00    -0.270 OA
ATOM     17  N   UNL     1      -4.493   2.334   1.593  0.00  0.00    -0.325 N 
ATOM     18  H   UNL     1      -4.444   1.550   2.163  0.00  0.00    +0.145 HD
ATOM     19  H   UNL     1      -5.282   2.897   1.610  0.00  0.00    +0.145 HD
ENDBRANCH  14  15
BRANCH  14  20
ATOM     20  C   UNL     1      -2.197   0.633   1.595  0.00  0.00    +0.104 C 
ATOM     21  N   UNL     1      -2.139  -0.285   2.262  0.00  0.00    -0.191 NA
ENDBRANCH  14  20
ENDBRANCH  10  13
BRANCH   9  22
ATOM     22  O   UNL     1      -1.552  -0.600  -0.795  0.00  0.00    -0.437 OA
BRANCH  22  23
ATOM     23  C   UNL     1      -1.689  -1.921  -1.085  0.00  0.00    +0.130 A 
ATOM     24  C   UNL     1      -1.944  -2.324  -2.388  0.00  0.00    +0.046 A 
ATOM     25  C   UNL     1      -2.077  -3.667  -2.680  0.00  0.00    +0.008 A 
ATOM     26  C   UNL     1      -1.968  -4.609  -1.674  0.00  0.00    -0.042 A 
ATOM     27  C   UNL     1      -1.720  -4.210  -0.374  0.00  0.00    +0.008 A 
ATOM     28  C   UNL     1      -1.581  -2.868  -0.077  0.00  0.00    +0.046 A 
BRANCH  26  29
ATOM     29  C   UNL     1      -2.120  -6.074  -1.995  0.00  0.00    -0.013 C 
ATOM     30  C   UNL     1      -3.292  -6.652  -1.200  0.00  0.00    +0.015 C 
ATOM     31  C   UNL     1      -2.386  -6.243  -3.492  0.00  0.00    +0.015 C 
ATOM     32  C   UNL     1      -0.835  -6.814  -1.619  0.00  0.00    +0.015 C 
ENDBRANCH  26  29
ENDBRANCH  22  23
ENDBRANCH   9  22
TORSDOF 6
