REMARK  Name = ZINC17111542
REMARK  8 active torsions:
REMARK  status: ('A' for Active; 'I' for Inactive)
REMARK    1  A    between atoms: C_4  and  C_7
REMARK    2  A    between atoms: C_7  and  O_8
REMARK    3  A    between atoms: O_8  and  C_9
REMARK    4  A    between atoms: C_11  and  O_38
REMARK    5  A    between atoms: C_13  and  O_37
REMARK    6  A    between atoms: C_15  and  O_29
REMARK    7  A    between atoms: O_29  and  C_30
REMARK    8  A    between atoms: C_30  and  C_31
REMARK                            x       y       z     vdW  Elec       q    Type
REMARK                         _______ _______ _______ _____ _____    ______ ____
ROOT
ATOM      1  C   UNL     1      -1.428  -0.536   0.013  0.00  0.00    +0.181 C 
ATOM      2  C   UNL     1       0.002  -0.004   0.002  0.00  0.00    +0.177 C 
ATOM      3  C   UNL     1       0.698  -0.503  -1.270  0.00  0.00    +0.177 C 
ATOM      4  C   UNL     1      -0.019   0.128  -2.466  0.00  0.00    +0.181 C 
ATOM      5  C   UNL     1      -1.472  -0.277  -2.501  0.00  0.00    +0.184 C 
ATOM      6  C   UNL     1      -2.219  -0.001  -1.183  0.00  0.00    +0.184 C 
ATOM      7  O   UNL     1      -3.390  -0.854  -1.311  0.00  0.00    -0.340 OA
ATOM      8  C   UNL     1      -3.010  -1.917  -2.221  0.00  0.00    +0.171 C 
ATOM      9  O   UNL     1      -1.660  -1.692  -2.672  0.00  0.00    -0.340 OA
ATOM     10  C   UNL     1      -3.085  -3.263  -1.500  0.00  0.00    +0.065 C 
ATOM     11  C   UNL     1      -2.680  -4.381  -2.463  0.00  0.00    +0.005 C 
ATOM     12  C   UNL     1      -3.626  -4.386  -3.665  0.00  0.00    +0.000 C 
ATOM     13  C   UNL     1      -3.542  -3.039  -4.387  0.00  0.00    +0.005 C 
ATOM     14  C   UNL     1      -3.950  -1.920  -3.427  0.00  0.00    +0.065 C 
ENDROOT
BRANCH   3  15
ATOM     15  O   UNL     1       0.629  -1.929  -1.329  0.00  0.00    -0.386 OA
ATOM     16  H   UNL     1       1.052  -2.374  -0.582  0.00  0.00    +0.210 HD
ENDBRANCH   3  15
BRANCH   2  17
ATOM     17  O   UNL     1      -0.017   1.425   0.010  0.00  0.00    -0.386 OA
ATOM     18  H   UNL     1       0.861   1.830   0.004  0.00  0.00    +0.210 HD
ENDBRANCH   2  17
BRANCH   1  19
ATOM     19  O   UNL     1      -2.072  -0.128   1.222  0.00  0.00    -0.367 OA
BRANCH  19  20
ATOM     20  C   UNL     1      -1.924  -1.054   2.300  0.00  0.00    +0.195 C 
BRANCH  20  24
ATOM     21  C   UNL     1      -3.948   0.444   5.750  0.00  0.00    +0.000 A 
ATOM     22  C   UNL     1      -4.621  -0.359   4.849  0.00  0.00    +0.000 A 
ATOM     23  C   UNL     1      -3.966  -0.844   3.732  0.00  0.00    +0.006 A 
ATOM     24  C   UNL     1      -2.638  -0.525   3.517  0.00  0.00    -0.022 A 
ATOM     25  C   UNL     1      -1.964   0.274   4.422  0.00  0.00    +0.006 A 
ATOM     26  C   UNL     1      -2.620   0.762   5.536  0.00  0.00    +0.000 A 
ENDBRANCH  20  24
ENDBRANCH  19  20
ENDBRANCH   1  19
BRANCH   4  27
ATOM     27  O   UNL     1       0.620  -0.321  -3.663  0.00  0.00    -0.367 OA
BRANCH  27  28
ATOM     28  C   UNL     1       1.706   0.505  -4.086  0.00  0.00    +0.195 C 
BRANCH  28  29
ATOM     29  C   UNL     1       2.302  -0.059  -5.350  0.00  0.00    -0.022 A 
ATOM     30  C   UNL     1       3.336  -0.975  -5.279  0.00  0.00    +0.006 A 
ATOM     31  C   UNL     1       3.880  -1.495  -6.438  0.00  0.00    +0.000 A 
ATOM     32  C   UNL     1       3.396  -1.093  -7.669  0.00  0.00    +0.000 A 
ATOM     33  C   UNL     1       2.366  -0.174  -7.741  0.00  0.00    +0.000 A 
ATOM     34  C   UNL     1       1.820   0.343  -6.582  0.00  0.00    +0.006 A 
ENDBRANCH  28  29
ENDBRANCH  27  28
ENDBRANCH   4  27
TORSDOF 8
