REMARK  Name = ZINC53627429
REMARK  7 active torsions:
REMARK  status: ('A' for Active; 'I' for Inactive)
REMARK    1  A    between atoms: C_1  and  C_2
REMARK    2  A    between atoms: C_13  and  C_15
REMARK    3  A    between atoms: C_15  and  C_16
REMARK    4  A    between atoms: C_16  and  C_17
REMARK    5  A    between atoms: N_19  and  C_20
REMARK    6  A    between atoms: C_20  and  C_21
REMARK    7  A    between atoms: C_21  and  C_22
REMARK                            x       y       z     vdW  Elec       q    Type
REMARK                         _______ _______ _______ _____ _____    ______ ____
ROOT
ATOM      1  C   UNL     1      -0.019   1.526   0.010  0.00  0.00    +0.013 C 
ATOM      2  C   UNL     1       0.002  -0.004   0.002  0.00  0.00    +0.033 C 
ATOM      3  C   UNL     1       0.705  -0.489  -1.242  0.00  0.00    -0.001 A 
ATOM      4  C   UNL     1       0.467   0.174  -2.418  0.00  0.00    +0.019 A 
ATOM      5  C   UNL     1       1.086  -0.239  -3.595  0.00  0.00    +0.024 A 
ATOM      6  C   UNL     1       1.962  -1.341  -3.579  0.00  0.00    +0.139 A 
ATOM      7  C   UNL     1       2.193  -2.001  -2.382  0.00  0.00    +0.093 A 
ATOM      8  C   UNL     1       1.569  -1.575  -1.218  0.00  0.00    +0.139 A 
ATOM      9  O   UNL     1       1.841  -2.248  -0.065  0.00  0.00    -0.425 OA
ATOM     10  C   UNL     1       1.083  -1.967   1.014  0.00  0.00    +0.316 C 
ATOM     11  O   UNL     1       0.698  -2.836   1.760  0.00  0.00    -0.250 OA
ATOM     12  C   UNL     1       0.740  -0.510   1.245  0.00  0.00    +0.106 C 
ATOM     13  O   UNL     1       2.412  -1.516  -4.839  0.00  0.00    -0.459 OA
ATOM     14  C   UNL     1       1.882  -0.603  -5.670  0.00  0.00    +0.109 A 
ATOM     15  C   UNL     1       1.064   0.213  -4.985  0.00  0.00    +0.001 A 
ATOM     16  C   UNL     1       0.292   1.360  -5.581  0.00  0.00    +0.039 C 
ATOM     17  C   UNL     1       0.889   1.685  -6.956  0.00  0.00    +0.005 C 
ATOM     18  C   UNL     1       1.030   0.392  -7.765  0.00  0.00    +0.008 C 
ATOM     19  C   UNL     1       2.136  -0.475  -7.155  0.00  0.00    +0.075 C 
ENDROOT
BRANCH  12  20
ATOM     20  C   UNL     1       2.021   0.300   1.455  0.00  0.00    +0.024 C 
BRANCH  20  21
ATOM     21  C   UNL     1       2.686  -0.126   2.765  0.00  0.00    +0.096 C 
BRANCH  21  22
ATOM     22  C   UNL     1       3.947   0.671   2.971  0.00  0.00    +0.213 C 
ATOM     23  O   UNL     1       4.282   1.500   2.151  0.00  0.00    -0.276 OA
ATOM     24  N   UNL     1       4.704   0.465   4.066  0.00  0.00    -0.315 N 
ATOM     25  H   UNL     1       4.437  -0.198   4.723  0.00  0.00    +0.149 HD
BRANCH  24  26
ATOM     26  C   UNL     1       5.931   1.240   4.267  0.00  0.00    +0.110 C 
BRANCH  26  27
ATOM     27  C   UNL     1       6.596   0.814   5.577  0.00  0.00    +0.073 C 
BRANCH  27  28
ATOM     28  C   UNL     1       7.857   1.611   5.783  0.00  0.00    +0.035 A 
ATOM     29  N   UNL     1       7.986   2.761   6.515  0.00  0.00    -0.350 N 
ATOM     30  C   UNL     1       9.279   3.142   6.437  0.00  0.00    +0.171 A 
ATOM     31  N   UNL     1       9.925   2.282   5.698  0.00  0.00    -0.352 N 
ATOM     32  C   UNL     1       9.077   1.328   5.287  0.00  0.00    +0.105 A 
ATOM     33  H   UNL     1       7.280   3.216   7.000  0.00  0.00    +0.166 HD
ATOM     34  H   UNL     1      10.869   2.325   5.482  0.00  0.00    +0.166 HD
ENDBRANCH  27  28
ENDBRANCH  26  27
ENDBRANCH  24  26
ENDBRANCH  21  22
ENDBRANCH  20  21
ENDBRANCH  12  20
TORSDOF 6
