REMARK  Name = ZINC05621146
REMARK  7 active torsions:
REMARK  status: ('A' for Active; 'I' for Inactive)
REMARK    1  A    between atoms: C_1  and  C_2
REMARK    2  A    between atoms: C_2  and  C_16
REMARK    3  A    between atoms: N_3  and  N_4
REMARK    4  A    between atoms: C_5  and  C_7
REMARK    5  A    between atoms: C_19  and  O_22
REMARK    6  A    between atoms: O_22  and  C_23
REMARK    7  A    between atoms: C_23  and  C_24
REMARK                            x       y       z     vdW  Elec       q    Type
REMARK                         _______ _______ _______ _____ _____    ______ ____
ROOT
ATOM      1  C   UNL     1       0.002  -0.004   0.002  0.00  0.00    +0.068 C 
ATOM      2  C   UNL     1      -0.018   1.503   0.010  0.00  0.00    +0.063 C 
ATOM      3  N   UNL     1      -1.151   2.136   0.019  0.00  0.00    -0.184 NA
ENDROOT
BRANCH   2   4
ATOM      4  C   UNL     1       1.248   2.257   0.002  0.00  0.00    -0.002 A 
ATOM      5  C   UNL     1       2.469   1.577  -0.007  0.00  0.00    +0.013 A 
ATOM      6  C   UNL     1       3.650   2.287  -0.021  0.00  0.00    +0.046 A 
ATOM      7  C   UNL     1       3.629   3.675  -0.013  0.00  0.00    +0.121 A 
ATOM      8  C   UNL     1       2.418   4.356   0.002  0.00  0.00    +0.046 A 
ATOM      9  C   UNL     1       1.232   3.655   0.010  0.00  0.00    +0.013 A 
BRANCH   7  10
ATOM     10  O   UNL     1       4.796   4.370  -0.020  0.00  0.00    -0.483 OA
BRANCH  10  11
ATOM     11  C   UNL     1       6.005   3.609  -0.036  0.00  0.00    +0.324 C 
BRANCH  11  12
ATOM     12  C   UNL     1       7.187   4.543  -0.041  0.00  0.00    +0.248 C 
ATOM     13  O   UNL     1       7.012   5.743  -0.033  0.00  0.00    -0.272 OA
ATOM     14  N   UNL     1       8.440   4.045  -0.056  0.00  0.00    -0.327 N 
ATOM     15  H   UNL     1       8.580   3.085  -0.063  0.00  0.00    +0.145 HD
ATOM     16  H   UNL     1       9.201   4.646  -0.060  0.00  0.00    +0.145 HD
ENDBRANCH  11  12
ENDBRANCH  10  11
ENDBRANCH   7  10
ENDBRANCH   2   4
BRANCH   3  17
ATOM     17  N   UNL     1      -2.355   1.419   0.021  0.00  0.00    -0.203 N 
ATOM     18  C   UNL     1      -3.531   2.078   0.030  0.00  0.00    +0.263 C 
ATOM     19  O   UNL     1      -3.548   3.294   0.037  0.00  0.00    -0.268 OA
ATOM     20  H   UNL     1      -2.342   0.450   0.016  0.00  0.00    +0.178 HD
BRANCH  18  21
ATOM     21  C   UNL     1      -4.799   1.322   0.032  0.00  0.00    +0.042 A 
ATOM     22  C   UNL     1      -4.782  -0.075   0.018  0.00  0.00    +0.017 A 
ATOM     23  C   UNL     1      -5.967  -0.778   0.025  0.00  0.00    +0.050 A 
ATOM     24  C   UNL     1      -7.180  -0.103   0.035  0.00  0.00    +0.166 A 
ATOM     25  C   UNL     1      -7.204   1.292   0.043  0.00  0.00    +0.167 A 
ATOM     26  C   UNL     1      -6.019   2.003   0.042  0.00  0.00    +0.062 A 
ATOM     27  O   UNL     1      -8.505   1.705   0.051  0.00  0.00    -0.453 OA
ATOM     28  C   UNL     1      -9.274   0.561  -0.365  0.00  0.00    +0.466 C 
ATOM     29  O   UNL     1      -8.465  -0.560   0.038  0.00  0.00    -0.453 OA
ENDBRANCH  18  21
ENDBRANCH   3  17
TORSDOF 6
