REMARK  Name = ZINC24807741
REMARK  10 active torsions:
REMARK  status: ('A' for Active; 'I' for Inactive)
REMARK    1  A    between atoms: C_1  and  C_2
REMARK    2  A    between atoms: C_3  and  N_15
REMARK    3  A    between atoms: N_6  and  C_9
REMARK    4  A    between atoms: N_7  and  C_8
REMARK    5  A    between atoms: C_16  and  C_18
REMARK    6  A    between atoms: C_18  and  C_20
REMARK    7  A    between atoms: C_18  and  N_21
REMARK    8  A    between atoms: N_21  and  C_22
REMARK    9  A    between atoms: C_22  and  C_24
REMARK   10  A    between atoms: C_22  and  C_25
REMARK                            x       y       z     vdW  Elec       q    Type
REMARK                         _______ _______ _______ _____ _____    ______ ____
ROOT
ATOM      1  N   UNL     1       3.868   1.229   0.961  0.00  0.00    -0.281 N 
ATOM      2  C   UNL     1       2.522   1.205   0.888  0.00  0.00    +0.203 C 
ATOM      3  O   UNL     1       1.908   0.259   1.335  0.00  0.00    -0.277 OA
ATOM      4  H   UNL     1       4.430   2.045   0.482  0.00  0.00    +0.155 HD
ENDROOT
BRANCH   1   7
ATOM      5  C   UNL     1       6.029  -0.565  -0.274  0.00  0.00    +0.067 C 
ATOM      6  C   UNL     1       5.511  -0.599   1.140  0.00  0.00    +0.059 A 
ATOM      7  C   UNL     1       4.555   0.210   1.650  0.00  0.00    +0.121 A 
ATOM      8  C   UNL     1       4.371  -0.166   3.052  0.00  0.00    +0.293 A 
ATOM      9  O   UNL     1       3.596   0.341   3.843  0.00  0.00    -0.264 OA
ATOM     10  N   UNL     1       5.221  -1.184   3.300  0.00  0.00    -0.216 N 
ATOM     11  N   UNL     1       5.930  -1.454   2.125  0.00  0.00    -0.282 N 
ATOM     12  C   UNL     1       6.958  -2.487   1.971  0.00  0.00    +0.171 C 
BRANCH  10  13
ATOM     13  C   UNL     1       5.370  -1.850   4.521  0.00  0.00    +0.067 A 
ATOM     14  C   UNL     1       5.379  -3.238   4.560  0.00  0.00    +0.028 A 
ATOM     15  C   UNL     1       5.533  -3.892   5.767  0.00  0.00    +0.002 A 
ATOM     16  C   UNL     1       5.667  -3.167   6.936  0.00  0.00    +0.000 A 
ATOM     17  C   UNL     1       5.652  -1.784   6.902  0.00  0.00    +0.002 A 
ATOM     18  C   UNL     1       5.505  -1.124   5.697  0.00  0.00    +0.028 A 
ENDBRANCH  10  13
ENDBRANCH   1   7
BRANCH   2  19
ATOM     19  C   UNL     1       1.781   2.352   0.251  0.00  0.00    +0.014 C 
ATOM     20  C   UNL     1       2.087   3.643   1.013  0.00  0.00    -0.004 C 
BRANCH  19  21
ATOM     21  N   UNL     1       0.337   2.087   0.296  0.00  0.00    +0.391 N 
ATOM     22  H   UNL     1       0.158   1.009   0.169  0.00  0.00    -0.084 HD
ATOM     23  H   UNL     1      -0.066   2.414   1.266  0.00  0.00    -0.084 HD
BRANCH  21  24
ATOM     24  C   UNL     1      -0.364   2.810  -0.774  0.00  0.00    -0.042 C 
ATOM     25  C   UNL     1      -0.319   1.986  -2.062  0.00  0.00    -0.009 C 
BRANCH  24  26
ATOM     26  C   UNL     1      -1.799   3.035  -0.371  0.00  0.00    -0.043 A 
ATOM     27  C   UNL     1      -2.372   2.250   0.612  0.00  0.00    +0.005 A 
ATOM     28  C   UNL     1      -3.686   2.459   0.986  0.00  0.00    +0.020 A 
ATOM     29  C   UNL     1      -4.432   3.447   0.369  0.00  0.00    +0.042 A 
ATOM     30  C   UNL     1      -3.861   4.230  -0.619  0.00  0.00    +0.040 A 
ATOM     31  C   UNL     1      -2.544   4.023  -0.989  0.00  0.00    +0.044 A 
ATOM     32 CL   UNL     1      -1.827   5.004  -2.228  0.00  0.00    -0.083 Cl
ATOM     33 CL   UNL     1      -6.084   3.706   0.834  0.00  0.00    -0.083 Cl
ENDBRANCH  24  26
ENDBRANCH  21  24
ENDBRANCH  19  21
ENDBRANCH   2  19
TORSDOF 6
