REMARK  Name = ZINC58968214
REMARK  9 active torsions:
REMARK  status: ('A' for Active; 'I' for Inactive)
REMARK    1  A    between atoms: C_1  and  C_2
REMARK    2  A    between atoms: C_9  and  N_14
REMARK    3  A    between atoms: C_10  and  C_11
REMARK    4  A    between atoms: C_15  and  C_17
REMARK    5  A    between atoms: C_17  and  C_18
REMARK    6  A    between atoms: C_18  and  S_19
REMARK    7  A    between atoms: S_19  and  C_20
REMARK    8  A    between atoms: C_22  and  C_30
REMARK    9  A    between atoms: C_24  and  C_26
REMARK                            x       y       z     vdW  Elec       q    Type
REMARK                         _______ _______ _______ _____ _____    ______ ____
ROOT
ATOM      1  N   UNL     1       0.696  -5.847   2.434  0.00  0.00    -0.279 N 
ATOM      2  C   UNL     1       1.677  -6.096   3.324  0.00  0.00    +0.218 C 
ATOM      3  O   UNL     1       2.383  -5.191   3.716  0.00  0.00    -0.275 OA
ATOM      4  H   UNL     1       0.131  -6.571   2.120  0.00  0.00    +0.155 HD
ENDROOT
BRANCH   1  12
ATOM      5  C   UNL     1      -0.019   1.526   0.010  0.00  0.00    +0.008 C 
ATOM      6  C   UNL     1       0.002  -0.004   0.002  0.00  0.00    -0.009 C 
ATOM      7  C   UNL     1      -1.434  -0.537   0.019  0.00  0.00    +0.008 C 
ATOM      8  C   UNL     1      -1.433  -2.045  -0.237  0.00  0.00    +0.037 C 
ATOM      9  C   UNL     1      -0.464  -2.704   0.734  0.00  0.00    -0.023 A 
ATOM     10  C   UNL     1       0.485  -1.986   1.374  0.00  0.00    -0.004 A 
ATOM     11  S   UNL     1       1.343  -3.167   2.373  0.00  0.00    -0.077 S 
ATOM     12  C   UNL     1       0.492  -4.557   1.968  0.00  0.00    +0.084 A 
ATOM     13  C   UNL     1      -0.459  -4.119   1.061  0.00  0.00    +0.068 A 
ATOM     14  C   UNL     1       0.739  -0.515   1.248  0.00  0.00    +0.046 C 
BRANCH  13  15
ATOM     15  C   UNL     1      -1.421  -5.045   0.456  0.00  0.00    +0.244 C 
ATOM     16  O   UNL     1      -1.149  -5.611  -0.587  0.00  0.00    -0.270 OA
ATOM     17  N   UNL     1      -2.608  -5.271   1.055  0.00  0.00    -0.325 N 
ATOM     18  H   UNL     1      -2.825  -4.821   1.886  0.00  0.00    +0.145 HD
ATOM     19  H   UNL     1      -3.244  -5.884   0.655  0.00  0.00    +0.145 HD
ENDBRANCH  13  15
ENDBRANCH   1  12
BRANCH   2  20
ATOM     20  C   UNL     1       1.898  -7.498   3.830  0.00  0.00    +0.107 C 
BRANCH  20  21
ATOM     21  C   UNL     1       3.064  -7.504   4.821  0.00  0.00    +0.086 C 
BRANCH  21  22
ATOM     22  S   UNL     1       3.330  -9.192   5.431  0.00  0.00    -0.086 S 
BRANCH  22  23
ATOM     23  C   UNL     1       4.686  -9.034   6.545  0.00  0.00    +0.189 A 
ATOM     24  N   UNL     1       5.139 -10.111   7.167  0.00  0.00    -0.222 NA
ATOM     25  C   UNL     1       6.161 -10.025   8.015  0.00  0.00    +0.076 A 
ATOM     26  C   UNL     1       6.751  -8.778   8.239  0.00  0.00    +0.060 A 
ATOM     27  C   UNL     1       6.246  -7.679   7.568  0.00  0.00    +0.148 A 
ATOM     28  N   UNL     1       5.230  -7.840   6.735  0.00  0.00    -0.218 NA
BRANCH  25  29
ATOM     29  C   UNL     1       6.666 -11.233   8.711  0.00  0.00    +0.000 A 
ATOM     30  C   UNL     1       7.734 -11.133   9.601  0.00  0.00    +0.010 A 
ATOM     31  C   UNL     1       8.199 -12.261  10.246  0.00  0.00    +0.001 A 
ATOM     32  C   UNL     1       7.609 -13.489  10.011  0.00  0.00    +0.000 A 
ATOM     33  C   UNL     1       6.549 -13.595   9.128  0.00  0.00    +0.001 A 
ATOM     34  C   UNL     1       6.071 -12.473   8.481  0.00  0.00    +0.010 A 
ENDBRANCH  25  29
BRANCH  27  35
ATOM     35  C   UNL     1       6.850  -6.315   7.778  0.00  0.00    +0.434 C 
ATOM     36  F   UNL     1       7.878  -6.112   6.851  0.00  0.00    -0.164 F 
ATOM     37  F   UNL     1       5.865  -5.337   7.603  0.00  0.00    -0.164 F 
ATOM     38  F   UNL     1       7.368  -6.229   9.075  0.00  0.00    -0.164 F 
ENDBRANCH  27  35
ENDBRANCH  22  23
ENDBRANCH  21  22
ENDBRANCH  20  21
ENDBRANCH   2  20
TORSDOF 8
