REMARK  Name = ZINC16038413
REMARK  7 active torsions:
REMARK  status: ('A' for Active; 'I' for Inactive)
REMARK    1  A    between atoms: C_1  and  C_2
REMARK    2  A    between atoms: C_2  and  C_3
REMARK    3  A    between atoms: C_2  and  C_4
REMARK    4  A    between atoms: C_2  and  C_5
REMARK    5  A    between atoms: C_5  and  C_7
REMARK    6  A    between atoms: C_9  and  C_32
REMARK    7  A    between atoms: C_32  and  C_34
REMARK                            x       y       z     vdW  Elec       q    Type
REMARK                         _______ _______ _______ _____ _____    ______ ____
ROOT
ATOM      1  C   UNL     1       1.193   2.141  -0.419  0.00  0.00    +0.153 C 
ATOM      2  C   UNL     1       1.654   0.808  -1.067  0.00  0.00    +0.109 C 
ATOM      3  C   UNL     1       0.354  -0.001  -1.262  0.00  0.00    +0.108 C 
ATOM      4  C   UNL     1       0.557  -1.456  -1.031  0.00  0.00    -0.008 A 
ATOM      5  C   UNL     1       0.997  -2.167   0.065  0.00  0.00    +0.006 A 
ATOM      6  C   UNL     1       1.067  -3.549  -0.062  0.00  0.00    +0.000 A 
ATOM      7  C   UNL     1       0.713  -4.182  -1.237  0.00  0.00    +0.002 A 
ATOM      8  C   UNL     1       0.271  -3.476  -2.345  0.00  0.00    +0.023 A 
ATOM      9  C   UNL     1       0.196  -2.087  -2.230  0.00  0.00    +0.038 A 
ATOM     10  N   UNL     1      -0.206  -1.149  -3.166  0.00  0.00    -0.284 N 
ATOM     11  C   UNL     1      -0.144   0.110  -2.679  0.00  0.00    +0.231 C 
ATOM     12  O   UNL     1      -0.432   1.131  -3.268  0.00  0.00    -0.274 OA
ATOM     13  C   UNL     1      -0.608   0.637  -0.265  0.00  0.00    +0.117 C 
ATOM     14  N   UNL     1      -0.265   2.080  -0.380  0.00  0.00    -0.311 N 
ATOM     15  C   UNL     1      -0.953   2.804   0.561  0.00  0.00    +0.038 A 
ATOM     16  C   UNL     1      -0.388   3.812   1.318  0.00  0.00    +0.024 A 
ATOM     17  C   UNL     1      -1.155   4.487   2.250  0.00  0.00    +0.002 A 
ATOM     18  C   UNL     1      -2.488   4.161   2.433  0.00  0.00    +0.001 A 
ATOM     19  C   UNL     1      -3.071   3.158   1.684  0.00  0.00    +0.010 A 
ATOM     20  C   UNL     1      -2.315   2.473   0.742  0.00  0.00    -0.004 A 
ATOM     21  C   UNL     1      -2.898   1.395  -0.090  0.00  0.00    +0.007 C 
ATOM     22  C   UNL     1      -2.061   0.474  -0.597  0.00  0.00    -0.003 C 
ATOM     23  H   UNL     1      -0.498  -1.370  -4.065  0.00  0.00    +0.155 HD
ENDROOT
BRANCH   1  24
ATOM     24  C   UNL     1       1.642   3.310  -1.258  0.00  0.00    +0.160 C 
ATOM     25  O   UNL     1       0.899   3.781  -2.085  0.00  0.00    -0.295 OA
BRANCH  24  27
ATOM     26  C   UNL     1       3.172   5.141  -1.933  0.00  0.00    +0.018 C 
ATOM     27  C   UNL     1       3.019   3.891  -1.064  0.00  0.00    +0.022 C 
ATOM     28  C   UNL     1       3.213   4.265   0.406  0.00  0.00    +0.018 C 
ATOM     29  C   UNL     1       4.071   2.856  -1.470  0.00  0.00    +0.018 C 
ENDBRANCH  24  27
ENDBRANCH   1  24
BRANCH   2  30
ATOM     30  C   UNL     1       2.596   0.075  -0.148  0.00  0.00    +0.170 C 
ATOM     31  O   UNL     1       2.534   0.252   1.051  0.00  0.00    -0.292 OA
BRANCH  30  32
ATOM     32  C   UNL     1       3.590  -0.854  -0.703  0.00  0.00    +0.021 A 
ATOM     33  C   UNL     1       3.704  -1.014  -2.089  0.00  0.00    +0.015 A 
ATOM     34  C   UNL     1       4.636  -1.885  -2.606  0.00  0.00    +0.050 A 
ATOM     35  C   UNL     1       5.467  -2.607  -1.757  0.00  0.00    +0.166 A 
ATOM     36  C   UNL     1       5.359  -2.452  -0.373  0.00  0.00    +0.167 A 
ATOM     37  C   UNL     1       4.430  -1.577   0.153  0.00  0.00    +0.061 A 
ATOM     38  O   UNL     1       6.277  -3.264   0.228  0.00  0.00    -0.453 OA
ATOM     39  C   UNL     1       6.665  -4.216  -0.779  0.00  0.00    +0.466 C 
ATOM     40  O   UNL     1       6.451  -3.513  -2.017  0.00  0.00    -0.453 OA
ENDBRANCH  30  32
ENDBRANCH   2  30
TORSDOF 4
