REMARK  Name = ZINC35397033
REMARK  13 active torsions:
REMARK  status: ('A' for Active; 'I' for Inactive)
REMARK    1  A    between atoms: C_1  and  C_2
REMARK    2  A    between atoms: C_2  and  C_3
REMARK    3  A    between atoms: C_3  and  C_5
REMARK    4  A    between atoms: C_3  and  N_15
REMARK    5  A    between atoms: C_5  and  N_6
REMARK    6  A    between atoms: N_6  and  C_7
REMARK    7  A    between atoms: N_6  and  C_8
REMARK    8  A    between atoms: C_8  and  C_9
REMARK    9  A    between atoms: C_16  and  C_18
REMARK   10  A    between atoms: C_18  and  C_19
REMARK   11  A    between atoms: C_19  and  C_20
REMARK   12  A    between atoms: C_20  and  N_21
REMARK   13  A    between atoms: N_32  and  C_35
REMARK                            x       y       z     vdW  Elec       q    Type
REMARK                         _______ _______ _______ _____ _____    ______ ____
ROOT
ATOM      1  N   UNL     1      -2.105  -0.148  -1.230  0.00  0.00    -0.314 N 
ATOM      2  C   UNL     1      -2.690   1.062  -1.334  0.00  0.00    +0.213 C 
ATOM      3  O   UNL     1      -2.659   1.832  -0.397  0.00  0.00    -0.276 OA
ATOM      4  H   UNL     1      -2.130  -0.764  -1.980  0.00  0.00    +0.149 HD
ENDROOT
BRANCH   1   5
ATOM      5  C   UNL     1      -1.433  -0.534   0.013  0.00  0.00    +0.056 C 
BRANCH   5   7
ATOM      6  C   UNL     1      -0.019   1.526   0.010  0.00  0.00    +0.005 C 
ATOM      7  C   UNL     1       0.002  -0.004   0.002  0.00  0.00    +0.017 C 
ENDBRANCH   5   7
BRANCH   5   8
ATOM      8  C   UNL     1      -1.413  -2.059   0.130  0.00  0.00    -0.056 C 
BRANCH   8   9
ATOM      9  N   UNL     1      -2.784  -2.577   0.020  0.00  0.00    +0.382 N 
ATOM     10  C   UNL     1      -3.577  -2.109   1.165  0.00  0.00    -0.096 C 
ATOM     11  H   UNL     1      -3.201  -2.244  -0.836  0.00  0.00    -0.082 HD
BRANCH   9  12
ATOM     12  C   UNL     1      -2.753  -4.045   0.013  0.00  0.00    -0.043 C 
BRANCH  12  13
ATOM     13  C   UNL     1      -4.144  -4.575  -0.223  0.00  0.00    -0.064 A 
ATOM     14  C   UNL     1      -4.980  -4.823   0.850  0.00  0.00    +0.002 A 
ATOM     15  C   UNL     1      -6.256  -5.309   0.633  0.00  0.00    +0.000 A 
ATOM     16  C   UNL     1      -6.696  -5.547  -0.655  0.00  0.00    +0.000 A 
ATOM     17  C   UNL     1      -5.860  -5.299  -1.728  0.00  0.00    +0.000 A 
ATOM     18  C   UNL     1      -4.586  -4.808  -1.512  0.00  0.00    +0.002 A 
ENDBRANCH  12  13
ENDBRANCH   9  12
ENDBRANCH   8   9
ENDBRANCH   5   8
ENDBRANCH   1   5
BRANCH   2  19
ATOM     19  C   UNL     1      -3.381   1.458  -2.613  0.00  0.00    +0.097 C 
BRANCH  19  20
ATOM     20  C   UNL     1      -3.955   2.869  -2.466  0.00  0.00    +0.031 C 
BRANCH  20  21
ATOM     21  C   UNL     1      -4.657   3.271  -3.765  0.00  0.00    +0.123 C 
BRANCH  21  22
ATOM     22  N   UNL     1      -5.207   4.622  -3.624  0.00  0.00    -0.335 N 
ATOM     23  C   UNL     1      -6.470   4.914  -3.154  0.00  0.00    +0.050 A 
ATOM     24  C   UNL     1      -7.519   4.113  -2.709  0.00  0.00    +0.026 A 
ATOM     25  C   UNL     1      -8.694   4.693  -2.287  0.00  0.00    +0.002 A 
ATOM     26  C   UNL     1      -8.847   6.072  -2.302  0.00  0.00    +0.001 A 
ATOM     27  C   UNL     1      -7.830   6.877  -2.735  0.00  0.00    +0.010 A 
ATOM     28  C   UNL     1      -6.631   6.310  -3.166  0.00  0.00    +0.009 A 
ATOM     29  C   UNL     1      -5.372   6.867  -3.679  0.00  0.00    +0.033 A 
ATOM     30  C   UNL     1      -4.534   5.782  -3.938  0.00  0.00    +0.118 A 
ATOM     31  C   UNL     1      -3.236   6.036  -4.442  0.00  0.00    +0.291 A 
ATOM     32  O   UNL     1      -2.477   5.111  -4.683  0.00  0.00    -0.264 OA
ATOM     33  N   UNL     1      -2.847   7.309  -4.653  0.00  0.00    -0.231 N 
ATOM     34  N   UNL     1      -3.707   8.377  -4.381  0.00  0.00    -0.176 NA
ATOM     35  C   UNL     1      -4.912   8.178  -3.924  0.00  0.00    +0.143 A 
ATOM     36  C   UNL     1      -1.504   7.577  -5.174  0.00  0.00    +0.176 C 
ENDBRANCH  21  22
ENDBRANCH  20  21
ENDBRANCH  19  20
ENDBRANCH   2  19
TORSDOF 10
