REMARK  Name = ZINC05931417
REMARK  6 active torsions:
REMARK  status: ('A' for Active; 'I' for Inactive)
REMARK    1  A    between atoms: C_1  and  C_2
REMARK    2  A    between atoms: C_2  and  C_3
REMARK    3  A    between atoms: C_3  and  C_5
REMARK    4  A    between atoms: C_3  and  S_6
REMARK    5  A    between atoms: S_6  and  C_7
REMARK    6  A    between atoms: C_14  and  C_24
REMARK                            x       y       z     vdW  Elec       q    Type
REMARK                         _______ _______ _______ _____ _____    ______ ____
ROOT
ATOM      1  C   UNL     1       0.852  -0.566   4.057  0.00  0.00    +0.172 A 
ATOM      2  N   UNL     1       0.444  -0.371   5.342  0.00  0.00    -0.322 N 
ATOM      3  C   UNL     1       1.240  -0.767   6.384  0.00  0.00    +0.111 A 
ATOM      4  C   UNL     1       2.437  -1.357   6.120  0.00  0.00    +0.069 A 
ATOM      5  C   UNL     1       2.826  -1.536   4.775  0.00  0.00    +0.280 A 
ATOM      6  N   UNL     1       2.008  -1.138   3.789  0.00  0.00    -0.185 NA
ATOM      7  O   UNL     1       3.900  -2.057   4.510  0.00  0.00    -0.265 OA
ATOM      8  C   UNL     1       3.333  -1.816   7.233  0.00  0.00    +0.094 C 
ATOM      9  C   UNL     1       2.953  -1.174   8.543  0.00  0.00    +0.024 C 
ATOM     10  C   UNL     1       3.891  -1.204   9.589  0.00  0.00    +0.162 C 
ATOM     11  C   UNL     1       3.578  -0.608  10.935  0.00  0.00    +0.080 C 
ATOM     12  C   UNL     1       2.065  -0.673  11.169  0.00  0.00    +0.014 C 
ATOM     13  C   UNL     1       1.365   0.052  10.017  0.00  0.00    +0.051 C 
ATOM     14  C   UNL     1       1.746  -0.592   8.707  0.00  0.00    +0.017 C 
ATOM     15  N   UNL     1       0.837  -0.569   7.684  0.00  0.00    -0.304 N 
ATOM     16  O   UNL     1       4.975  -1.720   9.404  0.00  0.00    -0.292 OA
ATOM     17  H   UNL     1      -0.100  -0.411   7.877  0.00  0.00    +0.153 HD
ATOM     18  H   UNL     1      -0.412   0.050   5.519  0.00  0.00    +0.169 HD
ENDROOT
BRANCH   8  19
ATOM     19  C   UNL     1       3.224  -3.313   7.368  0.00  0.00    -0.017 A 
ATOM     20  C   UNL     1       4.344  -4.115   7.213  0.00  0.00    +0.007 A 
ATOM     21  C   UNL     1       4.196  -5.487   7.346  0.00  0.00    +0.020 A 
ATOM     22  C   UNL     1       2.946  -6.006   7.627  0.00  0.00    +0.111 A 
ATOM     23  N   UNL     1       1.903  -5.213   7.767  0.00  0.00    -0.263 NA
ATOM     24  C   UNL     1       2.007  -3.903   7.654  0.00  0.00    +0.115 A 
ENDBRANCH   8  19
BRANCH   1  25
ATOM     25  S   UNL     1      -0.187  -0.052   2.730  0.00  0.00    -0.085 S 
BRANCH  25  26
ATOM     26  C   UNL     1       0.742  -0.511   1.242  0.00  0.00    +0.051 C 
ATOM     27  C   UNL     1       0.872  -2.034   1.171  0.00  0.00    +0.019 C 
BRANCH  26  29
ATOM     28  C   UNL     1      -0.019   1.526   0.010  0.00  0.00    +0.005 C 
ATOM     29  C   UNL     1       0.002  -0.004   0.002  0.00  0.00    +0.011 C 
ENDBRANCH  26  29
ENDBRANCH  25  26
ENDBRANCH   1  25
TORSDOF 4
