REMARK  Name = ZINC36698400
REMARK  9 active torsions:
REMARK  status: ('A' for Active; 'I' for Inactive)
REMARK    1  A    between atoms: C_1  and  C_2
REMARK    2  A    between atoms: C_7  and  C_8
REMARK    3  A    between atoms: N_11  and  C_12
REMARK    4  A    between atoms: C_12  and  C_14
REMARK    5  A    between atoms: C_18  and  N_20
REMARK    6  A    between atoms: N_20  and  S_21
REMARK    7  A    between atoms: S_21  and  C_24
REMARK    8  A    between atoms: N_30  and  C_31
REMARK    9  A    between atoms: C_31  and  C_32
REMARK                            x       y       z     vdW  Elec       q    Type
REMARK                         _______ _______ _______ _____ _____    ______ ____
ROOT
ATOM      1  C   UNL     1       0.081  -6.501  -2.713  0.00  0.00    +0.269 C 
ATOM      2  O   UNL     1       0.091  -6.802  -1.532  0.00  0.00    -0.268 OA
ENDROOT
BRANCH   1  13
ATOM      3  C   UNL     1      -0.018   1.503   0.010  0.00  0.00    +0.044 C 
ATOM      4  C   UNL     1       0.002  -0.004   0.002  0.00  0.00    -0.046 A 
ATOM      5  C   UNL     1       0.005  -0.673  -1.200  0.00  0.00    +0.030 A 
ATOM      6  C   UNL     1       0.025  -2.074  -1.237  0.00  0.00    +0.058 A 
ATOM      7  C   UNL     1       0.040  -2.744  -0.005  0.00  0.00    +0.039 A 
ATOM      8  C   UNL     1       0.037  -2.075   1.195  0.00  0.00    +0.020 A 
ATOM      9  C   UNL     1       0.023  -0.690   1.204  0.00  0.00    -0.046 A 
ATOM     10  C   UNL     1       0.024   0.062   2.510  0.00  0.00    +0.044 C 
ATOM     11  S   UNL     1       0.062  -4.454  -0.476  0.00  0.00    -0.052 S 
ATOM     12  C   UNL     1       0.051  -4.263  -2.146  0.00  0.00    +0.167 A 
ATOM     13  N   UNL     1       0.060  -5.214  -3.075  0.00  0.00    -0.152 NA
ATOM     14  N   UNL     1       0.031  -2.918  -2.332  0.00  0.00    -0.317 N 
BRANCH  14  15
ATOM     15  C   UNL     1       0.017  -2.364  -3.688  0.00  0.00    +0.151 C 
BRANCH  15  16
ATOM     16  C   UNL     1       1.433  -2.154  -4.159  0.00  0.00    -0.013 C 
ATOM     17  C   UNL     1       1.836  -2.694  -5.283  0.00  0.00    +0.005 C 
ENDBRANCH  15  16
ENDBRANCH  14  15
ENDBRANCH   1  13
BRANCH   1  18
ATOM     18  C   UNL     1       0.091  -7.561  -3.748  0.00  0.00    +0.041 A 
ATOM     19  C   UNL     1       0.085  -7.218  -5.101  0.00  0.00    +0.013 A 
ATOM     20  C   UNL     1       0.094  -8.206  -6.064  0.00  0.00    +0.003 A 
ATOM     21  C   UNL     1       0.109  -9.538  -5.693  0.00  0.00    +0.024 A 
ATOM     22  C   UNL     1       0.115  -9.890  -4.349  0.00  0.00    +0.049 A 
ATOM     23  C   UNL     1       0.112  -8.903  -3.374  0.00  0.00    +0.037 A 
BRANCH  22  24
ATOM     24  N   UNL     1       0.131 -11.237  -3.979  0.00  0.00    -0.216 N 
ATOM     25  H   UNL     1      -0.459 -11.554  -3.276  0.00  0.00    +0.174 HD
BRANCH  24  26
ATOM     26  S   UNL     1       1.155 -12.293  -4.739  0.00  0.00    +0.072 S 
ATOM     27  O   UNL     1       0.956 -13.561  -4.130  0.00  0.00    -0.150 OA
ATOM     28  O   UNL     1       0.990 -12.084  -6.135  0.00  0.00    -0.150 OA
BRANCH  26  29
ATOM     29  C   UNL     1       2.799 -11.797  -4.346  0.00  0.00    +0.108 A 
ATOM     30  C   UNL     1       3.459 -10.889  -5.153  0.00  0.00    +0.029 A 
ATOM     31  C   UNL     1       4.749 -10.500  -4.845  0.00  0.00    +0.002 A 
ATOM     32  C   UNL     1       5.380 -11.020  -3.730  0.00  0.00    +0.000 A 
ATOM     33  C   UNL     1       4.720 -11.928  -2.923  0.00  0.00    +0.002 A 
ATOM     34  C   UNL     1       3.428 -12.313  -3.229  0.00  0.00    +0.029 A 
ENDBRANCH  26  29
ENDBRANCH  24  26
ENDBRANCH  22  24
ENDBRANCH   1  18
TORSDOF 7
