REMARK  Name = ZINC06196030
REMARK  16 active torsions:
REMARK  status: ('A' for Active; 'I' for Inactive)
REMARK    1  A    between atoms: C_1  and  C_2
REMARK    2  A    between atoms: C_2  and  O_3
REMARK    3  A    between atoms: O_3  and  C_4
REMARK    4  A    between atoms: C_6  and  C_11
REMARK    5  A    between atoms: C_9  and  O_10
REMARK    6  A    between atoms: C_16  and  C_21
REMARK    7  A    between atoms: C_24  and  O_29
REMARK    8  A    between atoms: C_25  and  O_27
REMARK    9  A    between atoms: O_27  and  C_28
REMARK   10  A    between atoms: O_29  and  C_30
REMARK   11  A    between atoms: C_32  and  C_40
REMARK   12  A    between atoms: C_33  and  C_34
REMARK   13  A    between atoms: C_34  and  O_36
REMARK   14  A    between atoms: O_36  and  C_37
REMARK   15  A    between atoms: C_37  and  C_38
REMARK   16  A    between atoms: C_37  and  C_39
REMARK                            x       y       z     vdW  Elec       q    Type
REMARK                         _______ _______ _______ _____ _____    ______ ____
ROOT
ATOM      1  C   UNL     1      -0.013   1.086   0.008  0.00  0.00    +0.092 C 
ATOM      2  C   UNL     1       1.405   1.600  -0.003  0.00  0.00    +0.024 C 
ATOM      3  C   UNL     1       1.765   2.645   0.772  0.00  0.00    +0.016 C 
ATOM      4  C   UNL     1       3.178   3.174   0.757  0.00  0.00    +0.059 C 
ATOM      5  C   UNL     1       4.151   2.031   0.457  0.00  0.00    +0.032 C 
ATOM      6  C   UNL     1       3.772   1.411  -0.892  0.00  0.00    +0.088 C 
ATOM      7  C   UNL     1       2.337   0.962  -0.839  0.00  0.00    +0.162 C 
ATOM      8  O   UNL     1       1.978   0.030  -1.531  0.00  0.00    -0.292 OA
ATOM      9  N   UNL     1       0.851   3.248   1.594  0.00  0.00    -0.321 N 
ATOM     10  C   UNL     1      -0.299   2.601   1.950  0.00  0.00    +0.016 C 
ATOM     11  C   UNL     1      -0.749   1.562   1.226  0.00  0.00    +0.065 C 
ATOM     12  C   UNL     1      -1.069   3.057   3.163  0.00  0.00    +0.061 C 
ATOM     13  H   UNL     1       1.038   4.263   1.974  0.00  0.00    +0.152 HD
ENDROOT
BRANCH   1  16
ATOM     14  C   UNL     1      -1.890   1.121  -3.270  0.00  0.00    +0.162 A 
ATOM     15  C   UNL     1      -1.229   0.670  -2.139  0.00  0.00    +0.054 A 
ATOM     16  C   UNL     1      -0.727   1.578  -1.224  0.00  0.00    -0.032 A 
ATOM     17  C   UNL     1      -0.874   2.935  -1.441  0.00  0.00    +0.008 A 
ATOM     18  C   UNL     1      -1.528   3.391  -2.570  0.00  0.00    +0.049 A 
ATOM     19  C   UNL     1      -2.038   2.487  -3.488  0.00  0.00    +0.158 A 
BRANCH  19  20
ATOM     20  O   UNL     1      -2.681   2.934  -4.600  0.00  0.00    -0.503 OA
ATOM     21  H   UNL     1      -2.797   4.015  -4.771  0.00  0.00    +0.292 HD
ENDBRANCH  19  20
BRANCH  14  22
ATOM     22  O   UNL     1      -2.389   0.230  -4.168  0.00  0.00    -0.489 OA
BRANCH  22  24
ATOM     23  C   UNL     1      -2.825  -2.000  -4.993  0.00  0.00    +0.048 C 
ATOM     24  C   UNL     1      -2.201  -1.157  -3.879  0.00  0.00    +0.226 C 
ENDBRANCH  22  24
ENDBRANCH  14  22
ENDBRANCH   1  16
BRANCH   5  25
ATOM     25  C   UNL     1       5.557   2.568   0.391  0.00  0.00    -0.040 A 
ATOM     26  C   UNL     1       5.885   3.531  -0.545  0.00  0.00    +0.008 A 
ATOM     27  C   UNL     1       7.172   4.031  -0.606  0.00  0.00    +0.049 A 
ATOM     28  C   UNL     1       8.141   3.558   0.265  0.00  0.00    +0.161 A 
ATOM     29  C   UNL     1       7.812   2.585   1.204  0.00  0.00    +0.162 A 
ATOM     30  C   UNL     1       6.519   2.092   1.263  0.00  0.00    +0.053 A 
BRANCH  29  31
ATOM     31  O   UNL     1       8.759   2.118   2.061  0.00  0.00    -0.491 OA
ATOM     32  C   UNL     1       8.351   1.119   2.998  0.00  0.00    +0.277 C 
ENDBRANCH  29  31
BRANCH  28  33
ATOM     33  O   UNL     1       9.409   4.044   0.202  0.00  0.00    -0.491 OA
ATOM     34  C   UNL     1       9.674   5.042  -0.786  0.00  0.00    +0.277 C 
ENDBRANCH  28  33
ENDBRANCH   5  25
BRANCH  11  35
ATOM     35  C   UNL     1      -1.938   0.904   1.619  0.00  0.00    +0.338 C 
ATOM     36  O   UNL     1      -2.544   1.281   2.605  0.00  0.00    -0.245 OA
BRANCH  35  37
ATOM     37  O   UNL     1      -2.400  -0.140   0.901  0.00  0.00    -0.459 OA
BRANCH  37  38
ATOM     38  C   UNL     1      -3.607  -0.757   1.356  0.00  0.00    +0.171 C 
ATOM     39  C   UNL     1      -4.365  -1.336   0.160  0.00  0.00    +0.052 C 
ATOM     40  C   UNL     1      -3.267  -1.881   2.337  0.00  0.00    +0.052 C 
ENDBRANCH  37  38
ENDBRANCH  35  37
ENDBRANCH  11  35
TORSDOF 10
