REMARK  Name = ZINC41107959
REMARK  6 active torsions:
REMARK  status: ('A' for Active; 'I' for Inactive)
REMARK    1  A    between atoms: C_4  and  C_7
REMARK    2  A    between atoms: C_13  and  C_14
REMARK    3  A    between atoms: N_16  and  C_23
REMARK    4  A    between atoms: C_23  and  C_24
REMARK    5  A    between atoms: C_24  and  O_25
REMARK    6  A    between atoms: O_25  and  C_26
REMARK                            x       y       z     vdW  Elec       q    Type
REMARK                         _______ _______ _______ _____ _____    ______ ____
ROOT
ATOM      1  C   UNL     1       4.747  -0.651  -1.700  0.00  0.00    +0.130 C 
ATOM      2  N   UNL     1       4.649  -1.802  -1.079  0.00  0.00    -0.164 NA
ATOM      3  N   UNL     1       5.703  -2.690  -1.060  0.00  0.00    -0.152 N 
ATOM      4  C   UNL     1       5.677  -3.988  -0.506  0.00  0.00    +0.153 C 
ATOM      5  N   UNL     1       4.575  -4.668  -0.322  0.00  0.00    -0.283 NA
ATOM      6  C   UNL     1       7.026  -4.505  -0.152  0.00  0.00    +0.081 C 
ATOM      7  C   UNL     1       7.223  -5.345   0.930  0.00  0.00    +0.026 C 
ATOM      8  C   UNL     1       8.148  -4.073  -1.018  0.00  0.00    +0.273 C 
ATOM      9  O   UNL     1       9.159  -4.749  -1.119  0.00  0.00    -0.268 OA
ATOM     10  N   UNL     1       8.019  -2.912  -1.692  0.00  0.00    -0.152 NA
ATOM     11  C   UNL     1       6.874  -2.279  -1.661  0.00  0.00    +0.181 C 
ATOM     12  S   UNL     1       6.414  -0.707  -2.342  0.00  0.00    -0.033 S 
ATOM     13  H   UNL     1       3.720  -4.284  -0.571  0.00  0.00    +0.188 HD
ENDROOT
BRANCH   7  14
ATOM     14  C   UNL     1       8.536  -5.674   1.339  0.00  0.00    +0.001 A 
ATOM     15  C   UNL     1       9.648  -4.854   1.300  0.00  0.00    +0.095 A 
ATOM     16  N   UNL     1      10.717  -5.522   1.775  0.00  0.00    -0.343 N 
ATOM     17  C   UNL     1      10.367  -6.804   2.147  0.00  0.00    +0.050 A 
ATOM     18  C   UNL     1       8.994  -6.960   1.900  0.00  0.00    +0.007 A 
ATOM     19  C   UNL     1       8.364  -8.166   2.190  0.00  0.00    +0.010 A 
ATOM     20  C   UNL     1       9.094  -9.207   2.724  0.00  0.00    +0.001 A 
ATOM     21  C   UNL     1      10.450  -9.054   2.972  0.00  0.00    +0.002 A 
ATOM     22  C   UNL     1      11.087  -7.867   2.683  0.00  0.00    +0.026 A 
BRANCH  16  23
ATOM     23  C   UNL     1      12.068  -4.964   1.881  0.00  0.00    +0.163 C 
BRANCH  23  24
ATOM     24  C   UNL     1      12.876  -5.345   0.639  0.00  0.00    +0.250 C 
BRANCH  24  25
ATOM     25  O   UNL     1      14.193  -4.801   0.742  0.00  0.00    -0.490 OA
BRANCH  25  26
ATOM     26  C   UNL     1      15.046  -5.048  -0.287  0.00  0.00    +0.121 A 
ATOM     27  C   UNL     1      14.621  -5.795  -1.376  0.00  0.00    +0.045 A 
ATOM     28  C   UNL     1      15.490  -6.046  -2.421  0.00  0.00    +0.004 A 
ATOM     29  C   UNL     1      16.781  -5.553  -2.381  0.00  0.00    +0.000 A 
ATOM     30  C   UNL     1      17.206  -4.808  -1.296  0.00  0.00    +0.004 A 
ATOM     31  C   UNL     1      16.340  -4.550  -0.252  0.00  0.00    +0.045 A 
ENDBRANCH  25  26
ENDBRANCH  24  25
ENDBRANCH  23  24
ENDBRANCH  16  23
ENDBRANCH   7  14
BRANCH   1  35
ATOM     32  C   UNL     1       1.836   2.419  -2.101  0.00  0.00    +0.000 A 
ATOM     33  C   UNL     1       3.084   2.572  -2.679  0.00  0.00    +0.001 A 
ATOM     34  C   UNL     1       4.033   1.579  -2.553  0.00  0.00    +0.010 A 
ATOM     35  C   UNL     1       3.733   0.418  -1.839  0.00  0.00    +0.009 A 
ATOM     36  C   UNL     1       2.474   0.270  -1.258  0.00  0.00    +0.010 A 
ATOM     37  C   UNL     1       1.533   1.270  -1.393  0.00  0.00    +0.001 A 
ENDBRANCH   1  35
TORSDOF 6
