REMARK  Name = ZINC35729150
REMARK  11 active torsions:
REMARK  status: ('A' for Active; 'I' for Inactive)
REMARK    1  A    between atoms: C_1  and  C_2
REMARK    2  A    between atoms: C_2  and  C_3
REMARK    3  A    between atoms: C_2  and  C_4
REMARK    4  A    between atoms: C_2  and  C_5
REMARK    5  A    between atoms: C_8  and  S_11
REMARK    6  A    between atoms: S_11  and  N_14
REMARK    7  A    between atoms: C_18  and  C_20
REMARK    8  A    between atoms: C_26  and  C_28
REMARK    9  A    between atoms: C_31  and  N_34
REMARK   10  A    between atoms: N_34  and  C_35
REMARK   11  A    between atoms: N_34  and  C_36
REMARK                            x       y       z     vdW  Elec       q    Type
REMARK                         _______ _______ _______ _____ _____    ______ ____
ROOT
ATOM      1  N   UNL     1       3.257  -1.049  -5.977  0.00  0.00    -0.165 NA
ATOM      2  C   UNL     1       1.960  -1.320  -6.623  0.00  0.00    +0.110 C 
ATOM      3  C   UNL     1       1.328   0.076  -6.847  0.00  0.00    +0.019 C 
ATOM      4  C   UNL     1       2.573   0.927  -7.210  0.00  0.00    +0.031 C 
ATOM      5  C   UNL     1       3.677   0.318  -6.320  0.00  0.00    +0.166 C 
ENDROOT
BRANCH   5   6
ATOM      6  C   UNL     1       3.836   1.135  -5.064  0.00  0.00    +0.238 C 
ATOM      7  O   UNL     1       3.268   0.799  -4.046  0.00  0.00    -0.274 OA
ATOM      8  N   UNL     1       4.608   2.240  -5.072  0.00  0.00    -0.262 N 
ATOM      9  C   UNL     1       4.754   2.994  -3.913  0.00  0.00    +0.188 A 
ATOM     10  N   UNL     1       4.238   2.809  -2.705  0.00  0.00    -0.125 NA
ATOM     11  N   UNL     1       4.475   3.599  -1.751  0.00  0.00    -0.140 NA
ATOM     12  C   UNL     1       5.255   4.663  -1.899  0.00  0.00    +0.134 A 
ATOM     13  S   UNL     1       5.700   4.486  -3.624  0.00  0.00    -0.030 S 
ATOM     14  H   UNL     1       5.062   2.509  -5.886  0.00  0.00    +0.157 HD
BRANCH  12  15
ATOM     15  C   UNL     1       5.650   5.694  -0.917  0.00  0.00    +0.009 A 
ATOM     16  C   UNL     1       6.489   6.742  -1.302  0.00  0.00    +0.012 A 
ATOM     17  C   UNL     1       6.855   7.703  -0.385  0.00  0.00    +0.024 A 
ATOM     18  C   UNL     1       6.390   7.629   0.924  0.00  0.00    +0.029 A 
ATOM     19  C   UNL     1       5.555   6.587   1.311  0.00  0.00    +0.024 A 
ATOM     20  C   UNL     1       5.180   5.627   0.396  0.00  0.00    +0.012 A 
BRANCH  18  21
ATOM     21  N   UNL     1       6.763   8.604   1.851  0.00  0.00    -0.336 N 
ATOM     22  C   UNL     1       7.725   9.642   1.475  0.00  0.00    +0.129 C 
ATOM     23  C   UNL     1       6.192   8.588   3.200  0.00  0.00    +0.129 C 
ENDBRANCH  18  21
ENDBRANCH  12  15
ENDBRANCH   5   6
BRANCH   1  24
ATOM     24  S   UNL     1       4.098  -2.105  -5.019  0.00  0.00    +0.062 S 
ATOM     25  O   UNL     1       3.134  -2.946  -4.399  0.00  0.00    -0.153 OA
ATOM     26  O   UNL     1       5.023  -1.328  -4.272  0.00  0.00    -0.153 OA
BRANCH  24  30
ATOM     27  C   UNL     1       6.545  -4.747  -7.762  0.00  0.00    -0.042 A 
ATOM     28  C   UNL     1       7.037  -3.518  -7.365  0.00  0.00    +0.006 A 
ATOM     29  C   UNL     1       6.290  -2.711  -6.528  0.00  0.00    +0.029 A 
ATOM     30  C   UNL     1       5.050  -3.133  -6.087  0.00  0.00    +0.106 A 
ATOM     31  C   UNL     1       4.557  -4.362  -6.484  0.00  0.00    +0.029 A 
ATOM     32  C   UNL     1       5.302  -5.167  -7.325  0.00  0.00    +0.006 A 
BRANCH  27  34
ATOM     33  C   UNL     1       6.581  -5.881  -9.967  0.00  0.00    +0.015 C 
ATOM     34  C   UNL     1       7.360  -5.626  -8.675  0.00  0.00    -0.013 C 
ATOM     35  C   UNL     1       7.644  -6.959  -7.979  0.00  0.00    +0.015 C 
ATOM     36  C   UNL     1       8.682  -4.932  -9.005  0.00  0.00    +0.015 C 
ENDBRANCH  27  34
ENDBRANCH  24  30
ENDBRANCH   1  24
TORSDOF 6
