REMARK  Name = ZINC18155890
REMARK  4 active torsions:
REMARK  status: ('A' for Active; 'I' for Inactive)
REMARK    1  A    between atoms: C_3  and  C_8
REMARK    2  A    between atoms: C_8  and  C_10
REMARK    3  A    between atoms: C_10  and  C_11
REMARK    4  A    between atoms: C_17  and  N_22
REMARK                            x       y       z     vdW  Elec       q    Type
REMARK                         _______ _______ _______ _____ _____    ______ ____
ROOT
ATOM      1  C   UNL     1       6.101   2.410  -0.044  0.00  0.00    +0.133 A 
ATOM      2  C   UNL     1       7.503   1.954  -0.067  0.00  0.00    +0.359 A 
ATOM      3  O   UNL     1       7.821   0.860   0.360  0.00  0.00    -0.243 OA
ATOM      4  O   UNL     1       8.422   2.807  -0.583  0.00  0.00    -0.419 OA
ATOM      5  C   UNL     1       8.201   4.121  -0.328  0.00  0.00    +0.159 A 
ATOM      6  C   UNL     1       9.254   5.025  -0.326  0.00  0.00    +0.081 A 
ATOM      7  C   UNL     1       9.010   6.361  -0.084  0.00  0.00    +0.130 A 
ATOM      8  C   UNL     1       7.718   6.808   0.157  0.00  0.00    +0.035 A 
ATOM      9  C   UNL     1       6.670   5.934   0.166  0.00  0.00    +0.034 A 
ATOM     10  C   UNL     1       6.894   4.570  -0.069  0.00  0.00    +0.107 A 
ATOM     11  N   UNL     1       5.866   3.696  -0.035  0.00  0.00    -0.241 NA
ENDROOT
BRANCH   7  12
ATOM     12  N   UNL     1      10.134   7.324  -0.080  0.00  0.00    +0.057 N 
ATOM     13  O   UNL     1      11.261   6.939  -0.288  0.00  0.00    -0.126 OA
ATOM     14  O   UNL     1       9.925   8.496   0.132  0.00  0.00    -0.126 OA
ENDBRANCH   7  12
BRANCH   1  15
ATOM     15  C   UNL     1       4.966   1.418  -0.038  0.00  0.00    +0.142 C 
BRANCH  15  16
ATOM     16  C   UNL     1       3.653   2.157  -0.022  0.00  0.00    +0.169 C 
ATOM     17  O   UNL     1       3.639   3.369  -0.015  0.00  0.00    -0.292 OA
BRANCH  16  20
ATOM     18  C   UNL     1      -0.017   1.379   0.010  0.00  0.00    +0.002 A 
ATOM     19  C   UNL     1       1.166   2.089   0.002  0.00  0.00    +0.011 A 
ATOM     20  C   UNL     1       2.386   1.407  -0.013  0.00  0.00    +0.019 A 
ATOM     21  C   UNL     1       2.398   0.009  -0.021  0.00  0.00    +0.026 A 
ATOM     22  C   UNL     1       1.207  -0.687  -0.013  0.00  0.00    +0.019 A 
ATOM     23  C   UNL     1       0.002  -0.004   0.002  0.00  0.00    +0.015 A 
ATOM     24 BR   UNL     1       1.219  -2.578  -0.024  0.00  0.00    -0.050 Br
ENDBRANCH  16  20
ENDBRANCH  15  16
ENDBRANCH   1  15
TORSDOF 4
