REMARK  Name = ZINC43880731
REMARK  4 active torsions:
REMARK  status: ('A' for Active; 'I' for Inactive)
REMARK    1  A    between atoms: C_1  and  C_2
REMARK    2  A    between atoms: C_2  and  C_4
REMARK    3  A    between atoms: C_2  and  N_13
REMARK    4  A    between atoms: N_16  and  C_17
REMARK                            x       y       z     vdW  Elec       q    Type
REMARK                         _______ _______ _______ _____ _____    ______ ____
ROOT
ATOM      1  N   UNL     1       0.710  -0.495   1.187  0.00  0.00    -0.293 N 
ATOM      2  C   UNL     1       0.052  -0.632   2.356  0.00  0.00    +0.304 C 
ATOM      3  O   UNL     1      -1.129  -0.350   2.425  0.00  0.00    -0.252 OA
ATOM      4  N   UNL     1       0.703  -1.080   3.447  0.00  0.00    -0.269 N 
ATOM      5  H   UNL     1       1.652  -0.719   1.132  0.00  0.00    +0.151 HD
ATOM      6  H   UNL     1       1.627  -1.368   3.377  0.00  0.00    +0.156 HD
ENDROOT
BRANCH   4   7
ATOM      7  C   UNL     1       0.047  -1.130   4.682  0.00  0.00    +0.040 A 
ATOM      8  C   UNL     1       0.745  -0.864   5.852  0.00  0.00    +0.061 A 
ATOM      9  C   UNL     1       0.094  -0.914   7.072  0.00  0.00    +0.128 A 
ATOM     10  C   UNL     1      -1.253  -1.230   7.127  0.00  0.00    +0.076 A 
ATOM     11  C   UNL     1      -1.951  -1.497   5.961  0.00  0.00    +0.128 A 
ATOM     12  C   UNL     1      -1.305  -1.442   4.739  0.00  0.00    +0.061 A 
ATOM     13  F   UNL     1      -3.265  -1.806   6.017  0.00  0.00    -0.205 F 
ATOM     14  F   UNL     1       0.774  -0.655   8.211  0.00  0.00    -0.205 F 
ENDBRANCH   4   7
BRANCH   1  16
ATOM     15  C   UNL     1      -0.009   1.522   0.006  0.00  0.00    +0.033 C 
ATOM     16  C   UNL     1       0.002  -0.008   0.001  0.00  0.00    +0.102 C 
BRANCH  16  17
ATOM     17  C   UNL     1       0.701  -0.501  -1.239  0.00  0.00    -0.024 A 
ATOM     18  C   UNL     1       2.082  -0.531  -1.287  0.00  0.00    +0.009 A 
ATOM     19  C   UNL     1       2.728  -0.984  -2.422  0.00  0.00    +0.050 A 
ATOM     20  C   UNL     1       1.992  -1.409  -3.516  0.00  0.00    +0.166 A 
ATOM     21  C   UNL     1       0.600  -1.379  -3.468  0.00  0.00    +0.167 A 
ATOM     22  C   UNL     1      -0.041  -0.929  -2.325  0.00  0.00    +0.055 A 
ATOM     23  O   UNL     1       0.113  -1.842  -4.656  0.00  0.00    -0.453 OA
ATOM     24  C   UNL     1       1.216  -1.771  -5.578  0.00  0.00    +0.466 C 
ATOM     25  O   UNL     1       2.376  -1.891  -4.734  0.00  0.00    -0.453 OA
ENDBRANCH  16  17
ENDBRANCH   1  16
TORSDOF 3
