REMARK  Name = ZINC00861705
REMARK  8 active torsions:
REMARK  status: ('A' for Active; 'I' for Inactive)
REMARK    1  A    between atoms: C_1  and  O_2
REMARK    2  A    between atoms: O_2  and  C_3
REMARK    3  A    between atoms: C_8  and  O_9
REMARK    4  A    between atoms: O_9  and  C_10
REMARK    5  A    between atoms: C_14  and  N_16
REMARK    6  A    between atoms: N_16  and  C_17
REMARK    7  A    between atoms: C_20  and  S_23
REMARK    8  A    between atoms: S_23  and  N_26
REMARK                            x       y       z     vdW  Elec       q    Type
REMARK                         _______ _______ _______ _____ _____    ______ ____
ROOT
ATOM      1  C   UNL     1      -1.237   1.611  -0.364  0.00  0.00    +0.162 A 
ATOM      2  C   UNL     1      -0.048   0.935  -0.579  0.00  0.00    +0.050 A 
ATOM      3  C   UNL     1       1.163   1.602  -0.476  0.00  0.00    +0.013 A 
ATOM      4  C   UNL     1       1.190   2.937  -0.154  0.00  0.00    +0.029 A 
ATOM      5  C   UNL     1      -0.001   3.636   0.072  0.00  0.00    +0.112 A 
ATOM      6  C   UNL     1      -1.224   2.962  -0.032  0.00  0.00    +0.176 A 
ATOM      7  C   UNL     1       0.342   5.030   0.394  0.00  0.00    +0.345 C 
ATOM      8  O   UNL     1      -0.465   5.904   0.645  0.00  0.00    -0.245 OA
ATOM      9  O   UNL     1       1.675   5.199   0.372  0.00  0.00    -0.435 OA
ATOM     10  C   UNL     1       2.307   3.934   0.035  0.00  0.00    +0.296 C 
ENDROOT
BRANCH   1  12
ATOM     11  C   UNL     1      -2.362  -0.436  -0.812  0.00  0.00    +0.277 C 
ATOM     12  O   UNL     1      -2.421   0.951  -0.473  0.00  0.00    -0.491 OA
ENDBRANCH   1  12
BRANCH   6  13
ATOM     13  O   UNL     1      -2.389   3.624   0.183  0.00  0.00    -0.491 OA
ATOM     14  C   UNL     1      -3.005   4.239  -0.949  0.00  0.00    +0.277 C 
ENDBRANCH   6  13
BRANCH  10  15
ATOM     15  N   UNL     1       3.075   4.070  -1.206  0.00  0.00    -0.306 N 
ATOM     16  H   UNL     1       2.631   3.978  -2.063  0.00  0.00    +0.150 HD
BRANCH  15  17
ATOM     17  C   UNL     1       4.446   4.331  -1.153  0.00  0.00    +0.030 A 
ATOM     18  C   UNL     1       5.204   4.304  -2.317  0.00  0.00    +0.025 A 
ATOM     19  C   UNL     1       6.559   4.568  -2.262  0.00  0.00    +0.030 A 
ATOM     20  C   UNL     1       7.162   4.848  -1.050  0.00  0.00    +0.105 A 
ATOM     21  C   UNL     1       6.411   4.871   0.111  0.00  0.00    +0.030 A 
ATOM     22  C   UNL     1       5.055   4.613   0.063  0.00  0.00    +0.025 A 
BRANCH  20  23
ATOM     23  S   UNL     1       8.892   5.178  -0.984  0.00  0.00    +0.056 S 
ATOM     24  O   UNL     1       9.268   5.633  -2.277  0.00  0.00    -0.153 OA
ATOM     25  O   UNL     1       9.114   5.948   0.189  0.00  0.00    -0.153 OA
BRANCH  23  26
ATOM     26  N   UNL     1       9.658   3.728  -0.751  0.00  0.00    -0.204 NA
ATOM     27  H   UNL     1       9.139   2.912  -0.679  0.00  0.00    +0.144 HD
ATOM     28  H   UNL     1      10.625   3.696  -0.686  0.00  0.00    +0.144 HD
ENDBRANCH  23  26
ENDBRANCH  20  23
ENDBRANCH  15  17
ENDBRANCH  10  15
TORSDOF 6
