REMARK  Name = ZINC08918332
REMARK  3 active torsions:
REMARK  status: ('A' for Active; 'I' for Inactive)
REMARK    1  A    between atoms: C_1  and  C_2
REMARK    2  A    between atoms: C_7  and  C_8
REMARK    3  A    between atoms: N_24  and  C_27
REMARK                            x       y       z     vdW  Elec       q    Type
REMARK                         _______ _______ _______ _____ _____    ______ ____
ROOT
ATOM      1  C   UNL     1      -1.800  -2.582  -6.273  0.00  0.00    +0.044 C 
ATOM      2  C   UNL     1      -2.345  -2.273  -4.902  0.00  0.00    -0.046 A 
ATOM      3  C   UNL     1      -1.546  -1.636  -3.971  0.00  0.00    +0.004 A 
ATOM      4  C   UNL     1      -2.047  -1.353  -2.713  0.00  0.00    +0.005 A 
ATOM      5  C   UNL     1      -3.338  -1.706  -2.390  0.00  0.00    -0.027 A 
ATOM      6  C   UNL     1      -4.152  -2.347  -3.319  0.00  0.00    +0.039 A 
ATOM      7  C   UNL     1      -3.640  -2.628  -4.583  0.00  0.00    -0.026 A 
ATOM      8  C   UNL     1      -4.503  -3.321  -5.606  0.00  0.00    +0.046 C 
ATOM      9  N   UNL     1      -5.408  -2.601  -2.765  0.00  0.00    -0.286 N 
ATOM     10  C   UNL     1      -5.502  -2.165  -1.494  0.00  0.00    +0.212 C 
ATOM     11  O   UNL     1      -6.470  -2.250  -0.769  0.00  0.00    -0.277 OA
ATOM     12  C   UNL     1      -4.171  -1.552  -1.149  0.00  0.00    +0.053 C 
ATOM     13  C   UNL     1      -4.321  -0.079  -0.753  0.00  0.00    +0.089 C 
ATOM     14  C   UNL     1      -4.314  -0.085   0.800  0.00  0.00    +0.074 C 
ATOM     15  C   UNL     1      -4.158  -1.565   1.196  0.00  0.00    -0.054 C 
ATOM     16  C   UNL     1      -2.111  -1.883   0.073  0.00  0.00    -0.076 C 
ATOM     17  C   UNL     1      -1.760  -1.914   1.574  0.00  0.00    -0.020 C 
ATOM     18  C   UNL     1      -3.098  -1.686   2.306  0.00  0.00    -0.016 C 
ATOM     19  C   UNL     1      -3.047   0.664   1.146  0.00  0.00    +0.228 C 
ATOM     20  O   UNL     1      -2.652   0.890   2.270  0.00  0.00    -0.275 OA
ATOM     21  N   UNL     1      -2.430   1.039   0.020  0.00  0.00    -0.209 N 
ATOM     22  C   UNL     1      -3.060   0.679  -1.105  0.00  0.00    +0.229 C 
ATOM     23  O   UNL     1      -2.679   0.922  -2.229  0.00  0.00    -0.275 OA
ATOM     24  H   UNL     1      -6.130  -3.041  -3.241  0.00  0.00    +0.155 HD
ATOM     25  N   UNL     1      -3.560  -2.173   0.030  0.00  0.00    +0.395 N 
ATOM     26  H   UNL     1      -3.720  -3.187   0.022  0.00  0.00    -0.079 HD
ENDROOT
BRANCH  21  27
ATOM     27  C   UNL     1      -1.224   1.754   0.017  0.00  0.00    +0.058 A 
ATOM     28  C   UNL     1      -0.013   1.076   0.008  0.00  0.00    +0.025 A 
ATOM     29  C   UNL     1       1.174   1.783   0.000  0.00  0.00    +0.002 A 
ATOM     30  C   UNL     1       1.156   3.166   0.007  0.00  0.00    +0.001 A 
ATOM     31  C   UNL     1      -0.048   3.845   0.022  0.00  0.00    +0.017 A 
ATOM     32  C   UNL     1      -1.238   3.143   0.029  0.00  0.00    +0.040 A 
ATOM     33 BR   UNL     1      -2.885   4.072   0.048  0.00  0.00    -0.048 Br
ENDBRANCH  21  27
TORSDOF 1
