REMARK  Name = ZINC20255751
REMARK  12 active torsions:
REMARK  status: ('A' for Active; 'I' for Inactive)
REMARK    1  A    between atoms: C_1  and  C_2
REMARK    2  A    between atoms: C_3  and  C_38
REMARK    3  A    between atoms: C_11  and  C_12
REMARK    4  A    between atoms: N_17  and  C_20
REMARK    5  A    between atoms: C_20  and  C_21
REMARK    6  A    between atoms: C_21  and  O_22
REMARK    7  A    between atoms: O_22  and  C_23
REMARK    8  A    between atoms: C_27  and  C_29
REMARK    9  A    between atoms: C_29  and  N_30
REMARK   10  A    between atoms: N_30  and  C_31
REMARK   11  A    between atoms: N_30  and  C_32
REMARK   12  A    between atoms: C_32  and  C_33
REMARK                            x       y       z     vdW  Elec       q    Type
REMARK                         _______ _______ _______ _____ _____    ______ ____
ROOT
ATOM      1  C   UNL     1      -0.217   3.434   1.980  0.00  0.00    +0.249 C 
ATOM      2  O   UNL     1      -0.385   4.639   1.967  0.00  0.00    -0.270 OA
ATOM      3  N   UNL     1      -0.667   2.680   0.958  0.00  0.00    -0.295 N 
ATOM      4  C   UNL     1      -0.565   1.213   1.002  0.00  0.00    +0.123 C 
ATOM      5  C   UNL     1       0.094   0.732  -0.296  0.00  0.00    +0.103 C 
ATOM      6  N   UNL     1      -0.645   1.270  -1.446  0.00  0.00    -0.296 NA
ATOM      7  C   UNL     1      -0.586   2.738  -1.478  0.00  0.00    +0.103 C 
ATOM      8  C   UNL     1      -1.273   3.301  -0.229  0.00  0.00    +0.123 C 
ENDROOT
BRANCH   1  19
ATOM      9  C   UNL     1       4.731   3.047   5.788  0.00  0.00    +0.046 C 
ATOM     10  C   UNL     1       3.672   3.338   4.757  0.00  0.00    -0.022 A 
ATOM     11  C   UNL     1       3.719   4.288   3.809  0.00  0.00    +0.017 A 
ATOM     12  N   UNL     1       2.575   4.252   3.058  0.00  0.00    -0.357 N 
ATOM     13  H   UNL     1       2.439   4.963   2.230  0.00  0.00    +0.166 HD
ATOM     14  C   UNL     1       1.746   3.259   3.513  0.00  0.00    +0.059 A 
ATOM     15  C   UNL     1       2.393   2.640   4.597  0.00  0.00    +0.004 A 
ATOM     16  C   UNL     1       1.778   1.581   5.266  0.00  0.00    +0.010 A 
ATOM     17  C   UNL     1       0.534   1.142   4.864  0.00  0.00    +0.001 A 
ATOM     18  C   UNL     1      -0.116   1.744   3.802  0.00  0.00    +0.015 A 
ATOM     19  C   UNL     1       0.480   2.800   3.115  0.00  0.00    +0.061 A 
ATOM     20  C   UNL     1       4.861   5.249   3.603  0.00  0.00    +0.063 C 
ENDBRANCH   1  19
BRANCH   6  21
ATOM     21  C   UNL     1      -0.151   0.696  -2.704  0.00  0.00    +0.125 C 
BRANCH  21  22
ATOM     22  C   UNL     1      -0.494  -0.794  -2.754  0.00  0.00    +0.244 C 
BRANCH  22  23
ATOM     23  O   UNL     1      -1.913  -0.957  -2.778  0.00  0.00    -0.491 OA
BRANCH  23  24
ATOM     24  C   UNL     1      -2.388  -2.229  -2.822  0.00  0.00    +0.121 A 
ATOM     25  C   UNL     1      -1.506  -3.300  -2.848  0.00  0.00    +0.045 A 
ATOM     26  C   UNL     1      -1.991  -4.592  -2.888  0.00  0.00    +0.004 A 
ATOM     27  C   UNL     1      -3.355  -4.819  -2.913  0.00  0.00    +0.002 A 
ATOM     28  C   UNL     1      -4.236  -3.754  -2.893  0.00  0.00    -0.060 A 
ATOM     29  C   UNL     1      -3.756  -2.460  -2.848  0.00  0.00    +0.047 A 
BRANCH  28  30
ATOM     30  C   UNL     1      -5.722  -4.006  -2.921  0.00  0.00    -0.043 C 
BRANCH  30  31
ATOM     31  N   UNL     1      -6.185  -4.046  -4.314  0.00  0.00    +0.384 N 
ATOM     32  C   UNL     1      -6.041  -2.732  -4.955  0.00  0.00    -0.095 C 
ATOM     33  H   UNL     1      -5.552  -4.760  -4.861  0.00  0.00    -0.081 HD
BRANCH  31  34
ATOM     34  C   UNL     1      -7.573  -4.521  -4.394  0.00  0.00    -0.036 C 
BRANCH  34  35
ATOM     35  C   UNL     1      -7.933  -4.783  -5.833  0.00  0.00    -0.027 A 
ATOM     36  C   UNL     1      -7.797  -5.923  -6.553  0.00  0.00    +0.009 A 
ATOM     37  C   UNL     1      -8.203  -5.935  -7.874  0.00  0.00    +0.008 A 
ATOM     38  C   UNL     1      -8.715  -4.802  -8.414  0.00  0.00    +0.045 A 
ATOM     39  S   UNL     1      -8.641  -3.670  -7.036  0.00  0.00    -0.103 S 
ENDBRANCH  34  35
ENDBRANCH  31  34
ENDBRANCH  30  31
ENDBRANCH  28  30
ENDBRANCH  23  24
ENDBRANCH  22  23
ENDBRANCH  21  22
ENDBRANCH   6  21
TORSDOF 9
