REMARK  Name = ZINC20001192
REMARK  7 active torsions:
REMARK  status: ('A' for Active; 'I' for Inactive)
REMARK    1  A    between atoms: C_1  and  C_2
REMARK    2  A    between atoms: C_2  and  C_4
REMARK    3  A    between atoms: C_2  and  N_13
REMARK    4  A    between atoms: N_13  and  C_14
REMARK    5  A    between atoms: N_13  and  S_15
REMARK    6  A    between atoms: S_15  and  C_18
REMARK    7  A    between atoms: C_23  and  N_24
REMARK                            x       y       z     vdW  Elec       q    Type
REMARK                         _______ _______ _______ _____ _____    ______ ____
ROOT
ATOM      1  N   UNL     1       0.744  -0.449  -1.234  0.00  0.00    -0.170 NA
ATOM      2  C   UNL     1       2.126  -0.132  -1.603  0.00  0.00    +0.132 C 
ENDROOT
BRANCH   1   3
ATOM      3  S   UNL     1      -0.141  -1.497  -2.163  0.00  0.00    +0.063 S 
ATOM      4  O   UNL     1       0.787  -2.392  -2.761  0.00  0.00    -0.153 OA
ATOM      5  O   UNL     1      -1.218  -1.947  -1.353  0.00  0.00    -0.153 OA
BRANCH   3   6
ATOM      6  C   UNL     1      -0.853  -0.559  -3.473  0.00  0.00    +0.136 A 
ATOM      7  C   UNL     1      -0.413   0.729  -3.719  0.00  0.00    +0.031 A 
ATOM      8  C   UNL     1      -0.972   1.465  -4.747  0.00  0.00    +0.002 A 
ATOM      9  C   UNL     1      -1.970   0.914  -5.529  0.00  0.00    +0.002 A 
ATOM     10  C   UNL     1      -2.408  -0.374  -5.284  0.00  0.00    +0.035 A 
ATOM     11  C   UNL     1      -1.847  -1.112  -4.258  0.00  0.00    +0.152 A 
BRANCH  11  12
ATOM     12  N   UNL     1      -2.313  -2.492  -3.999  0.00  0.00    +0.058 N 
ATOM     13  O   UNL     1      -3.267  -2.931  -4.598  0.00  0.00    -0.126 OA
ATOM     14  O   UNL     1      -1.740  -3.182  -3.187  0.00  0.00    -0.126 OA
ENDBRANCH  11  12
ENDBRANCH   3   6
ENDBRANCH   1   3
BRANCH   1  16
ATOM     15  C   UNL     1       0.256   1.683  -0.140  0.00  0.00    +0.033 C 
ATOM     16  C   UNL     1       0.144   0.160  -0.044  0.00  0.00    +0.132 C 
BRANCH  16  17
ATOM     17  C   UNL     1       0.870  -0.321   1.186  0.00  0.00    +0.098 A 
ATOM     18  N   UNL     1       2.155  -0.414   1.369  0.00  0.00    -0.242 NA
ATOM     19  C   UNL     1       2.686  -0.862   2.525  0.00  0.00    +0.079 A 
ATOM     20  C   UNL     1       4.036  -1.028   2.896  0.00  0.00    +0.029 A 
ATOM     21  C   UNL     1       4.362  -1.503   4.130  0.00  0.00    +0.002 A 
ATOM     22  C   UNL     1       3.387  -1.839   5.060  0.00  0.00    +0.001 A 
ATOM     23  C   UNL     1       2.053  -1.690   4.733  0.00  0.00    +0.017 A 
ATOM     24  C   UNL     1       1.714  -1.211   3.490  0.00  0.00    +0.039 A 
ATOM     25  S   UNL     1       0.202  -0.853   2.636  0.00  0.00    -0.070 S 
ENDBRANCH  16  17
ENDBRANCH   1  16
TORSDOF 5
