REMARK  Name = ZINC02098288
REMARK  4 active torsions:
REMARK  status: ('A' for Active; 'I' for Inactive)
REMARK    1  A    between atoms: C_11  and  C_32
REMARK    2  A    between atoms: N_19  and  C_23
REMARK    3  A    between atoms: C_23  and  C_24
REMARK    4  A    between atoms: C_24  and  C_25
REMARK                            x       y       z     vdW  Elec       q    Type
REMARK                         _______ _______ _______ _____ _____    ______ ____
ROOT
ATOM      1  C   UNL     1       5.237   4.337  -5.452  0.00  0.00    +0.001 A 
ATOM      2  C   UNL     1       5.010   3.030  -5.852  0.00  0.00    +0.002 A 
ATOM      3  C   UNL     1       4.606   2.046  -4.966  0.00  0.00    +0.026 A 
ATOM      4  C   UNL     1       4.434   2.426  -3.637  0.00  0.00    +0.047 A 
ATOM      5  C   UNL     1       4.667   3.765  -3.233  0.00  0.00    +0.003 A 
ATOM      6  C   UNL     1       5.074   4.740  -4.150  0.00  0.00    +0.010 A 
ATOM      7  C   UNL     1       4.397   3.808  -1.810  0.00  0.00    -0.015 A 
ATOM      8  C   UNL     1       4.036   2.560  -1.440  0.00  0.00    +0.046 A 
ATOM      9  N   UNL     1       4.054   1.727  -2.527  0.00  0.00    -0.356 N 
ATOM     10  H   UNL     1       3.832   0.783  -2.511  0.00  0.00    +0.166 HD
ATOM     11  C   UNL     1       3.672   2.183  -0.022  0.00  0.00    +0.154 C 
ATOM     12  N   UNL     1       3.514   3.438   0.743  0.00  0.00    -0.276 N 
ATOM     13  C   UNL     1       4.529   4.476   0.569  0.00  0.00    +0.167 C 
ATOM     14  C   UNL     1       4.483   4.989  -0.878  0.00  0.00    +0.069 C 
ATOM     15  C   UNL     1       4.314   5.616   1.512  0.00  0.00    +0.237 C 
ATOM     16  O   UNL     1       5.140   6.504   1.527  0.00  0.00    -0.274 OA
ATOM     17  N   UNL     1       3.274   5.718   2.337  0.00  0.00    -0.291 N 
ATOM     18  C   UNL     1       2.215   4.727   2.428  0.00  0.00    +0.203 C 
ATOM     19  C   UNL     1       2.469   3.550   1.544  0.00  0.00    +0.234 C 
ATOM     20  O   UNL     1       1.660   2.646   1.558  0.00  0.00    -0.274 OA
ENDROOT
BRANCH  11  21
ATOM     21  C   UNL     1       2.377   1.411  -0.013  0.00  0.00    -0.021 A 
ATOM     22  C   UNL     1       1.274   1.906  -0.683  0.00  0.00    +0.007 A 
ATOM     23  C   UNL     1       0.086   1.199  -0.676  0.00  0.00    +0.020 A 
ATOM     24  C   UNL     1       0.002  -0.004   0.002  0.00  0.00    +0.041 A 
ATOM     25  C   UNL     1       1.107  -0.499   0.672  0.00  0.00    +0.020 A 
ATOM     26  C   UNL     1       2.294   0.209   0.664  0.00  0.00    +0.007 A 
ATOM     27 CL   UNL     1      -1.489  -0.893   0.012  0.00  0.00    -0.084 Cl
ENDBRANCH  11  21
BRANCH  17  28
ATOM     28  C   UNL     1       3.192   6.897   3.203  0.00  0.00    +0.113 C 
BRANCH  28  29
ATOM     29  C   UNL     1       2.423   8.006   2.483  0.00  0.00    +0.054 C 
BRANCH  29  30
ATOM     30  C   UNL     1       2.339   9.219   3.373  0.00  0.00    -0.046 A 
ATOM     31  C   UNL     1       1.272   9.366   4.241  0.00  0.00    +0.006 A 
ATOM     32  C   UNL     1       1.197  10.476   5.061  0.00  0.00    +0.038 A 
ATOM     33  C   UNL     1       2.185  11.445   5.007  0.00  0.00    +0.123 A 
ATOM     34  C   UNL     1       3.250  11.298   4.134  0.00  0.00    +0.038 A 
ATOM     35  C   UNL     1       3.326  10.185   3.318  0.00  0.00    +0.006 A 
ATOM     36  F   UNL     1       2.110  12.532   5.806  0.00  0.00    -0.205 F 
ENDBRANCH  29  30
ENDBRANCH  28  29
ENDBRANCH  17  28
TORSDOF 4
