REMARK  Name = ZINC02448593
REMARK  8 active torsions:
REMARK  status: ('A' for Active; 'I' for Inactive)
REMARK    1  A    between atoms: C_1  and  C_2
REMARK    2  A    between atoms: C_2  and  C_3
REMARK    3  A    between atoms: C_3  and  O_4
REMARK    4  A    between atoms: O_4  and  C_5
REMARK    5  A    between atoms: C_5  and  C_7
REMARK    6  A    between atoms: N_18  and  C_21
REMARK    7  A    between atoms: C_19  and  N_20
REMARK    8  A    between atoms: C_25  and  C_27
REMARK                            x       y       z     vdW  Elec       q    Type
REMARK                         _______ _______ _______ _____ _____    ______ ____
ROOT
ATOM      1  C   UNL     1      -2.861  -2.091  -0.689  0.00  0.00    +0.126 A 
ATOM      2  C   UNL     1      -3.218  -1.594   0.651  0.00  0.00    +0.125 A 
ATOM      3  C   UNL     1      -2.110  -0.723   1.050  0.00  0.00    +0.167 A 
ATOM      4  N   UNL     1      -2.150  -0.118   2.218  0.00  0.00    -0.225 NA
ATOM      5  C   UNL     1      -3.194  -0.313   3.034  0.00  0.00    +0.092 A 
ATOM      6  C   UNL     1      -3.242   0.324   4.288  0.00  0.00    +0.030 A 
ATOM      7  C   UNL     1      -4.307   0.121   5.110  0.00  0.00    +0.002 A 
ATOM      8  C   UNL     1      -5.358  -0.712   4.730  0.00  0.00    +0.002 A 
ATOM      9  C   UNL     1      -5.347  -1.345   3.526  0.00  0.00    +0.030 A 
ATOM     10  C   UNL     1      -4.262  -1.160   2.648  0.00  0.00    +0.090 A 
ATOM     11  N   UNL     1      -4.241  -1.778   1.461  0.00  0.00    -0.241 NA
ATOM     12  N   UNL     1      -1.201  -0.723   0.009  0.00  0.00    -0.280 N 
ATOM     13  C   UNL     1      -1.632  -1.521  -1.007  0.00  0.00    +0.119 A 
ENDROOT
BRANCH  12  14
ATOM     14  C   UNL     1       0.002  -0.004   0.002  0.00  0.00    +0.050 A 
ATOM     15  C   UNL     1      -0.017   1.385   0.010  0.00  0.00    +0.026 A 
ATOM     16  C   UNL     1       1.171   2.090   0.002  0.00  0.00    +0.002 A 
ATOM     17  C   UNL     1       2.377   1.415  -0.013  0.00  0.00    +0.003 A 
ATOM     18  C   UNL     1       2.400   0.032  -0.021  0.00  0.00    -0.048 A 
ATOM     19  C   UNL     1       1.215  -0.679  -0.013  0.00  0.00    +0.029 A 
ATOM     20  C   UNL     1       3.717  -0.700  -0.037  0.00  0.00    +0.044 C 
ENDBRANCH  12  14
BRANCH  13  21
ATOM     21  N   UNL     1      -0.951  -1.734  -2.177  0.00  0.00    -0.343 N 
ATOM     22  H   UNL     1      -0.097  -1.300  -2.326  0.00  0.00    +0.144 HD
ATOM     23  H   UNL     1      -1.324  -2.318  -2.855  0.00  0.00    +0.144 HD
ENDBRANCH  13  21
BRANCH   1  24
ATOM     24  C   UNL     1      -3.620  -2.974  -1.495  0.00  0.00    +0.345 C 
ATOM     25  O   UNL     1      -3.452  -4.176  -1.404  0.00  0.00    -0.245 OA
BRANCH  24  26
ATOM     26  O   UNL     1      -4.529  -2.483  -2.363  0.00  0.00    -0.461 OA
BRANCH  26  27
ATOM     27  C   UNL     1      -5.258  -3.432  -3.144  0.00  0.00    +0.232 C 
BRANCH  27  29
ATOM     28  C   UNL     1      -7.015  -3.709  -4.899  0.00  0.00    +0.007 C 
ATOM     29  C   UNL     1      -6.234  -2.693  -4.063  0.00  0.00    +0.038 C 
ENDBRANCH  27  29
ENDBRANCH  26  27
ENDBRANCH  24  26
ENDBRANCH   1  24
TORSDOF 6
