REMARK  Name = ZINC36206158
REMARK  16 active torsions:
REMARK  status: ('A' for Active; 'I' for Inactive)
REMARK    1  A    between atoms: C_1  and  C_2
REMARK    2  A    between atoms: C_2  and  C_3
REMARK    3  A    between atoms: C_2  and  C_4
REMARK    4  A    between atoms: C_2  and  O_5
REMARK    5  A    between atoms: O_5  and  C_6
REMARK    6  A    between atoms: C_6  and  C_7
REMARK    7  A    between atoms: C_7  and  C_9
REMARK    8  A    between atoms: C_7  and  O_34
REMARK    9  A    between atoms: C_9  and  N_10
REMARK   10  A    between atoms: N_10  and  C_11
REMARK   11  A    between atoms: N_10  and  C_15
REMARK   12  A    between atoms: C_11  and  C_12
REMARK   13  A    between atoms: C_12  and  O_13
REMARK   14  A    between atoms: O_13  and  C_14
REMARK   15  A    between atoms: C_15  and  C_16
REMARK   16  A    between atoms: C_22  and  C_27
REMARK                            x       y       z     vdW  Elec       q    Type
REMARK                         _______ _______ _______ _____ _____    ______ ____
ROOT
ATOM      1  C   UNL     1       6.385  -1.674  -2.382  0.00  0.00    +0.094 A 
ATOM      2  N   UNL     1       7.697  -1.805  -2.058  0.00  0.00    -0.312 N 
ATOM      3  H   UNL     1       8.373  -1.453  -2.658  0.00  0.00    +0.170 HD
ATOM      4  C   UNL     1       8.078  -2.414  -0.920  0.00  0.00    +0.260 A 
ATOM      5  O   UNL     1       9.260  -2.524  -0.643  0.00  0.00    -0.267 OA
ATOM      6  C   UNL     1       7.074  -2.930  -0.039  0.00  0.00    +0.080 A 
ATOM      7  C   UNL     1       7.231  -3.621   1.235  0.00  0.00    +0.004 A 
ATOM      8  C   UNL     1       6.121  -4.023   1.900  0.00  0.00    +0.056 A 
ATOM      9  S   UNL     1       4.790  -3.490   0.840  0.00  0.00    -0.076 S 
ATOM     10  C   UNL     1       5.746  -2.748  -0.458  0.00  0.00    +0.116 A 
ATOM     11  N   UNL     1       5.446  -2.130  -1.597  0.00  0.00    -0.229 NA
ENDROOT
BRANCH   7  12
ATOM     12  C   UNL     1       8.580  -3.879   1.793  0.00  0.00    -0.016 A 
ATOM     13  C   UNL     1       9.567  -4.460   0.997  0.00  0.00    +0.010 A 
ATOM     14  C   UNL     1      10.821  -4.698   1.521  0.00  0.00    +0.020 A 
ATOM     15  C   UNL     1      11.101  -4.361   2.834  0.00  0.00    +0.041 A 
ATOM     16  C   UNL     1      10.124  -3.785   3.629  0.00  0.00    +0.020 A 
ATOM     17  C   UNL     1       8.869  -3.538   3.113  0.00  0.00    +0.010 A 
ATOM     18 CL   UNL     1      12.681  -4.663   3.487  0.00  0.00    -0.084 Cl
ENDBRANCH   7  12
BRANCH   1  19
ATOM     19  C   UNL     1       6.006  -0.984  -3.667  0.00  0.00    -0.003 C 
BRANCH  19  20
ATOM     20  N   UNL     1       4.546  -0.831  -3.728  0.00  0.00    +0.388 N 
ATOM     21  H   UNL     1       4.107  -1.728  -3.587  0.00  0.00    -0.081 HD
BRANCH  20  22
ATOM     22  C   UNL     1       4.107   0.099  -2.679  0.00  0.00    -0.044 C 
BRANCH  22  23
ATOM     23  C   UNL     1       2.579   0.117  -2.619  0.00  0.00    +0.124 C 
BRANCH  23  24
ATOM     24  O   UNL     1       2.063   0.723  -3.806  0.00  0.00    -0.391 OA
ATOM     25  H   UNL     1       2.353   1.635  -3.941  0.00  0.00    +0.210 HD
ENDBRANCH  23  24
BRANCH  23  26
ATOM     26  C   UNL     1       2.125   0.920  -1.398  0.00  0.00    +0.189 C 
BRANCH  26  27
ATOM     27  O   UNL     1       0.703   0.839  -1.277  0.00  0.00    -0.372 OA
BRANCH  27  29
ATOM     28  C   UNL     1       0.532   3.040  -0.294  0.00  0.00    +0.041 C 
ATOM     29  C   UNL     1       0.173   1.559  -0.162  0.00  0.00    +0.061 C 
ATOM     30  C   UNL     1       0.769   1.004   1.133  0.00  0.00    +0.041 C 
ATOM     31  C   UNL     1      -1.348   1.403  -0.131  0.00  0.00    +0.041 C 
ENDBRANCH  27  29
ENDBRANCH  26  27
ENDBRANCH  23  26
ENDBRANCH  22  23
ENDBRANCH  20  22
BRANCH  20  32
ATOM     32  C   UNL     1       4.164  -0.300  -5.043  0.00  0.00    -0.050 C 
BRANCH  32  33
ATOM     33  C   UNL     1       4.558  -1.301  -6.131  0.00  0.00    +0.141 C 
BRANCH  33  34
ATOM     34  O   UNL     1       3.800  -2.502  -5.971  0.00  0.00    -0.385 OA
ATOM     35  C   UNL     1       4.171  -3.548  -6.871  0.00  0.00    +0.193 C 
ENDBRANCH  33  34
ENDBRANCH  32  33
ENDBRANCH  20  32
ENDBRANCH  19  20
ENDBRANCH   1  19
TORSDOF 12
