REMARK  Name = ZINC63204565
REMARK  9 active torsions:
REMARK  status: ('A' for Active; 'I' for Inactive)
REMARK    1  A    between atoms: C_1  and  C_2
REMARK    2  A    between atoms: C_5  and  C_17
REMARK    3  A    between atoms: C_6  and  C_16
REMARK    4  A    between atoms: N_7  and  C_8
REMARK    5  A    between atoms: C_8  and  C_9
REMARK    6  A    between atoms: C_17  and  C_19
REMARK    7  A    between atoms: C_19  and  N_20
REMARK    8  A    between atoms: C_23  and  C_28
REMARK    9  A    between atoms: C_28  and  C_29
REMARK                            x       y       z     vdW  Elec       q    Type
REMARK                         _______ _______ _______ _____ _____    ______ ____
ROOT
ATOM      1  N   UNL     1       3.602  -2.599  -3.759  0.00  0.00    -0.217 N 
ATOM      2  C   UNL     1       4.742  -2.022  -4.188  0.00  0.00    +0.244 C 
ATOM      3  O   UNL     1       5.052  -0.854  -4.091  0.00  0.00    -0.273 OA
ATOM      4  C   UNL     1       5.555  -3.137  -4.814  0.00  0.00    +0.165 C 
ATOM      5  N   UNL     1       4.699  -4.324  -4.651  0.00  0.00    -0.287 N 
ATOM      6  C   UNL     1       3.584  -3.910  -4.021  0.00  0.00    +0.310 C 
ATOM      7  O   UNL     1       2.663  -4.646  -3.725  0.00  0.00    -0.252 OA
ATOM      8  H   UNL     1       4.900  -5.228  -4.938  0.00  0.00    +0.151 HD
ENDROOT
BRANCH   1   9
ATOM      9  C   UNL     1       2.518  -1.879  -3.085  0.00  0.00    +0.197 C 
BRANCH   9  10
ATOM     10  C   UNL     1       2.757  -1.892  -1.597  0.00  0.00    +0.178 C 
ATOM     11  O   UNL     1       3.738  -2.448  -1.143  0.00  0.00    -0.291 OA
BRANCH  10  15
ATOM     12  C   UNL     1       0.021   1.526   0.291  0.00  0.00    +0.028 C 
ATOM     13  C   UNL     1       0.019   0.001   0.175  0.00  0.00    +0.075 C 
ATOM     14  C   UNL     1       0.650  -0.439  -1.160  0.00  0.00    +0.062 C 
ATOM     15  C   UNL     1       1.847  -1.262  -0.736  0.00  0.00    +0.015 C 
ATOM     16  C   UNL     1       1.890  -1.286   0.612  0.00  0.00    +0.010 C 
ATOM     17  N   UNL     1       0.885  -0.593   1.203  0.00  0.00    -0.326 N 
ATOM     18  C   UNL     1       2.954  -2.016   1.390  0.00  0.00    +0.061 C 
BRANCH  17  19
ATOM     19  C   UNL     1       0.691  -0.455   2.648  0.00  0.00    +0.140 C 
BRANCH  19  20
ATOM     20  C   UNL     1      -0.182  -1.578   3.147  0.00  0.00    -0.030 A 
ATOM     21  C   UNL     1      -1.556  -1.424   3.176  0.00  0.00    +0.008 A 
ATOM     22  C   UNL     1      -2.357  -2.453   3.633  0.00  0.00    +0.038 A 
ATOM     23  C   UNL     1      -1.784  -3.638   4.062  0.00  0.00    +0.123 A 
ATOM     24  C   UNL     1      -0.408  -3.791   4.033  0.00  0.00    +0.038 A 
ATOM     25  C   UNL     1       0.391  -2.763   3.570  0.00  0.00    +0.008 A 
ATOM     26  F   UNL     1      -2.567  -4.644   4.509  0.00  0.00    -0.205 F 
ENDBRANCH  19  20
ENDBRANCH  17  19
ENDBRANCH  10  15
ENDBRANCH   9  10
ENDBRANCH   1   9
BRANCH   4  27
ATOM     27  C   UNL     1       5.808  -2.851  -6.296  0.00  0.00    +0.065 C 
BRANCH  27  28
ATOM     28  C   UNL     1       6.719  -3.910  -6.863  0.00  0.00    -0.039 C 
ATOM     29  C   UNL     1       6.350  -5.033  -7.519  0.00  0.00    -0.001 A 
ATOM     30  C   UNL     1       5.041  -5.586  -7.886  0.00  0.00    +0.010 A 
ATOM     31  C   UNL     1       4.989  -6.759  -8.557  0.00  0.00    +0.001 A 
ATOM     32  C   UNL     1       6.152  -7.459  -8.909  0.00  0.00    +0.002 A 
ATOM     33  C   UNL     1       7.390  -7.015  -8.607  0.00  0.00    +0.026 A 
ATOM     34  C   UNL     1       7.563  -5.791  -7.903  0.00  0.00    +0.043 A 
ATOM     35  N   UNL     1       8.639  -5.160  -7.500  0.00  0.00    -0.380 N 
ATOM     36  C   UNL     1       8.230  -3.927  -6.819  0.00  0.00    +0.144 C 
ATOM     37  H   UNL     1       9.553  -5.458  -7.633  0.00  0.00    +0.160 HD
ENDBRANCH  27  28
ENDBRANCH   4  27
TORSDOF 7
