REMARK  Name = ZINC39214886
REMARK  5 active torsions:
REMARK  status: ('A' for Active; 'I' for Inactive)
REMARK    1  A    between atoms: C_4  and  C_7
REMARK    2  A    between atoms: C_8  and  C_33
REMARK    3  A    between atoms: C_11  and  S_13
REMARK    4  A    between atoms: S_13  and  C_14
REMARK    5  A    between atoms: C_16  and  C_27
REMARK                            x       y       z     vdW  Elec       q    Type
REMARK                         _______ _______ _______ _____ _____    ______ ____
ROOT
ATOM      1  S   UNL     1       7.267   0.100  -1.903  0.00  0.00    -0.067 S 
ENDROOT
BRANCH   1   2
ATOM      2  C   UNL     1       8.495  -1.021  -1.178  0.00  0.00    +0.171 C 
ATOM      3  C   UNL     1       9.766  -0.912  -1.998  0.00  0.00    -0.009 C 
ATOM      4  C   UNL     1      10.928  -0.532  -1.321  0.00  0.00    +0.003 A 
ATOM      5  C   UNL     1      12.154  -0.407  -2.007  0.00  0.00    +0.030 A 
ATOM      6  C   UNL     1      13.271  -0.037  -1.323  0.00  0.00    +0.042 A 
ATOM      7  C   UNL     1      13.229   0.223   0.046  0.00  0.00    +0.022 A 
ATOM      8  C   UNL     1      12.075   0.119   0.762  0.00  0.00    +0.025 A 
ATOM      9  C   UNL     1      10.882  -0.259   0.120  0.00  0.00    +0.041 A 
ATOM     10  N   UNL     1       9.750  -0.360   0.825  0.00  0.00    -0.284 N 
ATOM     11  C   UNL     1       8.593  -0.710   0.298  0.00  0.00    +0.235 C 
ATOM     12  O   UNL     1       7.603  -0.781   1.002  0.00  0.00    -0.274 OA
ATOM     13 CL   UNL     1      14.777   0.116  -2.172  0.00  0.00    -0.084 Cl
ATOM     14  H   UNL     1       9.782  -0.167   1.775  0.00  0.00    +0.155 HD
BRANCH   3  15
ATOM     15  C   UNL     1       9.775  -1.184  -3.390  0.00  0.00    -0.020 A 
ATOM     16  C   UNL     1       9.483  -2.475  -3.860  0.00  0.00    +0.008 A 
ATOM     17  C   UNL     1       9.495  -2.728  -5.213  0.00  0.00    +0.001 A 
ATOM     18  C   UNL     1       9.793  -1.715  -6.110  0.00  0.00    +0.000 A 
ATOM     19  C   UNL     1      10.083  -0.439  -5.657  0.00  0.00    +0.001 A 
ATOM     20  C   UNL     1      10.071  -0.163  -4.308  0.00  0.00    +0.008 A 
ENDBRANCH   3  15
ENDBRANCH   1   2
BRANCH   1  25
ATOM     21  C   UNL     1       3.534   0.064  -0.706  0.00  0.00    +0.102 A 
ATOM     22  C   UNL     1       3.569  -0.944   0.278  0.00  0.00    +0.119 A 
ATOM     23  N   UNL     1       4.720  -1.560   0.528  0.00  0.00    -0.145 NA
ATOM     24  N   UNL     1       5.785  -1.240  -0.120  0.00  0.00    -0.122 NA
ATOM     25  C   UNL     1       5.775  -0.293  -1.051  0.00  0.00    +0.211 A 
ATOM     26  N   UNL     1       4.659   0.358  -1.354  0.00  0.00    -0.218 NA
BRANCH  21  30
ATOM     27  C   UNL     1      -0.084   2.108  -1.598  0.00  0.00    +0.000 A 
ATOM     28  C   UNL     1       1.092   2.822  -1.450  0.00  0.00    +0.001 A 
ATOM     29  C   UNL     1       2.270   2.164  -1.160  0.00  0.00    +0.010 A 
ATOM     30  C   UNL     1       2.273   0.777  -1.016  0.00  0.00    +0.003 A 
ATOM     31  C   UNL     1       1.085   0.063  -1.166  0.00  0.00    +0.010 A 
ATOM     32  C   UNL     1      -0.087   0.732  -1.456  0.00  0.00    +0.001 A 
ENDBRANCH  21  30
BRANCH  22  33
ATOM     33  C   UNL     1       2.342  -1.311   1.023  0.00  0.00    +0.004 A 
ATOM     34  C   UNL     1       1.503  -0.316   1.523  0.00  0.00    +0.010 A 
ATOM     35  C   UNL     1       0.361  -0.664   2.216  0.00  0.00    +0.001 A 
ATOM     36  C   UNL     1       0.048  -1.997   2.414  0.00  0.00    +0.000 A 
ATOM     37  C   UNL     1       0.877  -2.989   1.921  0.00  0.00    +0.001 A 
ATOM     38  C   UNL     1       2.018  -2.653   1.222  0.00  0.00    +0.010 A 
ENDBRANCH  22  33
ENDBRANCH   1  25
TORSDOF 5
