REMARK  Name = ZINC09713579
REMARK  6 active torsions:
REMARK  status: ('A' for Active; 'I' for Inactive)
REMARK    1  A    between atoms: C_1  and  C_2
REMARK    2  A    between atoms: C_5  and  C_8
REMARK    3  A    between atoms: C_11  and  C_32
REMARK    4  A    between atoms: C_14  and  C_16
REMARK    5  A    between atoms: C_16  and  N_64
REMARK    6  A    between atoms: C_19  and  C_22
REMARK                            x       y       z     vdW  Elec       q    Type
REMARK                         _______ _______ _______ _____ _____    ______ ____
ROOT
ATOM      1  C   UNL     1      -0.485   2.367   6.081  0.00  0.00    +0.137 C 
ATOM      2  C   UNL     1       0.479   1.829   7.157  0.00  0.00    +0.087 C 
ATOM      3  C   UNL     1       1.425   0.936   6.386  0.00  0.00    +0.075 C 
ATOM      4  N   UNL     1       1.095   0.935   5.137  0.00  0.00    -0.180 NA
ATOM      5  N   UNL     1      -0.002   1.741   4.840  0.00  0.00    -0.187 N 
ATOM      6  C   UNL     1      -0.538   1.914   3.615  0.00  0.00    +0.219 C 
ATOM      7  O   UNL     1      -1.501   2.638   3.471  0.00  0.00    -0.276 OA
ENDROOT
BRANCH   1  12
ATOM      8  C   UNL     1      -5.910   0.727   7.208  0.00  0.00    +0.044 C 
ATOM      9  C   UNL     1      -4.495   1.155   6.915  0.00  0.00    -0.050 A 
ATOM     10  C   UNL     1      -4.101   2.456   7.162  0.00  0.00    +0.004 A 
ATOM     11  C   UNL     1      -2.803   2.848   6.893  0.00  0.00    +0.006 A 
ATOM     12  C   UNL     1      -1.899   1.939   6.375  0.00  0.00    -0.025 A 
ATOM     13  C   UNL     1      -2.295   0.639   6.122  0.00  0.00    +0.006 A 
ATOM     14  C   UNL     1      -3.592   0.245   6.397  0.00  0.00    +0.004 A 
ENDBRANCH   1  12
BRANCH   3  15
ATOM     15  C   UNL     1       2.539   0.181   6.967  0.00  0.00    +0.035 A 
ATOM     16  C   UNL     1       3.445  -0.659   6.342  0.00  0.00    +0.017 A 
ATOM     17  C   UNL     1       4.417  -1.258   7.108  0.00  0.00    +0.008 A 
ATOM     18  C   UNL     1       4.453  -1.018   8.445  0.00  0.00    +0.046 A 
ATOM     19  S   UNL     1       3.079   0.100   8.667  0.00  0.00    -0.095 S 
ENDBRANCH   3  15
BRANCH   6  20
ATOM     20  C   UNL     1       0.059   1.209   2.425  0.00  0.00    +0.021 C 
BRANCH  20  26
ATOM     21  C   UNL     1      -0.013   1.086   0.008  0.00  0.00    -0.077 C 
ATOM     22  C   UNL     1      -0.752   1.593  -1.232  0.00  0.00    -0.008 C 
ATOM     23  C   UNL     1      -2.194   1.077  -1.207  0.00  0.00    +0.052 C 
ATOM     24  C   UNL     1      -2.872   1.544   0.085  0.00  0.00    -0.008 C 
ATOM     25  C   UNL     1      -2.071   1.038   1.287  0.00  0.00    -0.077 C 
ATOM     26  N   UNL     1      -0.701   1.589   1.216  0.00  0.00    +0.385 N 
ATOM     27  H   UNL     1      -0.756   2.613   1.166  0.00  0.00    -0.081 HD
BRANCH  23  28
ATOM     28  C   UNL     1      -2.945   1.622  -2.394  0.00  0.00    +0.111 A 
ATOM     29  N   UNL     1      -3.563   2.833  -2.437  0.00  0.00    -0.342 N 
ATOM     30  H   UNL     1      -3.600   3.506  -1.698  0.00  0.00    +0.167 HD
ATOM     31  C   UNL     1      -4.130   2.961  -3.689  0.00  0.00    +0.066 A 
ATOM     32  C   UNL     1      -4.873   3.951  -4.318  0.00  0.00    +0.028 A 
ATOM     33  C   UNL     1      -5.306   3.761  -5.612  0.00  0.00    +0.002 A 
ATOM     34  C   UNL     1      -5.006   2.588  -6.290  0.00  0.00    +0.002 A 
ATOM     35  C   UNL     1      -4.277   1.602  -5.687  0.00  0.00    +0.030 A 
ATOM     36  C   UNL     1      -3.826   1.773  -4.376  0.00  0.00    +0.089 A 
ATOM     37  N   UNL     1      -3.101   1.000  -3.527  0.00  0.00    -0.232 NA
ENDBRANCH  23  28
ENDBRANCH  20  26
ENDBRANCH   6  20
TORSDOF 5
