REMARK  Name = ZINC67381561
REMARK  7 active torsions:
REMARK  status: ('A' for Active; 'I' for Inactive)
REMARK    1  A    between atoms: C_1  and  C_2
REMARK    2  A    between atoms: C_6  and  C_7
REMARK    3  A    between atoms: N_9  and  N_10
REMARK    4  A    between atoms: N_13  and  C_14
REMARK    5  A    between atoms: C_14  and  C_15
REMARK    6  A    between atoms: C_15  and  C_17
REMARK    7  A    between atoms: C_15  and  N_22
REMARK                            x       y       z     vdW  Elec       q    Type
REMARK                         _______ _______ _______ _____ _____    ______ ____
ROOT
ATOM      1  N   UNL     1       2.927  -2.625   8.902  0.00  0.00    -0.218 N 
ATOM      2  C   UNL     1       1.756  -2.732   8.243  0.00  0.00    +0.316 C 
ATOM      3  O   UNL     1       0.961  -1.813   8.263  0.00  0.00    -0.251 OA
ATOM      4  N   UNL     1       1.467  -3.858   7.562  0.00  0.00    -0.299 N 
ATOM      5  H   UNL     1       3.135  -1.815   9.393  0.00  0.00    +0.174 HD
ATOM      6  H   UNL     1       2.102  -4.592   7.546  0.00  0.00    +0.150 HD
ENDROOT
BRANCH   1   9
ATOM      7  C   UNL     1       5.014  -3.578   9.539  0.00  0.00    +0.267 C 
ATOM      8  O   UNL     1       5.275  -2.561  10.154  0.00  0.00    -0.268 OA
ATOM      9  N   UNL     1       3.843  -3.685   8.880  0.00  0.00    -0.229 N 
ATOM     10  H   UNL     1       3.635  -4.496   8.389  0.00  0.00    +0.173 HD
BRANCH   7  16
ATOM     11  C   UNL     1       7.791  -3.658  10.947  0.00  0.00    +0.045 C 
ATOM     12  C   UNL     1       7.217  -4.779  10.119  0.00  0.00    -0.031 A 
ATOM     13  C   UNL     1       7.891  -5.960   9.920  0.00  0.00    +0.011 A 
ATOM     14  C   UNL     1       7.316  -6.928   9.165  0.00  0.00    +0.046 A 
ATOM     15  S   UNL     1       5.843  -6.267   8.700  0.00  0.00    -0.092 S 
ATOM     16  C   UNL     1       5.972  -4.687   9.515  0.00  0.00    +0.078 A 
ENDBRANCH   7  16
ENDBRANCH   1   9
BRANCH   4  17
ATOM     17  C   UNL     1       0.195  -3.975   6.845  0.00  0.00    +0.098 C 
BRANCH  17  18
ATOM     18  C   UNL     1       0.173  -5.284   6.054  0.00  0.00    +0.016 C 
BRANCH  18  19
ATOM     19  N   UNL     1       1.356  -5.353   5.187  0.00  0.00    +0.387 N 
ATOM     20  C   UNL     1       1.341  -4.223   4.250  0.00  0.00    -0.078 C 
ATOM     21  C   UNL     1       2.612  -4.244   3.399  0.00  0.00    -0.019 C 
ATOM     22  C   UNL     1       2.673  -5.558   2.615  0.00  0.00    -0.004 C 
ATOM     23  C   UNL     1       2.614  -6.731   3.598  0.00  0.00    -0.019 C 
ATOM     24  C   UNL     1       1.343  -6.618   4.442  0.00  0.00    -0.078 C 
ATOM     25  H   UNL     1       2.190  -5.306   5.753  0.00  0.00    -0.081 HD
ENDBRANCH  18  19
BRANCH  18  26
ATOM     26  C   UNL     1       0.183  -6.449   7.011  0.00  0.00    +0.093 A 
ATOM     27  C   UNL     1      -0.889  -7.174   7.379  0.00  0.00    +0.043 A 
ATOM     28  C   UNL     1      -0.427  -8.158   8.283  0.00  0.00    +0.041 A 
ATOM     29  C   UNL     1       0.899  -7.975   8.413  0.00  0.00    +0.195 A 
ATOM     30  O   UNL     1       1.264  -6.942   7.636  0.00  0.00    -0.469 OA
ENDBRANCH  18  26
ENDBRANCH  17  18
ENDBRANCH   4  17
TORSDOF 6
