REMARK  Name = ZINC08966807
REMARK  6 active torsions:
REMARK  status: ('A' for Active; 'I' for Inactive)
REMARK    1  A    between atoms: C_1  and  O_2
REMARK    2  A    between atoms: O_2  and  C_3
REMARK    3  A    between atoms: C_3  and  C_4
REMARK    4  A    between atoms: C_4  and  N_5
REMARK    5  A    between atoms: N_14  and  S_15
REMARK    6  A    between atoms: S_15  and  C_18
REMARK                            x       y       z     vdW  Elec       q    Type
REMARK                         _______ _______ _______ _____ _____    ______ ____
ROOT
ATOM      1  N   UNL     1      -0.639   1.541  -1.236  0.00  0.00    -0.314 N 
ATOM      2  C   UNL     1       0.148   1.851  -2.337  0.00  0.00    +0.094 A 
ATOM      3  C   UNL     1       1.550   1.786  -2.431  0.00  0.00    +0.151 A 
ATOM      4  C   UNL     1       2.197   2.128  -3.597  0.00  0.00    +0.078 A 
ATOM      5  C   UNL     1       1.491   2.546  -4.714  0.00  0.00    +0.127 A 
ATOM      6  C   UNL     1       0.108   2.609  -4.651  0.00  0.00    +0.055 A 
ATOM      7  C   UNL     1      -0.537   2.273  -3.484  0.00  0.00    +0.045 A 
ATOM      8  S   UNL     1      -2.243   2.235  -2.988  0.00  0.00    -0.048 S 
ATOM      9  C   UNL     1      -2.004   1.666  -1.313  0.00  0.00    +0.195 A 
ATOM     10  N   UNL     1      -2.901   1.429  -0.392  0.00  0.00    -0.103 NA
ATOM     11  F   UNL     1       2.141   2.878  -5.851  0.00  0.00    -0.205 F 
ATOM     12  F   UNL     1       2.271   1.382  -1.363  0.00  0.00    -0.203 F 
ENDROOT
BRANCH  10  13
ATOM     13  S   UNL     1      -4.508   1.656  -0.724  0.00  0.00    +0.101 S 
ATOM     14  O   UNL     1      -4.687   3.051  -0.929  0.00  0.00    -0.146 OA
ATOM     15  O   UNL     1      -4.860   0.691  -1.706  0.00  0.00    -0.146 OA
BRANCH  13  16
ATOM     16  C   UNL     1      -5.404   1.241   0.735  0.00  0.00    +0.113 A 
ATOM     17  C   UNL     1      -5.844  -0.054   0.930  0.00  0.00    +0.030 A 
ATOM     18  C   UNL     1      -6.543  -0.382   2.077  0.00  0.00    +0.022 A 
ATOM     19  C   UNL     1      -6.812   0.591   3.024  0.00  0.00    +0.041 A 
ATOM     20  C   UNL     1      -6.377   1.889   2.825  0.00  0.00    +0.022 A 
ATOM     21  C   UNL     1      -5.673   2.213   1.680  0.00  0.00    +0.030 A 
ATOM     22 CL   UNL     1      -7.697   0.182   4.461  0.00  0.00    -0.084 Cl
ENDBRANCH  13  16
ENDBRANCH  10  13
BRANCH   1  23
ATOM     23  C   UNL     1      -0.013   1.086   0.008  0.00  0.00    +0.152 C 
BRANCH  23  24
ATOM     24  C   UNL     1      -0.788   1.644   1.203  0.00  0.00    +0.181 C 
BRANCH  24  26
ATOM     25  C   UNL     1      -0.748   1.789   3.595  0.00  0.00    +0.194 C 
ATOM     26  O   UNL     1      -0.103   1.312   2.412  0.00  0.00    -0.381 OA
ENDBRANCH  24  26
ENDBRANCH  23  24
ENDBRANCH   1  23
TORSDOF 5
