REMARK  Name = ZINC13642397
REMARK  7 active torsions:
REMARK  status: ('A' for Active; 'I' for Inactive)
REMARK    1  A    between atoms: C_1  and  C_2
REMARK    2  A    between atoms: C_2  and  N_3
REMARK    3  A    between atoms: C_14  and  C_16
REMARK    4  A    between atoms: C_27  and  C_32
REMARK    5  A    between atoms: C_32  and  O_34
REMARK    6  A    between atoms: O_34  and  C_35
REMARK    7  A    between atoms: C_35  and  C_36
REMARK                            x       y       z     vdW  Elec       q    Type
REMARK                         _______ _______ _______ _____ _____    ______ ____
ROOT
ATOM      1  C   UNL     1      -0.767   8.924   0.055  0.00  0.00    +0.105 C 
ATOM      2  C   UNL     1      -0.746   9.572  -1.332  0.00  0.00    +0.029 C 
ATOM      3  C   UNL     1      -0.987   8.442  -2.376  0.00  0.00    +0.033 C 
ATOM      4  C   UNL     1       0.387   7.823  -2.547  0.00  0.00    -0.030 C 
ATOM      5  C   UNL     1       1.319   8.668  -2.179  0.00  0.00    -0.023 C 
ATOM      6  C   UNL     1       0.698   9.960  -1.707  0.00  0.00    +0.049 C 
ATOM      7  C   UNL     1       1.459  10.546  -0.560  0.00  0.00    -0.019 A 
ATOM      8  C   UNL     1       2.670  11.164  -0.816  0.00  0.00    +0.021 A 
ATOM      9  C   UNL     1       3.407  11.727   0.228  0.00  0.00    +0.059 A 
ATOM     10  C   UNL     1       2.921  11.668   1.538  0.00  0.00    +0.017 A 
ATOM     11  C   UNL     1       1.726  11.057   1.789  0.00  0.00    +0.024 A 
ATOM     12  C   UNL     1       0.991  10.493   0.748  0.00  0.00    +0.031 A 
ATOM     13  N   UNL     1      -0.223   9.873   1.032  0.00  0.00    -0.336 N 
ATOM     14  H   UNL     1      -0.698  10.064   1.855  0.00  0.00    +0.147 HD
ENDROOT
BRANCH   1  26
ATOM     15  N   UNL     1       2.595   4.386   0.071  0.00  0.00    -0.340 N 
ATOM     16  C   UNL     1       3.810   4.950   0.419  0.00  0.00    +0.050 A 
ATOM     17  C   UNL     1       5.076   4.404   0.607  0.00  0.00    +0.026 A 
ATOM     18  C   UNL     1       6.132   5.216   0.960  0.00  0.00    +0.002 A 
ATOM     19  C   UNL     1       5.945   6.579   1.137  0.00  0.00    +0.001 A 
ATOM     20  C   UNL     1       4.700   7.138   0.951  0.00  0.00    +0.010 A 
ATOM     21  C   UNL     1       3.623   6.329   0.594  0.00  0.00    +0.008 A 
ATOM     22  C   UNL     1       2.198   6.595   0.329  0.00  0.00    +0.008 A 
ATOM     23  C   UNL     1       1.614   5.359   0.012  0.00  0.00    +0.050 A 
ATOM     24  C   UNL     1       0.257   5.304  -0.289  0.00  0.00    +0.027 A 
ATOM     25  C   UNL     1      -0.501   6.455  -0.272  0.00  0.00    +0.007 A 
ATOM     26  C   UNL     1       0.077   7.675   0.041  0.00  0.00    -0.026 A 
ATOM     27  C   UNL     1       1.420   7.750   0.341  0.00  0.00    +0.016 A 
BRANCH  15  29
ATOM     28  C   UNL     1       2.005   2.249   1.103  0.00  0.00    +0.027 C 
ATOM     29  C   UNL     1       2.380   2.962  -0.197  0.00  0.00    +0.119 C 
ENDBRANCH  15  29
ENDBRANCH   1  26
BRANCH   9  30
ATOM     30  C   UNL     1       4.697  12.383  -0.051  0.00  0.00    +0.339 C 
ATOM     31  O   UNL     1       5.119  12.435  -1.190  0.00  0.00    -0.245 OA
BRANCH  30  32
ATOM     32  O   UNL     1       5.408  12.926   0.956  0.00  0.00    -0.461 OA
BRANCH  32  33
ATOM     33  C   UNL     1       6.669  13.556   0.608  0.00  0.00    +0.229 C 
ATOM     34  C   UNL     1       7.329  14.111   1.873  0.00  0.00    +0.048 C 
ENDBRANCH  32  33
ENDBRANCH  30  32
ENDBRANCH   9  30
TORSDOF 5
