REMARK  Name = ZINC44855841
REMARK  7 active torsions:
REMARK  status: ('A' for Active; 'I' for Inactive)
REMARK    1  A    between atoms: C_1  and  C_2
REMARK    2  A    between atoms: N_7  and  C_9
REMARK    3  A    between atoms: C_12  and  C_15
REMARK    4  A    between atoms: C_15  and  N_16
REMARK    5  A    between atoms: C_17  and  C_19
REMARK    6  A    between atoms: N_22  and  S_31
REMARK    7  A    between atoms: S_31  and  C_34
REMARK                            x       y       z     vdW  Elec       q    Type
REMARK                         _______ _______ _______ _____ _____    ______ ____
ROOT
ATOM      1  N   UNL     1       5.262  -5.904   3.525  0.00  0.00    -0.308 N 
ATOM      2  C   UNL     1       6.479  -6.436   3.753  0.00  0.00    +0.256 C 
ATOM      3  O   UNL     1       7.105  -6.931   2.840  0.00  0.00    -0.272 OA
ATOM      4  H   UNL     1       4.761  -5.509   4.256  0.00  0.00    +0.149 HD
ENDROOT
BRANCH   2   5
ATOM      5  C   UNL     1       7.062  -6.417   5.143  0.00  0.00    +0.277 C 
ATOM      6  C   UNL     1       7.321  -4.966   5.572  0.00  0.00    +0.185 C 
ATOM      7  N   UNL     1       7.933  -5.001   6.911  0.00  0.00    -0.200 N 
ATOM      8  C   UNL     1       8.918  -5.971   7.154  0.00  0.00    +0.094 A 
ATOM      9  C   UNL     1       9.726  -5.876   8.276  0.00  0.00    +0.048 A 
ATOM     10  C   UNL     1      10.693  -6.837   8.512  0.00  0.00    +0.043 A 
ATOM     11  C   UNL     1      10.854  -7.890   7.629  0.00  0.00    +0.024 A 
ATOM     12  C   UNL     1      10.051  -7.987   6.508  0.00  0.00    +0.049 A 
ATOM     13  C   UNL     1       9.080  -7.028   6.262  0.00  0.00    +0.144 A 
ATOM     14  O   UNL     1       8.300  -7.131   5.153  0.00  0.00    -0.476 OA
ATOM     15 CL   UNL     1      11.707  -6.720   9.917  0.00  0.00    -0.083 Cl
BRANCH   7  16
ATOM     16  S   UNL     1       7.476  -3.932   8.090  0.00  0.00    +0.043 S 
ATOM     17  O   UNL     1       6.214  -3.438   7.663  0.00  0.00    -0.155 OA
ATOM     18  O   UNL     1       7.596  -4.659   9.305  0.00  0.00    -0.155 OA
ATOM     19  C   UNL     1       8.717  -2.610   8.028  0.00  0.00    +0.218 C 
ENDBRANCH   7  16
ENDBRANCH   2   5
BRANCH   1  20
ATOM     20  C   UNL     1       4.696  -5.923   2.174  0.00  0.00    +0.139 C 
BRANCH  20  24
ATOM     21  C   UNL     1       0.843  -4.074   2.218  0.00  0.00    +0.030 A 
ATOM     22  C   UNL     1       1.979  -3.310   1.983  0.00  0.00    +0.023 A 
ATOM     23  C   UNL     1       3.222  -3.910   1.970  0.00  0.00    +0.007 A 
ATOM     24  C   UNL     1       3.337  -5.271   2.190  0.00  0.00    -0.030 A 
ATOM     25  C   UNL     1       2.208  -6.034   2.424  0.00  0.00    +0.007 A 
ATOM     26  C   UNL     1       0.962  -5.439   2.444  0.00  0.00    +0.023 A 
BRANCH  21  32
ATOM     27  C   UNL     1      -1.761  -0.179   0.927  0.00  0.00    +0.009 C 
ATOM     28  C   UNL     1      -1.506  -1.687   0.971  0.00  0.00    +0.003 C 
ATOM     29  C   UNL     1      -2.830  -2.422   1.193  0.00  0.00    +0.006 C 
ATOM     30  C   UNL     1      -2.581  -3.932   1.205  0.00  0.00    +0.019 C 
ATOM     31  C   UNL     1      -1.635  -4.281   2.358  0.00  0.00    +0.105 C 
ATOM     32  N   UNL     1      -0.417  -3.469   2.232  0.00  0.00    -0.330 N 
ATOM     33  C   UNL     1      -0.547  -2.010   2.121  0.00  0.00    +0.108 C 
ENDBRANCH  21  32
ENDBRANCH  20  24
ENDBRANCH   1  20
TORSDOF 5
