REMARK  Name = ZINC00688407
REMARK  6 active torsions:
REMARK  status: ('A' for Active; 'I' for Inactive)
REMARK    1  A    between atoms: C_1  and  C_2
REMARK    2  A    between atoms: C_3  and  C_25
REMARK    3  A    between atoms: C_4  and  C_16
REMARK    4  A    between atoms: C_10  and  C_14
REMARK    5  A    between atoms: C_10  and  C_15
REMARK    6  A    between atoms: C_19  and  N_22
REMARK                            x       y       z     vdW  Elec       q    Type
REMARK                         _______ _______ _______ _____ _____    ______ ____
ROOT
ATOM      1  C   UNL     1       7.097   1.237  -0.154  0.00  0.00    +0.061 C 
ATOM      2  C   UNL     1       7.053  -0.265  -0.277  0.00  0.00    +0.014 C 
ATOM      3  C   UNL     1       5.870  -0.899  -0.281  0.00  0.00    +0.043 C 
ATOM      4  C   UNL     1       5.787  -2.393  -0.399  0.00  0.00    +0.090 C 
ATOM      5  C   UNL     1       7.080  -2.966  -0.924  0.00  0.00    +0.024 C 
ATOM      6  C   UNL     1       8.220  -2.245  -0.884  0.00  0.00    +0.016 C 
ATOM      7  N   UNL     1       8.220  -0.972  -0.379  0.00  0.00    -0.321 N 
ATOM      8  C   UNL     1       9.519  -2.816  -1.394  0.00  0.00    +0.058 C 
ATOM      9  C   UNL     1       9.236  -3.798  -2.534  0.00  0.00    -0.023 C 
ATOM     10  C   UNL     1       8.311  -4.900  -2.008  0.00  0.00    +0.086 C 
ATOM     11  C   UNL     1       7.063  -4.268  -1.454  0.00  0.00    +0.162 C 
ATOM     12  O   UNL     1       6.021  -4.894  -1.466  0.00  0.00    -0.292 OA
ATOM     13  C   UNL     1       8.555  -3.062  -3.689  0.00  0.00    +0.011 C 
ATOM     14  C   UNL     1      10.550  -4.413  -3.020  0.00  0.00    +0.011 C 
ATOM     15  H   UNL     1       9.168  -0.519  -0.054  0.00  0.00    +0.152 HD
ENDROOT
BRANCH   3  16
ATOM     16  C   UNL     1       4.676  -0.144  -0.175  0.00  0.00    +0.248 C 
ATOM     17  O   UNL     1       4.723   1.073  -0.186  0.00  0.00    -0.270 OA
ATOM     18  N   UNL     1       3.489  -0.772  -0.064  0.00  0.00    -0.267 N 
ATOM     19  C   UNL     1       2.307  -0.034  -0.069  0.00  0.00    +0.125 A 
ATOM     20  C   UNL     1       1.083  -0.693  -0.064  0.00  0.00    +0.045 A 
ATOM     21  C   UNL     1      -0.083   0.051  -0.070  0.00  0.00    +0.020 A 
ATOM     22  C   UNL     1       0.016   1.437  -0.080  0.00  0.00    +0.036 A 
ATOM     23  C   UNL     1       1.266   2.026  -0.083  0.00  0.00    +0.128 A 
ATOM     24  N   UNL     1       2.360   1.289  -0.078  0.00  0.00    -0.239 NA
ATOM     25 BR   UNL     1      -1.544   2.506  -0.080  0.00  0.00    -0.049 Br
ATOM     26  H   UNL     1       3.453  -1.867   0.031  0.00  0.00    +0.157 HD
ENDBRANCH   3  16
BRANCH   4  27
ATOM     27  C   UNL     1       5.499  -2.982   0.957  0.00  0.00    -0.035 A 
ATOM     28  C   UNL     1       6.382  -2.779   2.001  0.00  0.00    +0.007 A 
ATOM     29  C   UNL     1       6.115  -3.315   3.247  0.00  0.00    +0.033 A 
ATOM     30  C   UNL     1       4.970  -4.064   3.446  0.00  0.00    +0.126 A 
ATOM     31  C   UNL     1       4.090  -4.272   2.401  0.00  0.00    +0.033 A 
ATOM     32  C   UNL     1       4.354  -3.731   1.157  0.00  0.00    +0.007 A 
BRANCH  30  33
ATOM     33  N   UNL     1       4.687  -4.643   4.779  0.00  0.00    +0.056 N 
ATOM     34  O   UNL     1       3.679  -5.303   4.954  0.00  0.00    -0.126 OA
ATOM     35  O   UNL     1       5.463  -4.460   5.700  0.00  0.00    -0.126 OA
ENDBRANCH  30  33
ENDBRANCH   4  27
TORSDOF 3
