REMARK  Name = ZINC63806952
REMARK  2 active torsions:
REMARK  status: ('A' for Active; 'I' for Inactive)
REMARK    1  A    between atoms: C_10  and  C_12
REMARK    2  A    between atoms: N_14  and  C_15
REMARK                            x       y       z     vdW  Elec       q    Type
REMARK                         _______ _______ _______ _____ _____    ______ ____
ROOT
ATOM      1  C   UNL     1       4.743   1.239  -2.534  0.00  0.00    +0.242 C 
ATOM      2  O   UNL     1       4.952   0.819  -3.652  0.00  0.00    -0.273 OA
ATOM      3  N   UNL     1       5.124   2.488  -2.201  0.00  0.00    -0.284 N 
ATOM      4  H   UNL     1       4.894   2.849  -1.331  0.00  0.00    +0.155 HD
ENDROOT
BRANCH   1  14
ATOM      5  C   UNL     1       0.010   1.611   0.118  0.00  0.00    +0.001 C 
ATOM      6  C   UNL     1       1.377   2.252   0.090  0.00  0.00    +0.004 C 
ATOM      7  C   UNL     1       2.017   2.122  -1.299  0.00  0.00    +0.036 C 
ATOM      8  C   UNL     1       2.592   0.720  -1.401  0.00  0.00    -0.001 C 
ATOM      9  C   UNL     1       1.886  -0.380  -1.414  0.00  0.00    +0.127 C 
ATOM     10  C   UNL     1       0.366  -0.420  -1.317  0.00  0.00    +0.076 C 
ATOM     11  C   UNL     1      -0.017   0.102   0.072  0.00  0.00    +0.008 C 
ATOM     12  O   UNL     1       2.674  -1.483  -1.513  0.00  0.00    -0.410 OA
ATOM     13  N   UNL     1       4.003  -1.048  -1.982  0.00  0.00    -0.140 NA
ATOM     14  C   UNL     1       4.056   0.364  -1.516  0.00  0.00    +0.208 C 
ATOM     15  H   UNL     1       4.066  -1.100  -2.988  0.00  0.00    +0.168 HD
ENDBRANCH   1  14
BRANCH   3  16
ATOM     16  C   UNL     1       5.846   3.256  -3.102  0.00  0.00    +0.034 C 
ATOM     17  C   UNL     1       7.079   3.760  -2.748  0.00  0.00    +0.029 C 
ATOM     18  C   UNL     1       7.742   4.472  -3.755  0.00  0.00    -0.016 C 
ATOM     19  C   UNL     1       8.609   5.503  -3.728  0.00  0.00    +0.025 C 
ATOM     20  C   UNL     1       8.752   6.026  -5.028  0.00  0.00    +0.106 C 
ATOM     21  N   UNL     1       8.098   5.328  -5.915  0.00  0.00    -0.279 NA
ATOM     22  C   UNL     1       7.519   4.181  -5.230  0.00  0.00    +0.158 C 
ATOM     23  C   UNL     1       6.048   3.990  -5.441  0.00  0.00    +0.006 C 
ATOM     24  C   UNL     1       5.303   3.528  -4.436  0.00  0.00    +0.021 C 
ENDBRANCH   3  16
TORSDOF 2
