REMARK  Name = ZINC29081561
REMARK  11 active torsions:
REMARK  status: ('A' for Active; 'I' for Inactive)
REMARK    1  A    between atoms: C_1  and  C_2
REMARK    2  A    between atoms: C_2  and  C_4
REMARK    3  A    between atoms: C_2  and  N_13
REMARK    4  A    between atoms: C_7  and  C_10
REMARK    5  A    between atoms: C_10  and  C_11
REMARK    6  A    between atoms: C_10  and  C_12
REMARK    7  A    between atoms: C_14  and  C_16
REMARK    8  A    between atoms: C_16  and  N_17
REMARK    9  A    between atoms: N_17  and  C_18
REMARK   10  A    between atoms: N_17  and  S_19
REMARK   11  A    between atoms: S_19  and  C_22
REMARK                            x       y       z     vdW  Elec       q    Type
REMARK                         _______ _______ _______ _____ _____    ______ ____
ROOT
ATOM      1  N   UNL     1       0.711  -0.489   1.189  0.00  0.00    -0.308 N 
ATOM      2  C   UNL     1       0.051  -0.633   2.355  0.00  0.00    +0.229 C 
ATOM      3  O   UNL     1      -1.129  -0.361   2.423  0.00  0.00    -0.274 OA
ATOM      4  H   UNL     1       1.654  -0.707   1.135  0.00  0.00    +0.149 HD
ENDROOT
BRANCH   1   6
ATOM      5  C   UNL     1      -0.019   1.526   0.010  0.00  0.00    +0.033 C 
ATOM      6  C   UNL     1       0.002  -0.004   0.002  0.00  0.00    +0.100 C 
BRANCH   6   7
ATOM      7  C   UNL     1       0.707  -0.490  -1.238  0.00  0.00    -0.027 A 
ATOM      8  C   UNL     1       2.089  -0.511  -1.284  0.00  0.00    +0.006 A 
ATOM      9  C   UNL     1       2.736  -0.957  -2.421  0.00  0.00    +0.004 A 
ATOM     10  C   UNL     1       2.002  -1.382  -3.512  0.00  0.00    -0.045 A 
ATOM     11  C   UNL     1       0.620  -1.362  -3.466  0.00  0.00    +0.004 A 
ATOM     12  C   UNL     1      -0.027  -0.920  -2.327  0.00  0.00    +0.006 A 
BRANCH  10  13
ATOM     13  C   UNL     1       2.707  -1.867  -4.753  0.00  0.00    +0.013 C 
ATOM     14  C   UNL     1       2.307  -3.317  -5.032  0.00  0.00    +0.012 C 
ATOM     15  C   UNL     1       2.309  -0.990  -5.941  0.00  0.00    +0.012 C 
ENDBRANCH  10  13
ENDBRANCH   6   7
ENDBRANCH   1   6
BRANCH   2  16
ATOM     16  C   UNL     1       0.780  -1.133   3.576  0.00  0.00    +0.204 C 
BRANCH  16  17
ATOM     17  N   UNL     1      -0.150  -1.201   4.706  0.00  0.00    -0.171 NA
ATOM     18  C   UNL     1      -0.988  -2.387   4.894  0.00  0.00    +0.132 C 
BRANCH  17  19
ATOM     19  S   UNL     1      -0.253   0.063   5.771  0.00  0.00    +0.061 S 
ATOM     20  O   UNL     1      -0.753  -0.471   6.989  0.00  0.00    -0.153 OA
ATOM     21  O   UNL     1       0.983   0.760   5.695  0.00  0.00    -0.153 OA
BRANCH  19  22
ATOM     22  C   UNL     1      -1.488   1.161   5.159  0.00  0.00    +0.106 A 
ATOM     23  C   UNL     1      -1.139   2.180   4.292  0.00  0.00    +0.030 A 
ATOM     24  C   UNL     1      -2.107   3.041   3.811  0.00  0.00    +0.022 A 
ATOM     25  C   UNL     1      -3.426   2.883   4.197  0.00  0.00    +0.041 A 
ATOM     26  C   UNL     1      -3.775   1.863   5.065  0.00  0.00    +0.022 A 
ATOM     27  C   UNL     1      -2.807   0.999   5.540  0.00  0.00    +0.030 A 
ATOM     28 CL   UNL     1      -4.643   3.964   3.595  0.00  0.00    -0.084 Cl
ENDBRANCH  19  22
ENDBRANCH  17  19
ENDBRANCH  16  17
ENDBRANCH   2  16
TORSDOF 7
