REMARK  Name = ZINC08927662
REMARK  9 active torsions:
REMARK  status: ('A' for Active; 'I' for Inactive)
REMARK    1  A    between atoms: C_1  and  C_2
REMARK    2  A    between atoms: C_2  and  N_58
REMARK    3  A    between atoms: C_10  and  O_32
REMARK    4  A    between atoms: C_12  and  C_15
REMARK    5  A    between atoms: C_18  and  O_23
REMARK    6  A    between atoms: C_19  and  O_21
REMARK    7  A    between atoms: O_21  and  C_22
REMARK    8  A    between atoms: O_23  and  C_24
REMARK    9  A    between atoms: C_24  and  C_26
REMARK                            x       y       z     vdW  Elec       q    Type
REMARK                         _______ _______ _______ _____ _____    ______ ____
ROOT
ATOM      1  C   UNL     1       3.385  -2.634   6.513  0.00  0.00    -0.074 C 
ATOM      2  C   UNL     1       3.947  -2.391   5.109  0.00  0.00    +0.018 C 
ATOM      3  C   UNL     1       3.228  -3.322   4.140  0.00  0.00    -0.027 A 
ATOM      4  C   UNL     1       2.549  -4.396   4.612  0.00  0.00    -0.021 A 
ATOM      5  S   UNL     1       1.882  -5.182   3.170  0.00  0.00    -0.080 S 
ATOM      6  C   UNL     1       2.493  -4.115   1.979  0.00  0.00    +0.080 A 
ATOM      7  C   UNL     1       3.207  -3.148   2.700  0.00  0.00    +0.067 A 
ATOM      8  C   UNL     1       3.855  -2.061   1.922  0.00  0.00    +0.220 C 
ATOM      9  N   UNL     1       3.557  -1.959   0.658  0.00  0.00    -0.223 NA
ATOM     10  C   UNL     1       2.560  -2.769  -0.032  0.00  0.00    +0.224 C 
ATOM     11  N   UNL     1       2.391  -4.085   0.609  0.00  0.00    -0.313 N 
ATOM     12  C   UNL     1       2.414  -4.803   6.044  0.00  0.00    -0.035 C 
ATOM     13  H   UNL     1       2.217  -4.888   0.092  0.00  0.00    +0.149 HD
ATOM     14  N   UNL     1       3.446  -4.077   6.823  0.00  0.00    +0.383 N 
ATOM     15  H   UNL     1       4.373  -4.436   6.564  0.00  0.00    -0.081 HD
ENDROOT
BRANCH  10  16
ATOM     16  C   UNL     1       1.240  -2.041  -0.017  0.00  0.00    -0.002 A 
ATOM     17  C   UNL     1       0.058  -2.758  -0.037  0.00  0.00    +0.011 A 
ATOM     18  C   UNL     1      -1.155  -2.095  -0.024  0.00  0.00    +0.050 A 
ATOM     19  C   UNL     1      -1.188  -0.710   0.011  0.00  0.00    +0.173 A 
ATOM     20  C   UNL     1       0.002   0.011   0.032  0.00  0.00    +0.163 A 
ATOM     21  C   UNL     1       1.215  -0.660   0.013  0.00  0.00    +0.056 A 
BRANCH  20  22
ATOM     22  O   UNL     1      -0.025   1.370   0.067  0.00  0.00    -0.491 OA
ATOM     23  C   UNL     1       1.235   2.043   0.087  0.00  0.00    +0.277 C 
ENDBRANCH  20  22
BRANCH  19  24
ATOM     24  O   UNL     1      -2.381  -0.057   0.025  0.00  0.00    -0.419 OA
BRANCH  24  25
ATOM     25  C   UNL     1      -2.826   0.428  -1.150  0.00  0.00    +0.345 C 
ATOM     26  O   UNL     1      -2.219   0.190  -2.175  0.00  0.00    -0.245 OA
BRANCH  25  27
ATOM     27  C   UNL     1      -4.052   1.251  -1.193  0.00  0.00    +0.059 A 
ATOM     28  C   UNL     1      -4.755   1.523  -0.017  0.00  0.00    +0.015 A 
ATOM     29  C   UNL     1      -5.896   2.297  -0.063  0.00  0.00    +0.001 A 
ATOM     30  C   UNL     1      -6.350   2.795  -1.272  0.00  0.00    +0.000 A 
ATOM     31  C   UNL     1      -5.662   2.524  -2.441  0.00  0.00    +0.001 A 
ATOM     32  C   UNL     1      -4.516   1.756  -2.409  0.00  0.00    +0.015 A 
ENDBRANCH  25  27
ENDBRANCH  24  25
ENDBRANCH  19  24
ENDBRANCH  10  16
BRANCH  14  34
ATOM     33  C   UNL     1       3.516  -5.761   8.598  0.00  0.00    -0.017 C 
ATOM     34  C   UNL     1       3.234  -4.294   8.270  0.00  0.00    -0.082 C 
ENDBRANCH  14  34
BRANCH   8  35
ATOM     35  O   UNL     1       4.725  -1.206   2.507  0.00  0.00    -0.492 OA
ATOM     36  H   UNL     1       5.085  -0.539   1.907  0.00  0.00    +0.294 HD
ENDBRANCH   8  35
TORSDOF 7
