REMARK  Name = ZINC39657855
REMARK  4 active torsions:
REMARK  status: ('A' for Active; 'I' for Inactive)
REMARK    1  A    between atoms: C_4  and  C_8
REMARK    2  A    between atoms: C_12  and  C_21
REMARK    3  A    between atoms: N_23  and  C_24
REMARK    4  A    between atoms: C_27  and  C_30
REMARK                            x       y       z     vdW  Elec       q    Type
REMARK                         _______ _______ _______ _____ _____    ______ ____
ROOT
ATOM      1  C   UNL     1       3.808  -0.783  -0.007  0.00  0.00    +0.249 C 
ATOM      2  O   UNL     1       4.396  -1.051   1.023  0.00  0.00    -0.270 OA
ATOM      3  N   UNL     1       4.375  -1.061  -1.198  0.00  0.00    -0.296 N 
ATOM      4  C   UNL     1       3.822  -0.805  -2.549  0.00  0.00    +0.121 C 
ATOM      5  C   UNL     1       5.035  -0.340  -3.385  0.00  0.00    +0.100 C 
ATOM      6  C   UNL     1       6.259  -0.927  -2.662  0.00  0.00    -0.004 C 
ATOM      7  C   UNL     1       5.695  -1.686  -1.452  0.00  0.00    +0.115 C 
ATOM      8  C   UNL     1       7.181   0.193  -2.191  0.00  0.00    -0.010 C 
ATOM      9  C   UNL     1       8.418  -0.417  -1.525  0.00  0.00    -0.082 C 
ATOM     10  N   UNL     1       9.116  -1.282  -2.484  0.00  0.00    +0.379 N 
ATOM     11  C   UNL     1       8.254  -2.408  -2.861  0.00  0.00    -0.082 C 
ATOM     12  C   UNL     1       7.010  -1.883  -3.583  0.00  0.00    -0.010 C 
ATOM     13  H   UNL     1       9.350  -0.748  -3.308  0.00  0.00    -0.086 HD
ATOM     14  H   UNL     1       9.963  -1.634  -2.063  0.00  0.00    -0.086 HD
ENDROOT
BRANCH   1  18
ATOM     15  C   UNL     1      -0.030   1.030   0.145  0.00  0.00    +0.003 A 
ATOM     16  C   UNL     1       1.103   1.822   0.111  0.00  0.00    +0.021 A 
ATOM     17  C   UNL     1       2.355   1.240   0.062  0.00  0.00    +0.054 A 
ATOM     18  C   UNL     1       2.474  -0.153   0.046  0.00  0.00    +0.073 A 
ATOM     19  C   UNL     1       1.324  -0.946   0.081  0.00  0.00    +0.054 A 
ATOM     20  C   UNL     1       0.079  -0.349   0.130  0.00  0.00    +0.021 A 
ATOM     21 CL   UNL     1       1.459  -2.676   0.061  0.00  0.00    -0.083 Cl
ATOM     22 CL   UNL     1       3.776   2.235   0.018  0.00  0.00    -0.083 Cl
ENDBRANCH   1  18
BRANCH   5  23
ATOM     23  C   UNL     1       4.943  -0.882  -4.789  0.00  0.00    +0.218 C 
ATOM     24  O   UNL     1       4.405  -1.949  -4.993  0.00  0.00    -0.275 OA
ATOM     25  N   UNL     1       5.460  -0.180  -5.817  0.00  0.00    -0.312 N 
ATOM     26  H   UNL     1       5.890   0.674  -5.654  0.00  0.00    +0.149 HD
BRANCH  25  27
ATOM     27  C   UNL     1       5.370  -0.706  -7.181  0.00  0.00    +0.073 C 
ATOM     28  C   UNL     1       6.538  -1.660  -7.438  0.00  0.00    +0.023 C 
ATOM     29  C   UNL     1       6.445  -2.209  -8.863  0.00  0.00    +0.016 C 
ATOM     30  C   UNL     1       6.504  -1.051  -9.861  0.00  0.00    +0.102 C 
ATOM     31  C   UNL     1       5.335  -0.097  -9.604  0.00  0.00    +0.016 C 
ATOM     32  C   UNL     1       5.429   0.452  -8.180  0.00  0.00    +0.023 C 
BRANCH  30  33
ATOM     33  C   UNL     1       6.412  -1.593 -11.264  0.00  0.00    +0.359 C 
ATOM     34  O   UNL     1       5.905  -0.919 -12.145  0.00  0.00    -0.246 OA
ATOM     35  O   UNL     1       6.843  -2.704 -11.518  0.00  0.00    -0.246 OA
ENDBRANCH  30  33
ENDBRANCH  25  27
ENDBRANCH   5  23
TORSDOF 4
