REMARK  Name = ZINC10990224
REMARK  5 active torsions:
REMARK  status: ('A' for Active; 'I' for Inactive)
REMARK    1  A    between atoms: C_1  and  N_2
REMARK    2  A    between atoms: N_2  and  C_3
REMARK    3  A    between atoms: C_6  and  C_12
REMARK    4  A    between atoms: C_8  and  N_9
REMARK    5  A    between atoms: C_17  and  C_20
REMARK                            x       y       z     vdW  Elec       q    Type
REMARK                         _______ _______ _______ _____ _____    ______ ____
ROOT
ATOM      1  C   UNL     1      -2.713   3.411  -0.361  0.00  0.00    +0.247 C 
ATOM      2  O   UNL     1      -2.929   4.606  -0.429  0.00  0.00    -0.270 OA
ATOM      3  N   UNL     1      -3.730   2.535  -0.474  0.00  0.00    -0.293 N 
ATOM      4  C   UNL     1      -5.128   2.990  -0.559  0.00  0.00    +0.113 C 
ATOM      5  C   UNL     1      -5.684   2.545  -1.920  0.00  0.00    +0.054 C 
ATOM      6  C   UNL     1      -5.318   1.115  -2.190  0.00  0.00    -0.039 C 
ATOM      7  C   UNL     1      -4.350   0.470  -1.581  0.00  0.00    -0.004 C 
ATOM      8  C   UNL     1      -3.489   1.085  -0.513  0.00  0.00    +0.135 C 
ENDROOT
BRANCH   6   9
ATOM      9  C   UNL     1      -6.098   0.386  -3.208  0.00  0.00    +0.003 A 
ATOM     10  C   UNL     1      -7.357  -0.104  -3.069  0.00  0.00    +0.091 A 
ATOM     11  N   UNL     1      -7.746  -0.713  -4.226  0.00  0.00    -0.360 N 
ATOM     12  H   UNL     1      -8.607  -1.136  -4.368  0.00  0.00    +0.165 HD
ATOM     13  C   UNL     1      -6.735  -0.647  -5.161  0.00  0.00    +0.047 A 
ATOM     14  C   UNL     1      -5.661   0.041  -4.572  0.00  0.00    +0.007 A 
ATOM     15  C   UNL     1      -4.490   0.258  -5.296  0.00  0.00    +0.010 A 
ATOM     16  C   UNL     1      -4.393  -0.204  -6.589  0.00  0.00    +0.001 A 
ATOM     17  C   UNL     1      -5.453  -0.884  -7.172  0.00  0.00    +0.002 A 
ATOM     18  C   UNL     1      -6.616  -1.106  -6.469  0.00  0.00    +0.026 A 
ENDBRANCH   6   9
BRANCH   1  22
ATOM     19  C   UNL     1       1.248   2.001   0.232  0.00  0.00    +0.058 A 
ATOM     20  C   UNL     1       1.029   3.178  -0.479  0.00  0.00    +0.026 A 
ATOM     21  C   UNL     1      -0.253   3.641  -0.667  0.00  0.00    +0.015 A 
ATOM     22  C   UNL     1      -1.337   2.921  -0.155  0.00  0.00    +0.039 A 
ATOM     23  C   UNL     1      -1.113   1.740   0.558  0.00  0.00    +0.047 A 
ATOM     24  C   UNL     1       0.172   1.286   0.749  0.00  0.00    +0.148 A 
BRANCH  19  26
ATOM     25  C   UNL     1       3.669   2.212  -0.232  0.00  0.00    +0.125 C 
ATOM     26  N   UNL     1       2.546   1.539   0.426  0.00  0.00    -0.345 N 
ATOM     27  H   UNL     1       2.707   0.771   0.996  0.00  0.00    +0.146 HD
ENDBRANCH  19  26
BRANCH  24  28
ATOM     28  N   UNL     1       0.409   0.035   1.504  0.00  0.00    +0.058 N 
ATOM     29  O   UNL     1       1.287  -0.732   1.151  0.00  0.00    -0.126 OA
ATOM     30  O   UNL     1      -0.273  -0.227   2.478  0.00  0.00    -0.126 OA
ENDBRANCH  24  28
ENDBRANCH   1  22
TORSDOF 4
