REMARK  Name = ZINC20257553
REMARK  5 active torsions:
REMARK  status: ('A' for Active; 'I' for Inactive)
REMARK    1  A    between atoms: C_1  and  C_2
REMARK    2  A    between atoms: N_7  and  S_9
REMARK    3  A    between atoms: S_9  and  N_12
REMARK    4  A    between atoms: N_12  and  C_13
REMARK    5  A    between atoms: C_16  and  N_19
REMARK                            x       y       z     vdW  Elec       q    Type
REMARK                         _______ _______ _______ _____ _____    ______ ____
ROOT
ATOM      1  N   UNL     1       3.579   2.127  -0.025  0.00  0.00    -0.206 N 
ATOM      2  H   UNL     1       3.270   1.156  -0.438  0.00  0.00    +0.175 HD
ENDROOT
BRANCH   1   3
ATOM      3  C   UNL     1       3.915   2.236   1.330  0.00  0.00    +0.049 A 
ATOM      4  C   UNL     1       5.063   2.920   1.708  0.00  0.00    +0.026 A 
ATOM      5  C   UNL     1       5.394   3.027   3.045  0.00  0.00    +0.024 A 
ATOM      6  C   UNL     1       4.579   2.452   4.010  0.00  0.00    +0.025 A 
ATOM      7  C   UNL     1       3.431   1.768   3.632  0.00  0.00    +0.024 A 
ATOM      8  C   UNL     1       3.100   1.661   2.296  0.00  0.00    +0.026 A 
BRANCH   6   9
ATOM      9  N   UNL     1       4.915   2.561   5.365  0.00  0.00    -0.358 N 
ATOM     10  H   UNL     1       4.269   2.105   6.130  0.00  0.00    +0.142 HD
ATOM     11  H   UNL     1       5.824   3.102   5.665  0.00  0.00    +0.142 HD
ENDBRANCH   6   9
ENDBRANCH   1   3
BRANCH   1  12
ATOM     12  S   UNL     1       3.648   3.460  -1.004  0.00  0.00    +0.112 S 
ATOM     13  O   UNL     1       4.946   4.017  -0.843  0.00  0.00    -0.138 OA
ATOM     14  O   UNL     1       3.144   3.059  -2.271  0.00  0.00    -0.138 OA
BRANCH  12  20
ATOM     15  C   UNL     1      -0.776   5.885  -1.564  0.00  0.00    +0.009 C 
ATOM     16  C   UNL     1       0.732   5.882  -1.305  0.00  0.00    +0.002 C 
ATOM     17  C   UNL     1       1.077   6.963  -0.278  0.00  0.00    +0.006 C 
ATOM     18  C   UNL     1       2.589   6.984  -0.044  0.00  0.00    +0.017 C 
ATOM     19  C   UNL     1       3.034   5.628   0.513  0.00  0.00    +0.111 C 
ATOM     20  N   UNL     1       2.578   4.569  -0.398  0.00  0.00    -0.164 NA
ATOM     21  C   UNL     1       1.157   4.517  -0.766  0.00  0.00    +0.114 C 
ENDBRANCH  12  20
ENDBRANCH   1  12
TORSDOF 4
