REMARK  Name = ZINC38550654
REMARK  7 active torsions:
REMARK  status: ('A' for Active; 'I' for Inactive)
REMARK    1  A    between atoms: N_7  and  C_8
REMARK    2  A    between atoms: C_8  and  C_10
REMARK    3  A    between atoms: C_8  and  C_20
REMARK    4  A    between atoms: C_13  and  O_16
REMARK    5  A    between atoms: O_16  and  C_17
REMARK    6  A    between atoms: C_24  and  N_25
REMARK    7  A    between atoms: C_26  and  C_28
REMARK                            x       y       z     vdW  Elec       q    Type
REMARK                         _______ _______ _______ _____ _____    ______ ____
ROOT
ATOM      1  C   UNL     1      -0.031  -2.686  -0.141  0.00  0.00    +0.135 C 
ENDROOT
BRANCH   1   8
ATOM      2  C   UNL     1       3.485  -3.666  -2.214  0.00  0.00    +0.005 A 
ATOM      3  C   UNL     1       4.473  -2.699  -2.351  0.00  0.00    +0.018 A 
ATOM      4  C   UNL     1       4.292  -1.461  -1.769  0.00  0.00    +0.084 A 
ATOM      5  N   UNL     1       3.196  -1.187  -1.088  0.00  0.00    -0.350 N 
ATOM      6  C   UNL     1       2.232  -2.081  -0.935  0.00  0.00    +0.097 A 
ATOM      7  C   UNL     1       2.347  -3.349  -1.495  0.00  0.00    +0.041 A 
ATOM      8  N   UNL     1       1.094  -1.750  -0.208  0.00  0.00    -0.320 N 
ATOM      9  H   UNL     1       1.044  -0.898   0.254  0.00  0.00    +0.148 HD
ATOM     10  H   UNL     1       3.094  -0.308  -0.689  0.00  0.00    +0.166 HD
ENDBRANCH   1   8
BRANCH   1  11
ATOM     11  C   UNL     1      -0.823  -2.613  -1.421  0.00  0.00    +0.009 A 
ATOM     12  C   UNL     1      -1.280  -3.783  -2.028  0.00  0.00    -0.030 A 
ATOM     13  C   UNL     1      -1.988  -3.635  -3.180  0.00  0.00    -0.005 A 
ATOM     14  S   UNL     1      -2.027  -1.881  -3.434  0.00  0.00    -0.078 S 
ATOM     15  C   UNL     1      -1.098  -1.406  -1.984  0.00  0.00    +0.078 A 
ATOM     16  C   UNL     1      -2.585  -4.712  -4.027  0.00  0.00    +0.043 C 
ATOM     17  C   UNL     1      -1.974  -6.056  -3.603  0.00  0.00    +0.005 C 
ATOM     18  C   UNL     1      -2.018  -6.155  -2.075  0.00  0.00    +0.005 C 
ATOM     19  C   UNL     1      -1.020  -5.174  -1.458  0.00  0.00    +0.036 C 
BRANCH  15  20
ATOM     20  N   UNL     1      -0.745  -0.129  -1.544  0.00  0.00    -0.273 N 
ATOM     21  C   UNL     1      -1.216   0.959  -2.185  0.00  0.00    +0.284 C 
ATOM     22  O   UNL     1      -2.012   0.830  -3.098  0.00  0.00    -0.266 OA
ATOM     23  H   UNL     1      -0.160  -0.025  -0.777  0.00  0.00    +0.156 HD
BRANCH  21  24
ATOM     24  C   UNL     1      -0.770   2.297  -1.784  0.00  0.00    +0.189 A 
ATOM     25  C   UNL     1      -1.231   3.480  -2.286  0.00  0.00    +0.054 A 
ATOM     26  C   UNL     1      -0.533   4.500  -1.620  0.00  0.00    +0.042 A 
ATOM     27  C   UNL     1       0.313   3.902  -0.753  0.00  0.00    +0.196 A 
ATOM     28  O   UNL     1       0.163   2.575  -0.851  0.00  0.00    -0.458 OA
ENDBRANCH  21  24
ENDBRANCH  15  20
ENDBRANCH   1  11
BRANCH   1  29
ATOM     29  C   UNL     1      -0.919  -2.322   1.021  0.00  0.00    -0.023 A 
ATOM     30  C   UNL     1      -1.088  -0.996   1.371  0.00  0.00    +0.009 A 
ATOM     31  C   UNL     1      -1.901  -0.659   2.436  0.00  0.00    +0.046 A 
ATOM     32  C   UNL     1      -2.549  -1.654   3.154  0.00  0.00    +0.127 A 
ATOM     33  C   UNL     1      -2.378  -2.985   2.800  0.00  0.00    +0.046 A 
ATOM     34  C   UNL     1      -1.568  -3.315   1.731  0.00  0.00    +0.009 A 
BRANCH  32  35
ATOM     35  O   UNL     1      -3.349  -1.326   4.202  0.00  0.00    -0.434 OA
BRANCH  35  36
ATOM     36  C   UNL     1      -3.985  -2.402   4.895  0.00  0.00    +0.541 C 
ATOM     37  F   UNL     1      -4.800  -3.111   4.007  0.00  0.00    -0.166 F 
ATOM     38  F   UNL     1      -3.011  -3.259   5.419  0.00  0.00    -0.166 F 
ENDBRANCH  35  36
ENDBRANCH  32  35
ENDBRANCH   1  29
TORSDOF 7
