REMARK  Name = ZINC64871165
REMARK  5 active torsions:
REMARK  status: ('A' for Active; 'I' for Inactive)
REMARK    1  A    between atoms: C_6  and  C_7
REMARK    2  A    between atoms: C_7  and  N_8
REMARK    3  A    between atoms: C_14  and  C_21
REMARK    4  A    between atoms: C_24  and  C_28
REMARK    5  A    between atoms: C_31  and  C_34
REMARK                            x       y       z     vdW  Elec       q    Type
REMARK                         _______ _______ _______ _____ _____    ______ ____
ROOT
ATOM      1  N   UNL     1      -1.726  -1.017  -1.368  0.00  0.00    -0.256 N 
ATOM      2  C   UNL     1      -2.519  -0.112  -1.982  0.00  0.00    +0.265 A 
ATOM      3  O   UNL     1      -2.876   0.897  -1.406  0.00  0.00    -0.267 OA
ATOM      4  C   UNL     1      -2.940  -0.380  -3.369  0.00  0.00    +0.063 A 
ATOM      5  C   UNL     1      -3.756   0.504  -4.070  0.00  0.00    +0.016 A 
ATOM      6  C   UNL     1      -4.122   0.208  -5.367  0.00  0.00    +0.008 A 
ATOM      7  C   UNL     1      -3.682  -0.960  -5.971  0.00  0.00    -0.000 A 
ATOM      8  C   UNL     1      -2.873  -1.844  -5.287  0.00  0.00    +0.034 A 
ATOM      9  C   UNL     1      -2.494  -1.563  -3.983  0.00  0.00    +0.056 A 
ATOM     10  N   UNL     1      -1.681  -2.425  -3.260  0.00  0.00    -0.307 N 
ATOM     11  H   UNL     1      -1.366  -3.245  -3.671  0.00  0.00    +0.170 HD
ATOM     12  C   UNL     1      -1.322  -2.131  -1.999  0.00  0.00    +0.330 A 
ATOM     13  O   UNL     1      -0.605  -2.910  -1.401  0.00  0.00    -0.246 OA
ENDROOT
BRANCH   7  14
ATOM     14  C   UNL     1      -4.093  -1.267  -7.388  0.00  0.00    +0.242 C 
ATOM     15  N   UNL     1      -5.408  -0.646  -7.692  0.00  0.00    -0.265 NA
ATOM     16  C   UNL     1      -5.377  -0.526  -9.174  0.00  0.00    +0.180 C 
ATOM     17  N   UNL     1      -3.963  -0.191  -9.467  0.00  0.00    -0.177 NA
ATOM     18  O   UNL     1      -3.174  -0.664  -8.318  0.00  0.00    -0.274 OA
ATOM     19  H   UNL     1      -6.167  -1.241  -7.393  0.00  0.00    +0.127 HD
ATOM     20  H   UNL     1      -3.848   0.802  -9.602  0.00  0.00    +0.156 HD
BRANCH  16  21
ATOM     21  C   UNL     1      -6.293   0.579  -9.636  0.00  0.00    -0.014 A 
ATOM     22  C   UNL     1      -7.421   0.893  -8.901  0.00  0.00    +0.007 A 
ATOM     23  C   UNL     1      -8.261   1.906  -9.325  0.00  0.00    +0.013 A 
ATOM     24  C   UNL     1      -7.973   2.604 -10.482  0.00  0.00    +0.055 A 
ATOM     25  C   UNL     1      -6.845   2.290 -11.216  0.00  0.00    +0.013 A 
ATOM     26  C   UNL     1      -6.002   1.280 -10.790  0.00  0.00    +0.007 A 
BRANCH  24  27
ATOM     27  C   UNL     1      -8.890   3.708 -10.944  0.00  0.00    +0.417 C 
ATOM     28  F   UNL     1      -8.476   4.922 -10.387  0.00  0.00    -0.166 F 
ATOM     29  F   UNL     1      -8.847   3.796 -12.340  0.00  0.00    -0.166 F 
ATOM     30  F   UNL     1     -10.198   3.429 -10.535  0.00  0.00    -0.166 F 
ENDBRANCH  24  27
ENDBRANCH  16  21
ENDBRANCH   7  14
BRANCH   1  31
ATOM     31  C   UNL     1      -1.293  -0.775   0.010  0.00  0.00    +0.165 C 
BRANCH  31  37
ATOM     32  C   UNL     1      -0.017   1.378   0.010  0.00  0.00    +0.008 A 
ATOM     33  C   UNL     1       1.170   2.086   0.002  0.00  0.00    +0.038 A 
ATOM     34  C   UNL     1       2.379   1.410  -0.013  0.00  0.00    +0.123 A 
ATOM     35  C   UNL     1       2.396   0.026  -0.021  0.00  0.00    +0.038 A 
ATOM     36  C   UNL     1       1.208  -0.680  -0.013  0.00  0.00    +0.008 A 
ATOM     37  C   UNL     1       0.002  -0.004   0.002  0.00  0.00    -0.027 A 
ATOM     38  F   UNL     1       3.540   2.101  -0.021  0.00  0.00    -0.205 F 
ENDBRANCH  31  37
ENDBRANCH   1  31
TORSDOF 5
