REMARK  Name = ZINC39711225
REMARK  9 active torsions:
REMARK  status: ('A' for Active; 'I' for Inactive)
REMARK    1  A    between atoms: C_1  and  C_2
REMARK    2  A    between atoms: C_6  and  C_15
REMARK    3  A    between atoms: C_13  and  C_14
REMARK    4  A    between atoms: C_15  and  C_17
REMARK    5  A    between atoms: C_15  and  N_27
REMARK    6  A    between atoms: N_22  and  C_23
REMARK    7  A    between atoms: C_23  and  C_24
REMARK    8  A    between atoms: C_23  and  C_25
REMARK    9  A    between atoms: C_23  and  C_26
REMARK                            x       y       z     vdW  Elec       q    Type
REMARK                         _______ _______ _______ _____ _____    ______ ____
ROOT
ATOM      1  C   UNL     1      -1.179  -4.878  -2.983  0.00  0.00    +0.131 C 
ENDROOT
BRANCH   1   7
ATOM      2  C   UNL     1       1.520   1.164  -0.294  0.00  0.00    +0.044 C 
ATOM      3  C   UNL     1       1.222  -0.313  -0.254  0.00  0.00    -0.047 A 
ATOM      4  C   UNL     1       0.997  -0.978  -1.416  0.00  0.00    +0.013 A 
ATOM      5  C   UNL     1       0.710  -2.412  -1.364  0.00  0.00    -0.007 A 
ATOM      6  C   UNL     1       0.478  -3.120  -2.505  0.00  0.00    -0.003 C 
ATOM      7  C   UNL     1       0.190  -4.601  -2.357  0.00  0.00    +0.122 C 
ATOM      8  C   UNL     1       0.182  -5.172  -0.957  0.00  0.00    +0.226 C 
ATOM      9  O   UNL     1      -0.043  -6.354  -0.780  0.00  0.00    -0.275 OA
ATOM     10  N   UNL     1       0.422  -4.380   0.075  0.00  0.00    -0.284 N 
ATOM     11  C   UNL     1       0.677  -3.078  -0.051  0.00  0.00    +0.041 A 
ATOM     12  C   UNL     1       0.924  -2.296   1.093  0.00  0.00    +0.027 A 
ATOM     13  C   UNL     1       1.190  -0.969   0.977  0.00  0.00    -0.046 A 
ATOM     14  C   UNL     1       1.455  -0.172   2.229  0.00  0.00    +0.044 C 
ATOM     15  H   UNL     1       0.413  -4.766   0.965  0.00  0.00    +0.155 HD
ENDBRANCH   1   7
BRANCH   1  16
ATOM     16  N   UNL     1      -1.201  -4.366  -4.356  0.00  0.00    -0.322 N 
ATOM     17  C   UNL     1      -2.214  -3.456  -4.896  0.00  0.00    +0.110 C 
ATOM     18  C   UNL     1      -1.802  -3.218  -6.359  0.00  0.00    +0.056 C 
ATOM     19  C   UNL     1      -0.545  -4.040  -6.538  0.00  0.00    -0.025 A 
ATOM     20  C   UNL     1      -0.256  -4.670  -5.337  0.00  0.00    +0.033 A 
ATOM     21  C   UNL     1       0.873  -5.487  -5.256  0.00  0.00    +0.023 A 
ATOM     22  C   UNL     1       1.688  -5.658  -6.355  0.00  0.00    +0.002 A 
ATOM     23  C   UNL     1       1.393  -5.022  -7.546  0.00  0.00    +0.000 A 
ATOM     24  C   UNL     1       0.271  -4.218  -7.637  0.00  0.00    +0.005 A 
ENDBRANCH   1  16
BRANCH   1  25
ATOM     25  C   UNL     1      -1.439  -6.385  -2.996  0.00  0.00    +0.239 C 
ATOM     26  N   UNL     1      -0.401  -7.078  -3.772  0.00  0.00    -0.148 NA
ATOM     27  N   UNL     1      -0.931  -7.653  -4.724  0.00  0.00    -0.069 NA
ATOM     28  N   UNL     1      -2.313  -7.471  -4.766  0.00  0.00    -0.179 N 
ATOM     29  N   UNL     1      -2.699  -6.686  -3.708  0.00  0.00    -0.179 NA
ATOM     30  H   UNL     1      -2.908  -7.841  -5.437  0.00  0.00    +0.191 HD
BRANCH  29  31
ATOM     31  C   UNL     1      -3.640  -7.400  -2.835  0.00  0.00    +0.035 C 
ATOM     32  C   UNL     1      -3.960  -6.534  -1.615  0.00  0.00    +0.029 C 
ATOM     33  C   UNL     1      -4.929  -7.692  -3.605  0.00  0.00    +0.029 C 
ATOM     34  C   UNL     1      -3.010  -8.716  -2.376  0.00  0.00    +0.029 C 
ENDBRANCH  29  31
ENDBRANCH   1  25
TORSDOF 4
