REMARK  Name = ZINC07127263
REMARK  5 active torsions:
REMARK  status: ('A' for Active; 'I' for Inactive)
REMARK    1  A    between atoms: C_1  and  C_2
REMARK    2  A    between atoms: C_2  and  O_3
REMARK    3  A    between atoms: O_3  and  C_4
REMARK    4  A    between atoms: C_6  and  C_12
REMARK    5  A    between atoms: C_9  and  O_10
REMARK                            x       y       z     vdW  Elec       q    Type
REMARK                         _______ _______ _______ _____ _____    ______ ____
ROOT
ATOM      1  C   UNL     1      -1.140   2.303   0.014  0.00  0.00    +0.209 C 
ATOM      2  N   UNL     1      -0.628   3.568   0.570  0.00  0.00    -0.293 N 
ATOM      3  C   UNL     1       0.645   3.978   0.281  0.00  0.00    +0.183 C 
ATOM      4  N   UNL     1       1.610   3.108   0.033  0.00  0.00    -0.183 NA
ATOM      5  C   UNL     1       1.299   1.792  -0.001  0.00  0.00    +0.236 A 
ATOM      6  N   UNL     1      -0.016   1.358   0.009  0.00  0.00    -0.285 N 
ATOM      7  C   UNL     1       0.002  -0.004   0.002  0.00  0.00    +0.072 A 
ATOM      8  C   UNL     1      -1.002  -0.965   0.018  0.00  0.00    +0.028 A 
ATOM      9  C   UNL     1      -0.607  -2.293  -0.001  0.00  0.00    +0.002 A 
ATOM     10  C   UNL     1       0.726  -2.662  -0.036  0.00  0.00    +0.002 A 
ATOM     11  C   UNL     1       1.745  -1.726  -0.051  0.00  0.00    +0.030 A 
ATOM     12  C   UNL     1       1.371  -0.378  -0.031  0.00  0.00    +0.091 A 
ATOM     13  N   UNL     1       2.101   0.754  -0.033  0.00  0.00    -0.210 NA
ATOM     14  N   UNL     1       0.926   5.317   0.247  0.00  0.00    -0.331 N 
ATOM     15  H   UNL     1      -1.194   4.110   1.142  0.00  0.00    +0.151 HD
ATOM     16  H   UNL     1       1.825   5.619   0.042  0.00  0.00    +0.145 HD
ATOM     17  H   UNL     1       0.227   5.964   0.427  0.00  0.00    +0.145 HD
ENDROOT
BRANCH   1  20
ATOM     18  C   UNL     1      -3.219   2.055  -3.131  0.00  0.00    +0.164 A 
ATOM     19  C   UNL     1      -2.761   1.855  -1.838  0.00  0.00    +0.056 A 
ATOM     20  C   UNL     1      -1.635   2.522  -1.392  0.00  0.00    -0.002 A 
ATOM     21  C   UNL     1      -0.966   3.393  -2.232  0.00  0.00    +0.031 A 
ATOM     22  C   UNL     1      -1.414   3.593  -3.525  0.00  0.00    +0.086 A 
ATOM     23  C   UNL     1      -2.543   2.927  -3.978  0.00  0.00    +0.177 A 
ATOM     24 CL   UNL     1      -0.567   4.683  -4.578  0.00  0.00    -0.080 Cl
BRANCH  23  25
ATOM     25  O   UNL     1      -2.988   3.127  -5.248  0.00  0.00    -0.502 OA
ATOM     26  H   UNL     1      -3.623   3.851  -5.333  0.00  0.00    +0.292 HD
ENDBRANCH  23  25
BRANCH  18  27
ATOM     27  O   UNL     1      -4.327   1.401  -3.571  0.00  0.00    -0.489 OA
BRANCH  27  29
ATOM     28  C   UNL     1      -6.188  -0.119  -3.315  0.00  0.00    +0.048 C 
ATOM     29  C   UNL     1      -4.970   0.521  -2.646  0.00  0.00    +0.226 C 
ENDBRANCH  27  29
ENDBRANCH  18  27
ENDBRANCH   1  20
TORSDOF 4
