REMARK  Name = ZINC34686413
REMARK  10 active torsions:
REMARK  status: ('A' for Active; 'I' for Inactive)
REMARK    1  A    between atoms: C_1  and  C_2
REMARK    2  A    between atoms: C_2  and  C_3
REMARK    3  A    between atoms: C_3  and  C_5
REMARK    4  A    between atoms: C_3  and  O_15
REMARK    5  A    between atoms: N_7  and  C_8
REMARK    6  A    between atoms: C_8  and  C_9
REMARK    7  A    between atoms: C_9  and  N_10
REMARK    8  A    between atoms: O_15  and  C_16
REMARK    9  A    between atoms: C_22  and  C_32
REMARK   10  A    between atoms: C_27  and  C_29
REMARK                            x       y       z     vdW  Elec       q    Type
REMARK                         _______ _______ _______ _____ _____    ______ ____
ROOT
ATOM      1  C   UNL     1       2.370   1.167  -1.660  0.00  0.00    +0.122 A 
ATOM      2  C   UNL     1       1.364   2.004  -2.123  0.00  0.00    +0.046 A 
ATOM      3  C   UNL     1       1.681   3.263  -2.584  0.00  0.00    +0.007 A 
ATOM      4  C   UNL     1       2.998   3.707  -2.587  0.00  0.00    -0.040 A 
ATOM      5  C   UNL     1       3.995   2.881  -2.118  0.00  0.00    -0.016 A 
ATOM      6  C   UNL     1       3.681   1.611  -1.655  0.00  0.00    +0.051 A 
ATOM      7  C   UNL     1       5.440   3.310  -2.066  0.00  0.00    +0.137 C 
ATOM      8  N   UNL     1       5.614   4.553  -2.824  0.00  0.00    -0.290 N 
ATOM      9  C   UNL     1       4.613   5.614  -2.622  0.00  0.00    +0.113 C 
ATOM     10  C   UNL     1       3.267   5.090  -3.121  0.00  0.00    +0.054 C 
ATOM     11  C   UNL     1       6.649   4.719  -3.672  0.00  0.00    +0.219 C 
ATOM     12  O   UNL     1       7.460   3.829  -3.820  0.00  0.00    -0.275 OA
ENDROOT
BRANCH   7  13
ATOM     13  C   UNL     1       5.845   3.537  -0.632  0.00  0.00    -0.020 A 
ATOM     14  C   UNL     1       6.947   2.883  -0.113  0.00  0.00    +0.006 A 
ATOM     15  C   UNL     1       7.319   3.090   1.202  0.00  0.00    +0.003 A 
ATOM     16  C   UNL     1       6.589   3.951   1.999  0.00  0.00    +0.038 A 
ATOM     17  C   UNL     1       5.485   4.606   1.481  0.00  0.00    +0.124 A 
ATOM     18  C   UNL     1       5.117   4.402   0.162  0.00  0.00    +0.044 A 
ATOM     19  F   UNL     1       4.771   5.447   2.260  0.00  0.00    -0.205 F 
ENDBRANCH   7  13
BRANCH  11  20
ATOM     20  C   UNL     1       6.798   6.009  -4.436  0.00  0.00    +0.075 C 
ATOM     21  C   UNL     1       6.584   5.963  -5.950  0.00  0.00    +0.013 C 
ATOM     22  C   UNL     1       7.994   6.136  -5.382  0.00  0.00    +0.013 C 
ENDBRANCH  11  20
BRANCH   1  23
ATOM     23  O   UNL     1       2.068  -0.079  -1.208  0.00  0.00    -0.480 OA
BRANCH  23  24
ATOM     24  C   UNL     1       3.134  -0.834  -0.628  0.00  0.00    +0.258 C 
BRANCH  24  25
ATOM     25  C   UNL     1       2.616  -1.601   0.562  0.00  0.00    +0.254 C 
ATOM     26  O   UNL     1       1.433  -1.582   0.827  0.00  0.00    -0.272 OA
ATOM     27  N   UNL     1       3.468  -2.308   1.330  0.00  0.00    -0.314 N 
ATOM     28  H   UNL     1       4.415  -2.323   1.118  0.00  0.00    +0.149 HD
BRANCH  27  29
ATOM     29  C   UNL     1       2.965  -3.053   2.487  0.00  0.00    +0.086 C 
BRANCH  29  30
ATOM     30  C   UNL     1       4.129  -3.763   3.182  0.00  0.00    -0.060 C 
BRANCH  30  31
ATOM     31  N   UNL     1       3.624  -4.510   4.341  0.00  0.00    +0.381 N 
ATOM     32  C   UNL     1       2.791  -5.654   3.890  0.00  0.00    -0.079 C 
ATOM     33  C   UNL     1       2.822  -6.616   5.104  0.00  0.00    -0.020 C 
ATOM     34  C   UNL     1       4.269  -6.466   5.628  0.00  0.00    -0.020 C 
ATOM     35  C   UNL     1       4.750  -5.104   5.095  0.00  0.00    -0.079 C 
ATOM     36  H   UNL     1       3.087  -3.902   4.941  0.00  0.00    -0.082 HD
ENDBRANCH  30  31
ENDBRANCH  29  30
ENDBRANCH  27  29
ENDBRANCH  24  25
BRANCH  24  38
ATOM     37  C   UNL     1       4.326  -1.031  -2.815  0.00  0.00    +0.008 C 
ATOM     38  C   UNL     1       3.688  -1.813  -1.664  0.00  0.00    +0.051 C 
ENDBRANCH  24  38
ENDBRANCH  23  24
ENDBRANCH   1  23
TORSDOF 9
