REMARK  Name = ZINC09777255
REMARK  14 active torsions:
REMARK  status: ('A' for Active; 'I' for Inactive)
REMARK    1  A    between atoms: C_1  and  C_2
REMARK    2  A    between atoms: C_7  and  N_12
REMARK    3  A    between atoms: C_9  and  C_11
REMARK    4  A    between atoms: C_13  and  C_15
REMARK    5  A    between atoms: C_23  and  C_35
REMARK    6  A    between atoms: N_29  and  C_30
REMARK    7  A    between atoms: C_30  and  C_31
REMARK    8  A    between atoms: C_31  and  C_32
REMARK    9  A    between atoms: C_32  and  C_33
REMARK   10  A    between atoms: C_32  and  C_34
REMARK   11  A    between atoms: N_37  and  C_38
REMARK   12  A    between atoms: C_41  and  C_44
REMARK   13  A    between atoms: C_44  and  C_45
REMARK   14  A    between atoms: C_44  and  C_46
REMARK                            x       y       z     vdW  Elec       q    Type
REMARK                         _______ _______ _______ _____ _____    ______ ____
ROOT
ATOM      1  C   UNL     1       1.062  -4.058   1.431  0.00  0.00    +0.198 C 
ATOM      2  C   UNL     1       1.438  -2.608   1.429  0.00  0.00    +0.127 C 
ATOM      3  C   UNL     1       0.629  -1.788   2.417  0.00  0.00    +0.009 C 
ATOM      4  C   UNL     1       1.078  -0.547   2.307  0.00  0.00    +0.004 C 
ATOM      5  C   UNL     1       2.131  -0.603   1.193  0.00  0.00    +0.155 C 
ATOM      6  O   UNL     1       2.692  -1.968   1.391  0.00  0.00    -0.358 OA
ATOM      7  C   UNL     1       1.242  -0.795  -0.096  0.00  0.00    +0.123 C 
ATOM      8  C   UNL     1       0.942  -2.271  -0.034  0.00  0.00    +0.128 C 
ATOM      9  C   UNL     1      -0.387  -2.907  -0.013  0.00  0.00    +0.223 C 
ATOM     10  O   UNL     1      -1.384  -2.516  -0.583  0.00  0.00    -0.275 OA
ATOM     11  N   UNL     1      -0.283  -4.028   0.774  0.00  0.00    -0.287 N 
ENDROOT
BRANCH   1  13
ATOM     12  N   UNL     1       2.081  -4.930   3.509  0.00  0.00    -0.311 N 
ATOM     13  C   UNL     1       0.964  -4.587   2.838  0.00  0.00    +0.237 C 
ATOM     14  O   UNL     1      -0.121  -4.705   3.367  0.00  0.00    -0.274 OA
ATOM     15  H   UNL     1       2.949  -4.836   3.086  0.00  0.00    +0.149 HD
BRANCH  12  21
ATOM     16  C   UNL     1       4.332  -7.715   6.918  0.00  0.00    +0.008 C 
ATOM     17  C   UNL     1       3.108  -6.849   6.612  0.00  0.00    -0.009 C 
ATOM     18  C   UNL     1       3.054  -5.678   7.595  0.00  0.00    +0.003 C 
ATOM     19  C   UNL     1       1.830  -4.812   7.289  0.00  0.00    +0.002 C 
ATOM     20  C   UNL     1       1.930  -4.274   5.860  0.00  0.00    +0.022 C 
ATOM     21  C   UNL     1       1.985  -5.445   4.877  0.00  0.00    +0.076 C 
ATOM     22  C   UNL     1       3.209  -6.311   5.183  0.00  0.00    +0.009 C 
ATOM     23  C   UNL     1       3.263  -7.482   4.200  0.00  0.00    +0.009 C 
ENDBRANCH  12  21
ENDBRANCH   1  13
BRANCH   7  24
ATOM     24  C   UNL     1      -0.024   0.019  -0.006  0.00  0.00    +0.224 C 
ATOM     25  O   UNL     1      -0.991  -0.426   0.575  0.00  0.00    -0.275 OA
ATOM     26  N   UNL     1      -0.081   1.241  -0.572  0.00  0.00    -0.285 N 
ATOM     27  H   UNL     1       0.711   1.623  -0.981  0.00  0.00    +0.155 HD
BRANCH  26  28
ATOM     28  C   UNL     1      -1.284   1.955  -0.573  0.00  0.00    +0.033 A 
ATOM     29  C   UNL     1      -1.610   2.766  -1.652  0.00  0.00    +0.023 A 
ATOM     30  C   UNL     1      -2.801   3.466  -1.653  0.00  0.00    +0.006 A 
ATOM     31  C   UNL     1      -3.663   3.369  -0.576  0.00  0.00    -0.045 A 
ATOM     32  C   UNL     1      -3.338   2.566   0.502  0.00  0.00    +0.006 A 
ATOM     33  C   UNL     1      -2.152   1.859   0.507  0.00  0.00    +0.023 A 
BRANCH  31  34
ATOM     34  C   UNL     1      -4.958   4.138  -0.578  0.00  0.00    +0.013 C 
ATOM     35  C   UNL     1      -4.661   5.636  -0.680  0.00  0.00    +0.012 C 
ATOM     36  C   UNL     1      -5.808   3.704  -1.773  0.00  0.00    +0.012 C 
ENDBRANCH  31  34
ENDBRANCH  26  28
ENDBRANCH   7  24
BRANCH  11  37
ATOM     37  C   UNL     1      -1.328  -5.040   0.946  0.00  0.00    +0.109 C 
BRANCH  37  38
ATOM     38  C   UNL     1      -1.162  -6.130  -0.114  0.00  0.00    +0.022 C 
BRANCH  38  39
ATOM     39  C   UNL     1      -2.254  -7.187   0.065  0.00  0.00    -0.016 C 
ATOM     40  C   UNL     1      -2.165  -8.210  -1.069  0.00  0.00    +0.007 C 
ATOM     41  C   UNL     1      -2.062  -7.896   1.407  0.00  0.00    +0.007 C 
ENDBRANCH  38  39
ENDBRANCH  37  38
ENDBRANCH  11  37
TORSDOF 8
