REMARK  Name = ZINC39672292
REMARK  10 active torsions:
REMARK  status: ('A' for Active; 'I' for Inactive)
REMARK    1  A    between atoms: C_1  and  C_2
REMARK    2  A    between atoms: C_2  and  C_3
REMARK    3  A    between atoms: C_2  and  C_4
REMARK    4  A    between atoms: C_4  and  C_6
REMARK    5  A    between atoms: C_4  and  O_34
REMARK    6  A    between atoms: C_10  and  C_19
REMARK    7  A    between atoms: N_21  and  C_22
REMARK    8  A    between atoms: C_22  and  C_23
REMARK    9  A    between atoms: N_32  and  C_33
REMARK   10  A    between atoms: O_34  and  C_35
REMARK                            x       y       z     vdW  Elec       q    Type
REMARK                         _______ _______ _______ _____ _____    ______ ____
ROOT
ATOM      1  C   UNL     1      -2.189   0.027  -0.938  0.00  0.00    +0.257 C 
ATOM      2  O   UNL     1      -2.819  -0.654  -1.720  0.00  0.00    -0.272 OA
ATOM      3  N   UNL     1      -2.331   1.367  -0.944  0.00  0.00    -0.297 N 
ATOM      4  C   UNL     1      -1.592   2.363  -0.133  0.00  0.00    +0.121 C 
ATOM      5  C   UNL     1      -1.343   3.544  -1.097  0.00  0.00    +0.100 C 
ATOM      6  C   UNL     1      -2.443   3.419  -2.164  0.00  0.00    -0.004 C 
ATOM      7  C   UNL     1      -3.258   2.179  -1.769  0.00  0.00    +0.115 C 
ATOM      8  C   UNL     1      -3.331   4.660  -2.156  0.00  0.00    -0.010 C 
ATOM      9  C   UNL     1      -4.381   4.537  -3.264  0.00  0.00    -0.082 C 
ATOM     10  N   UNL     1      -3.711   4.399  -4.563  0.00  0.00    +0.379 N 
ATOM     11  C   UNL     1      -2.933   3.154  -4.594  0.00  0.00    -0.082 C 
ATOM     12  C   UNL     1      -1.821   3.218  -3.542  0.00  0.00    -0.010 C 
ATOM     13  H   UNL     1      -4.403   4.379  -5.296  0.00  0.00    -0.086 HD
ATOM     14  H   UNL     1      -3.094   5.184  -4.707  0.00  0.00    -0.086 HD
ENDROOT
BRANCH   5  15
ATOM     15  C   UNL     1      -1.467   4.855  -0.363  0.00  0.00    +0.218 C 
ATOM     16  O   UNL     1      -2.153   4.929   0.635  0.00  0.00    -0.275 OA
ATOM     17  N   UNL     1      -0.817   5.945  -0.816  0.00  0.00    -0.311 N 
ATOM     18  H   UNL     1      -0.268   5.886  -1.614  0.00  0.00    +0.149 HD
BRANCH  17  19
ATOM     19  C   UNL     1      -0.937   7.219  -0.103  0.00  0.00    +0.139 C 
BRANCH  19  20
ATOM     20  C   UNL     1      -0.119   8.269  -0.809  0.00  0.00    -0.030 A 
ATOM     21  C   UNL     1       1.206   8.459  -0.462  0.00  0.00    +0.007 A 
ATOM     22  C   UNL     1       1.955   9.422  -1.108  0.00  0.00    +0.024 A 
ATOM     23  C   UNL     1       1.378  10.200  -2.106  0.00  0.00    +0.033 A 
ATOM     24  C   UNL     1       0.050  10.007  -2.455  0.00  0.00    -0.026 A 
ATOM     25  C   UNL     1      -0.693   9.036  -1.804  0.00  0.00    +0.010 A 
ATOM     26  C   UNL     1      -0.606  10.822  -3.538  0.00  0.00    +0.038 C 
ATOM     27  C   UNL     1       0.168  12.119  -3.774  0.00  0.00    +0.024 C 
ATOM     28  C   UNL     1       1.650  11.781  -3.985  0.00  0.00    +0.105 C 
ATOM     29  N   UNL     1       2.153  11.174  -2.745  0.00  0.00    -0.333 N 
ATOM     30  C   UNL     1       3.444  11.582  -2.187  0.00  0.00    +0.129 C 
ENDBRANCH  19  20
ENDBRANCH  17  19
ENDBRANCH   5  15
BRANCH   1  31
ATOM     31  C   UNL     1      -1.246  -0.626   0.040  0.00  0.00    +0.261 C 
BRANCH  31  33
ATOM     32  C   UNL     1       0.717   0.571  -0.937  0.00  0.00    +0.011 C 
ATOM     33  C   UNL     1       0.126  -0.803  -0.614  0.00  0.00    +0.033 C 
ATOM     34  C   UNL     1       1.057  -1.546   0.346  0.00  0.00    +0.011 C 
ENDBRANCH  31  33
BRANCH  31  35
ATOM     35  O   UNL     1      -1.762  -1.905   0.417  0.00  0.00    -0.479 OA
BRANCH  35  36
ATOM     36  C   UNL     1      -1.509  -2.322   1.685  0.00  0.00    +0.122 A 
ATOM     37  C   UNL     1      -0.857  -1.482   2.576  0.00  0.00    +0.045 A 
ATOM     38  C   UNL     1      -0.601  -1.909   3.865  0.00  0.00    +0.004 A 
ATOM     39  C   UNL     1      -0.993  -3.172   4.267  0.00  0.00    +0.000 A 
ATOM     40  C   UNL     1      -1.643  -4.011   3.381  0.00  0.00    +0.004 A 
ATOM     41  C   UNL     1      -1.907  -3.587   2.093  0.00  0.00    +0.045 A 
ENDBRANCH  35  36
ENDBRANCH  31  35
ENDBRANCH   1  31
TORSDOF 7
