REMARK  Name = ZINC16021643
REMARK  11 active torsions:
REMARK  status: ('A' for Active; 'I' for Inactive)
REMARK    1  A    between atoms: C_1  and  C_2
REMARK    2  A    between atoms: C_2  and  C_3
REMARK    3  A    between atoms: C_2  and  O_4
REMARK    4  A    between atoms: O_4  and  C_5
REMARK    5  A    between atoms: C_8  and  C_11
REMARK    6  A    between atoms: C_11  and  C_13
REMARK    7  A    between atoms: C_15  and  C_28
REMARK    8  A    between atoms: C_31  and  O_36
REMARK    9  A    between atoms: C_33  and  O_34
REMARK   10  A    between atoms: O_34  and  C_35
REMARK   11  A    between atoms: O_36  and  C_37
REMARK                            x       y       z     vdW  Elec       q    Type
REMARK                         _______ _______ _______ _____ _____    ______ ____
ROOT
ATOM      1  C   UNL     1       2.152   0.041   0.019  0.00  0.00    +0.173 C 
ATOM      2  C   UNL     1       0.880   0.869  -0.052  0.00  0.00    +0.106 C 
ATOM      3  N   UNL     1       1.201   2.117   0.072  0.00  0.00    -0.086 NA
ATOM      4  O   UNL     1       2.596   2.313   0.225  0.00  0.00    -0.371 OA
ATOM      5  C   UNL     1       3.167   1.051   0.574  0.00  0.00    +0.255 C 
ATOM      6  C   UNL     1       3.357   0.897   2.053  0.00  0.00    +0.030 A 
ATOM      7  C   UNL     1       2.504   0.957   3.133  0.00  0.00    +0.010 A 
ATOM      8  C   UNL     1       2.993   0.768   4.413  0.00  0.00    +0.001 A 
ATOM      9  C   UNL     1       4.340   0.521   4.606  0.00  0.00    +0.002 A 
ATOM     10  C   UNL     1       5.198   0.460   3.529  0.00  0.00    +0.024 A 
ATOM     11  C   UNL     1       4.714   0.646   2.236  0.00  0.00    +0.041 A 
ATOM     12  N   UNL     1       5.372   0.629   1.004  0.00  0.00    -0.281 N 
ATOM     13  C   UNL     1       4.531   0.856  -0.025  0.00  0.00    +0.270 C 
ATOM     14  O   UNL     1       4.818   0.894  -1.202  0.00  0.00    -0.271 OA
ATOM     15  H   UNL     1       6.324   0.471   0.900  0.00  0.00    +0.155 HD
ENDROOT
BRANCH   2  16
ATOM     16  C   UNL     1      -0.485   0.342  -0.231  0.00  0.00    +0.042 A 
ATOM     17  C   UNL     1      -0.686  -1.022  -0.458  0.00  0.00    +0.017 A 
ATOM     18  C   UNL     1      -1.962  -1.510  -0.625  0.00  0.00    +0.046 A 
ATOM     19  C   UNL     1      -3.054  -0.651  -0.567  0.00  0.00    +0.124 A 
ATOM     20  C   UNL     1      -2.865   0.705  -0.342  0.00  0.00    +0.091 A 
ATOM     21  C   UNL     1      -1.587   1.207  -0.168  0.00  0.00    +0.133 A 
BRANCH  21  22
ATOM     22  O   UNL     1      -1.401   2.533   0.058  0.00  0.00    -0.494 OA
ATOM     23  C   UNL     1      -2.570   3.352   0.109  0.00  0.00    +0.277 C 
ENDBRANCH  21  22
BRANCH  19  24
ATOM     24  O   UNL     1      -4.310  -1.140  -0.732  0.00  0.00    -0.495 OA
ATOM     25  C   UNL     1      -4.433  -2.545  -0.961  0.00  0.00    +0.277 C 
ENDBRANCH  19  24
ENDBRANCH   2  16
BRANCH   1  26
ATOM     26  C   UNL     1       2.561  -0.433  -1.352  0.00  0.00    +0.177 C 
ATOM     27  O   UNL     1       2.261   0.215  -2.332  0.00  0.00    -0.291 OA
BRANCH  26  31
ATOM     28  C   UNL     1       4.756  -4.030  -1.781  0.00  0.00    +0.121 A 
ATOM     29  C   UNL     1       4.497  -3.238  -2.895  0.00  0.00    +0.046 A 
ATOM     30  C   UNL     1       3.788  -2.073  -2.761  0.00  0.00    +0.015 A 
ATOM     31  C   UNL     1       3.322  -1.680  -1.500  0.00  0.00    +0.018 A 
ATOM     32  C   UNL     1       3.589  -2.478  -0.381  0.00  0.00    +0.015 A 
ATOM     33  C   UNL     1       4.295  -3.644  -0.526  0.00  0.00    +0.046 A 
BRANCH  28  34
ATOM     34  O   UNL     1       5.459  -5.181  -1.918  0.00  0.00    -0.489 OA
BRANCH  34  36
ATOM     35  C   UNL     1       7.097  -4.879  -3.669  0.00  0.00    +0.051 C 
ATOM     36  C   UNL     1       5.803  -5.577  -3.248  0.00  0.00    +0.167 C 
ATOM     37  C   UNL     1       6.002  -7.093  -3.293  0.00  0.00    +0.051 C 
ENDBRANCH  34  36
ENDBRANCH  28  34
ENDBRANCH  26  31
ENDBRANCH   1  26
TORSDOF 7
