REMARK  Name = ZINC39665541
REMARK  12 active torsions:
REMARK  status: ('A' for Active; 'I' for Inactive)
REMARK    1  A    between atoms: C_1  and  C_2
REMARK    2  A    between atoms: C_2  and  C_4
REMARK    3  A    between atoms: C_2  and  O_31
REMARK    4  A    between atoms: C_4  and  N_5
REMARK    5  A    between atoms: C_6  and  C_8
REMARK    6  A    between atoms: C_19  and  C_21
REMARK    7  A    between atoms: C_26  and  O_27
REMARK    8  A    between atoms: O_27  and  C_28
REMARK    9  A    between atoms: C_28  and  C_30
REMARK   10  A    between atoms: O_31  and  C_32
REMARK   11  A    between atoms: C_35  and  O_38
REMARK   12  A    between atoms: O_38  and  C_39
REMARK                            x       y       z     vdW  Elec       q    Type
REMARK                         _______ _______ _______ _____ _____    ______ ____
ROOT
ATOM      1  C   UNL     1       2.534  -2.034   4.048  0.00  0.00    +0.100 C 
ATOM      2  C   UNL     1       1.202  -2.775   4.302  0.00  0.00    +0.121 C 
ATOM      3  N   UNL     1       1.462  -3.616   5.494  0.00  0.00    -0.296 N 
ATOM      4  C   UNL     1       2.293  -2.760   6.375  0.00  0.00    +0.115 C 
ATOM      5  C   UNL     1       3.247  -2.026   5.411  0.00  0.00    -0.004 C 
ATOM      6  C   UNL     1       3.470  -0.592   5.882  0.00  0.00    -0.010 C 
ATOM      7  C   UNL     1       4.232  -0.608   7.210  0.00  0.00    -0.082 C 
ATOM      8  N   UNL     1       5.519  -1.291   7.030  0.00  0.00    +0.379 N 
ATOM      9  C   UNL     1       5.293  -2.696   6.668  0.00  0.00    -0.082 C 
ATOM     10  C   UNL     1       4.576  -2.768   5.317  0.00  0.00    -0.010 C 
ATOM     11  C   UNL     1       1.039  -4.874   5.726  0.00  0.00    +0.250 C 
ATOM     12  O   UNL     1       1.271  -5.407   6.794  0.00  0.00    -0.270 OA
ATOM     13  H   UNL     1       6.040  -0.836   6.296  0.00  0.00    -0.086 HD
ATOM     14  H   UNL     1       6.045  -1.247   7.890  0.00  0.00    -0.086 HD
ENDROOT
BRANCH  11  15
ATOM     15  C   UNL     1       0.294  -5.606   4.683  0.00  0.00    +0.079 A 
ATOM     16  C   UNL     1      -0.669  -4.948   3.915  0.00  0.00    +0.017 A 
ATOM     17  C   UNL     1      -1.361  -5.637   2.942  0.00  0.00    +0.001 A 
ATOM     18  C   UNL     1      -1.105  -6.981   2.722  0.00  0.00    +0.004 A 
ATOM     19  C   UNL     1      -0.156  -7.643   3.474  0.00  0.00    +0.047 A 
ATOM     20  C   UNL     1       0.553  -6.964   4.454  0.00  0.00    +0.144 A 
BRANCH  20  21
ATOM     21  O   UNL     1       1.490  -7.613   5.191  0.00  0.00    -0.425 OA
BRANCH  21  22
ATOM     22  C   UNL     1       2.773  -7.516   4.806  0.00  0.00    +0.309 C 
ATOM     23  O   UNL     1       3.074  -6.800   3.879  0.00  0.00    -0.251 OA
ATOM     24  C   UNL     1       3.839  -8.298   5.530  0.00  0.00    +0.136 C 
ENDBRANCH  21  22
ENDBRANCH  20  21
ENDBRANCH  11  15
BRANCH   1  26
ATOM     25  N   UNL     1       3.151  -0.006   2.774  0.00  0.00    -0.312 N 
ATOM     26  C   UNL     1       2.270  -0.625   3.585  0.00  0.00    +0.218 C 
ATOM     27  O   UNL     1       1.266  -0.047   3.942  0.00  0.00    -0.275 OA
ATOM     28  H   UNL     1       3.955  -0.469   2.488  0.00  0.00    +0.149 HD
BRANCH  25  29
ATOM     29  C   UNL     1       2.895   1.364   2.324  0.00  0.00    +0.148 C 
BRANCH  29  31
ATOM     30  C   UNL     1       3.773   3.257   0.950  0.00  0.00    +0.053 C 
ATOM     31  C   UNL     1       4.040   1.826   1.420  0.00  0.00    +0.187 C 
BRANCH  31  32
ATOM     32  O   UNL     1       5.269   1.786   2.150  0.00  0.00    -0.488 OA
BRANCH  32  33
ATOM     33  C   UNL     1       6.409   1.616   1.430  0.00  0.00    +0.121 A 
ATOM     34  C   UNL     1       7.628   1.488   2.080  0.00  0.00    +0.049 A 
ATOM     35  C   UNL     1       8.786   1.315   1.348  0.00  0.00    +0.049 A 
ATOM     36  C   UNL     1       8.731   1.270  -0.037  0.00  0.00    +0.120 A 
ATOM     37  C   UNL     1       7.513   1.397  -0.687  0.00  0.00    +0.049 A 
ATOM     38  C   UNL     1       6.354   1.566   0.045  0.00  0.00    +0.049 A 
BRANCH  36  39
ATOM     39  O   UNL     1       9.872   1.100  -0.757  0.00  0.00    -0.495 OA
ATOM     40  C   UNL     1       9.742   1.063  -2.180  0.00  0.00    +0.277 C 
ENDBRANCH  36  39
ENDBRANCH  32  33
ENDBRANCH  31  32
ENDBRANCH  29  31
ENDBRANCH  25  29
ENDBRANCH   1  26
TORSDOF 9
