REMARK  Name = ZINC09386418
REMARK  11 active torsions:
REMARK  status: ('A' for Active; 'I' for Inactive)
REMARK    1  A    between atoms: C_1  and  C_2
REMARK    2  A    between atoms: C_2  and  C_3
REMARK    3  A    between atoms: C_2  and  C_4
REMARK    4  A    between atoms: C_7  and  C_10
REMARK    5  A    between atoms: C_10  and  C_36
REMARK    6  A    between atoms: N_13  and  C_17
REMARK    7  A    between atoms: C_17  and  C_18
REMARK    8  A    between atoms: N_20  and  C_21
REMARK    9  A    between atoms: C_26  and  C_27
REMARK   10  A    between atoms: N_29  and  C_30
REMARK   11  A    between atoms: C_30  and  C_31
REMARK                            x       y       z     vdW  Elec       q    Type
REMARK                         _______ _______ _______ _____ _____    ______ ____
ROOT
ATOM      1  C   UNL     1       2.357   6.110   3.874  0.00  0.00    +0.235 C 
ATOM      2  O   UNL     1       1.615   5.150   3.888  0.00  0.00    -0.274 OA
ATOM      3  N   UNL     1       2.332   6.995   4.890  0.00  0.00    -0.284 N 
ATOM      4  H   UNL     1       2.978   7.718   4.920  0.00  0.00    +0.155 HD
ENDROOT
BRANCH   3   5
ATOM      5  C   UNL     1       1.377   6.873   5.897  0.00  0.00    +0.046 A 
ATOM      6  C   UNL     1       0.173   6.230   5.642  0.00  0.00    +0.024 A 
ATOM      7  C   UNL     1      -0.772   6.111   6.641  0.00  0.00    +0.002 A 
ATOM      8  C   UNL     1      -0.528   6.629   7.903  0.00  0.00    +0.001 A 
ATOM      9  C   UNL     1       0.662   7.270   8.174  0.00  0.00    +0.015 A 
ATOM     10  C   UNL     1       1.630   7.394   7.174  0.00  0.00    +0.058 A 
BRANCH  10  11
ATOM     11  C   UNL     1       2.908   8.073   7.459  0.00  0.00    +0.246 C 
ATOM     12  O   UNL     1       3.708   8.263   6.564  0.00  0.00    -0.270 OA
ATOM     13  N   UNL     1       3.188   8.483   8.712  0.00  0.00    -0.304 N 
ATOM     14  H   UNL     1       2.550   8.332   9.427  0.00  0.00    +0.149 HD
BRANCH  13  15
ATOM     15  C   UNL     1       4.457   9.158   8.995  0.00  0.00    +0.179 C 
BRANCH  15  16
ATOM     16  C   UNL     1       4.523   9.511  10.459  0.00  0.00    +0.122 A 
ATOM     17  C   UNL     1       5.023   8.730  11.434  0.00  0.00    +0.046 A 
ATOM     18  C   UNL     1       4.886   9.449  12.644  0.00  0.00    +0.041 A 
ATOM     19  C   UNL     1       4.310  10.625  12.336  0.00  0.00    +0.195 A 
ATOM     20  O   UNL     1       4.098  10.659  11.010  0.00  0.00    -0.466 OA
ENDBRANCH  15  16
ENDBRANCH  13  15
ENDBRANCH  10  11
ENDBRANCH   3   5
BRANCH   1  21
ATOM     21  C   UNL     1       3.306   6.312   2.721  0.00  0.00    +0.214 C 
BRANCH  21  25
ATOM     22  C   UNL     1       2.451   3.928   0.005  0.00  0.00    +0.135 C 
ATOM     23  C   UNL     1       2.279   5.253   0.721  0.00  0.00    +0.251 C 
ATOM     24  O   UNL     1       1.523   6.152   0.423  0.00  0.00    -0.272 OA
ATOM     25  N   UNL     1       3.141   5.223   1.756  0.00  0.00    -0.215 N 
ATOM     26  C   UNL     1       3.828   4.075   1.793  0.00  0.00    +0.310 C 
ATOM     27  O   UNL     1       4.664   3.815   2.636  0.00  0.00    -0.252 OA
ATOM     28  N   UNL     1       3.488   3.240   0.794  0.00  0.00    -0.281 N 
ATOM     29  C   UNL     1       2.924   4.150  -1.433  0.00  0.00    +0.047 C 
ATOM     30  H   UNL     1       3.855   2.358   0.626  0.00  0.00    +0.152 HD
BRANCH  22  34
ATOM     31  C   UNL     1      -1.196   1.705   0.051  0.00  0.00    -0.045 A 
ATOM     32  C   UNL     1       0.017   1.042   0.036  0.00  0.00    +0.004 A 
ATOM     33  C   UNL     1       1.197   1.762   0.019  0.00  0.00    +0.006 A 
ATOM     34  C   UNL     1       1.165   3.144   0.023  0.00  0.00    -0.015 A 
ATOM     35  C   UNL     1      -0.048   3.806   0.044  0.00  0.00    +0.006 A 
ATOM     36  C   UNL     1      -1.229   3.087   0.061  0.00  0.00    +0.004 A 
BRANCH  31  38
ATOM     37  C   UNL     1      -3.280   1.268   1.321  0.00  0.00    +0.012 C 
ATOM     38  C   UNL     1      -2.483   0.921   0.062  0.00  0.00    +0.013 C 
ATOM     39  C   UNL     1      -3.308   1.275  -1.177  0.00  0.00    +0.012 C 
ENDBRANCH  31  38
ENDBRANCH  22  34
ENDBRANCH  21  25
ENDBRANCH   1  21
TORSDOF 8
