REMARK  Name = ZINC20569598
REMARK  9 active torsions:
REMARK  status: ('A' for Active; 'I' for Inactive)
REMARK    1  A    between atoms: C_1  and  C_2
REMARK    2  A    between atoms: C_7  and  C_22
REMARK    3  A    between atoms: C_9  and  C_13
REMARK    4  A    between atoms: C_10  and  C_12
REMARK    5  A    between atoms: C_13  and  O_15
REMARK    6  A    between atoms: O_15  and  C_16
REMARK    7  A    between atoms: C_31  and  C_33
REMARK    8  A    between atoms: C_33  and  O_35
REMARK    9  A    between atoms: O_35  and  C_36
REMARK                            x       y       z     vdW  Elec       q    Type
REMARK                         _______ _______ _______ _____ _____    ______ ____
ROOT
ATOM      1  C   UNL     1       2.334   0.076  -1.244  0.00  0.00    +0.009 C 
ATOM      2  C   UNL     1       2.460   0.997  -0.029  0.00  0.00    +0.013 C 
ATOM      3  C   UNL     1       3.757   1.803  -0.126  0.00  0.00    +0.055 C 
ATOM      4  C   UNL     1       3.727   2.663  -1.365  0.00  0.00    +0.016 C 
ATOM      5  C   UNL     1       2.562   3.144  -1.849  0.00  0.00    +0.025 C 
ATOM      6  C   UNL     1       2.541   4.018  -3.079  0.00  0.00    +0.092 C 
ATOM      7  C   UNL     1       3.819   3.885  -3.854  0.00  0.00    +0.065 C 
ATOM      8  C   UNL     1       4.926   3.370  -3.292  0.00  0.00    +0.016 C 
ATOM      9  N   UNL     1       4.910   2.946  -1.993  0.00  0.00    -0.321 N 
ATOM     10  C   UNL     1       6.193   3.259  -4.100  0.00  0.00    +0.061 C 
ATOM     11  C   UNL     1       1.339   2.848  -1.223  0.00  0.00    +0.176 C 
ATOM     12  O   UNL     1       0.309   3.306  -1.679  0.00  0.00    -0.291 OA
ATOM     13  C   UNL     1       1.280   1.975   0.000  0.00  0.00    +0.171 C 
ATOM     14  H   UNL     1       5.861   2.833  -1.451  0.00  0.00    +0.152 HD
ENDROOT
BRANCH   6  15
ATOM     15  C   UNL     1       2.362   5.455  -2.661  0.00  0.00    -0.034 A 
ATOM     16  C   UNL     1       3.290   6.054  -1.830  0.00  0.00    +0.004 A 
ATOM     17  C   UNL     1       3.129   7.373  -1.451  0.00  0.00    +0.002 A 
ATOM     18  C   UNL     1       2.034   8.091  -1.894  0.00  0.00    +0.020 A 
ATOM     19  C   UNL     1       1.103   7.491  -2.721  0.00  0.00    +0.041 A 
ATOM     20  C   UNL     1       1.267   6.171  -3.105  0.00  0.00    +0.024 A 
ATOM     21 CL   UNL     1      -0.273   8.392  -3.278  0.00  0.00    -0.084 Cl
ENDBRANCH   6  15
BRANCH   7  22
ATOM     22  C   UNL     1       3.859   4.311  -5.203  0.00  0.00    +0.338 C 
ATOM     23  O   UNL     1       4.889   4.209  -5.843  0.00  0.00    -0.245 OA
BRANCH  22  24
ATOM     24  O   UNL     1       2.755   4.830  -5.780  0.00  0.00    -0.458 OA
BRANCH  24  25
ATOM     25  C   UNL     1       2.867   5.239  -7.144  0.00  0.00    +0.177 C 
ATOM     26  C   UNL     1       3.304   6.704  -7.203  0.00  0.00    +0.044 C 
ATOM     27  C   UNL     1       3.424   7.142  -8.664  0.00  0.00    +0.004 C 
ATOM     28  C   UNL     1       2.069   6.985  -9.357  0.00  0.00    +0.000 C 
ATOM     29  C   UNL     1       1.632   5.520  -9.298  0.00  0.00    +0.004 C 
ATOM     30  C   UNL     1       1.512   5.082  -7.837  0.00  0.00    +0.044 C 
ENDBRANCH  24  25
ENDBRANCH  22  24
ENDBRANCH   7  22
BRANCH  13  31
ATOM     31  C   UNL     1      -0.014   1.204   0.009  0.00  0.00    +0.318 C 
ATOM     32  O   UNL     1       0.002  -0.004   0.002  0.00  0.00    -0.250 OA
BRANCH  31  33
ATOM     33  O   UNL     1      -1.186   1.859   0.018  0.00  0.00    -0.467 OA
ATOM     34  C   UNL     1      -2.393   1.052   0.019  0.00  0.00    +0.280 C 
ENDBRANCH  31  33
ENDBRANCH  13  31
TORSDOF 6
