REMARK  Name = ZINC09596387
REMARK  7 active torsions:
REMARK  status: ('A' for Active; 'I' for Inactive)
REMARK    1  A    between atoms: C_1  and  C_2
REMARK    2  A    between atoms: C_2  and  C_4
REMARK    3  A    between atoms: C_2  and  N_62
REMARK    4  A    between atoms: N_6  and  C_7
REMARK    5  A    between atoms: C_12  and  C_13
REMARK    6  A    between atoms: N_22  and  S_25
REMARK    7  A    between atoms: S_25  and  C_28
REMARK                            x       y       z     vdW  Elec       q    Type
REMARK                         _______ _______ _______ _____ _____    ______ ____
ROOT
ATOM      1  C   UNL     1       1.587   2.896   1.353  0.00  0.00    -0.004 C 
ATOM      2  C   UNL     1       1.320   1.931   0.197  0.00  0.00    +0.016 C 
ENDROOT
BRANCH   2   9
ATOM      3  C   UNL     1       2.183  -0.143   1.084  0.00  0.00    -0.076 C 
ATOM      4  C   UNL     1       2.675  -1.442   0.484  0.00  0.00    -0.001 C 
ATOM      5  C   UNL     1       4.138  -1.680   0.896  0.00  0.00    +0.107 C 
ATOM      6  N   UNL     1       4.915  -0.425   0.864  0.00  0.00    -0.178 NA
ATOM      7  C   UNL     1       4.775   0.550  -0.199  0.00  0.00    +0.091 C 
ATOM      8  C   UNL     1       3.669   1.567   0.168  0.00  0.00    -0.060 C 
ATOM      9  N   UNL     1       2.380   0.927   0.063  0.00  0.00    +0.388 N 
ATOM     10  H   UNL     1       2.313   0.498  -0.868  0.00  0.00    -0.081 HD
BRANCH   6  11
ATOM     11  S   UNL     1       5.985  -0.119   2.089  0.00  0.00    +0.061 S 
ATOM     12  O   UNL     1       6.340  -1.380   2.642  0.00  0.00    -0.153 OA
ATOM     13  O   UNL     1       6.951   0.783   1.569  0.00  0.00    -0.153 OA
BRANCH  11  14
ATOM     14  C   UNL     1       5.107   0.751   3.344  0.00  0.00    +0.106 A 
ATOM     15  C   UNL     1       5.061   2.133   3.323  0.00  0.00    +0.031 A 
ATOM     16  C   UNL     1       4.368   2.817   4.304  0.00  0.00    +0.040 A 
ATOM     17  C   UNL     1       3.728   2.118   5.314  0.00  0.00    +0.124 A 
ATOM     18  C   UNL     1       3.779   0.734   5.337  0.00  0.00    +0.040 A 
ATOM     19  C   UNL     1       4.468   0.052   4.352  0.00  0.00    +0.031 A 
ATOM     20  F   UNL     1       3.054   2.785   6.276  0.00  0.00    -0.205 F 
ENDBRANCH  11  14
ENDBRANCH   6  11
ENDBRANCH   2   9
BRANCH   2  21
ATOM     21  C   UNL     1       1.261   2.702  -1.097  0.00  0.00    +0.203 C 
ATOM     22  O   UNL     1       2.114   2.535  -1.942  0.00  0.00    -0.277 OA
ATOM     23  N   UNL     1       0.262   3.581  -1.312  0.00  0.00    -0.286 N 
ATOM     24  H   UNL     1      -0.381   3.766  -0.610  0.00  0.00    +0.155 HD
BRANCH  23  25
ATOM     25  C   UNL     1       0.153   4.226  -2.547  0.00  0.00    +0.041 A 
ATOM     26  C   UNL     1       1.295   4.564  -3.260  0.00  0.00    +0.024 A 
ATOM     27  C   UNL     1       1.185   5.197  -4.482  0.00  0.00    +0.002 A 
ATOM     28  C   UNL     1      -0.061   5.508  -4.998  0.00  0.00    +0.001 A 
ATOM     29  C   UNL     1      -1.205   5.184  -4.298  0.00  0.00    +0.010 A 
ATOM     30  C   UNL     1      -1.107   4.540  -3.067  0.00  0.00    +0.003 A 
BRANCH  30  31
ATOM     31  C   UNL     1      -2.334   4.188  -2.311  0.00  0.00    -0.016 A 
ATOM     32  C   UNL     1      -2.508   2.894  -1.823  0.00  0.00    +0.008 A 
ATOM     33  C   UNL     1      -3.649   2.574  -1.115  0.00  0.00    +0.001 A 
ATOM     34  C   UNL     1      -4.624   3.532  -0.900  0.00  0.00    +0.000 A 
ATOM     35  C   UNL     1      -4.459   4.816  -1.387  0.00  0.00    +0.001 A 
ATOM     36  C   UNL     1      -3.319   5.149  -2.091  0.00  0.00    +0.008 A 
ENDBRANCH  30  31
ENDBRANCH  23  25
ENDBRANCH   2  21
TORSDOF 6
