REMARK  Name = ZINC63844031
REMARK  13 active torsions:
REMARK  status: ('A' for Active; 'I' for Inactive)
REMARK    1  A    between atoms: C_1  and  C_2
REMARK    2  A    between atoms: C_2  and  C_4
REMARK    3  A    between atoms: C_7  and  O_35
REMARK    4  A    between atoms: C_8  and  C_10
REMARK    5  A    between atoms: C_10  and  C_11
REMARK    6  A    between atoms: N_13  and  C_14
REMARK    7  A    between atoms: C_14  and  C_15
REMARK    8  A    between atoms: C_15  and  C_17
REMARK    9  A    between atoms: C_15  and  C_26
REMARK   10  A    between atoms: C_20  and  N_23
REMARK   11  A    between atoms: N_23  and  C_24
REMARK   12  A    between atoms: N_23  and  C_25
REMARK   13  A    between atoms: O_35  and  C_36
REMARK                            x       y       z     vdW  Elec       q    Type
REMARK                         _______ _______ _______ _____ _____    ______ ____
ROOT
ATOM      1  C   UNL     1      -2.676  -8.199  -3.030  0.00  0.00    +0.064 C 
ENDROOT
BRANCH   1   2
ATOM      2  C   UNL     1      -3.906  -8.697  -2.316  0.00  0.00    -0.033 C 
ATOM      3  C   UNL     1      -3.946  -9.473  -1.209  0.00  0.00    -0.000 A 
ATOM      4  C   UNL     1      -2.896 -10.066  -0.372  0.00  0.00    +0.010 A 
ATOM      5  C   UNL     1      -3.253 -10.815   0.696  0.00  0.00    +0.001 A 
ATOM      6  C   UNL     1      -4.598 -11.040   1.022  0.00  0.00    +0.002 A 
ATOM      7  C   UNL     1      -5.618 -10.529   0.300  0.00  0.00    +0.026 A 
ATOM      8  C   UNL     1      -5.358  -9.726  -0.844  0.00  0.00    +0.043 A 
ATOM      9  N   UNL     1      -6.160  -9.128  -1.691  0.00  0.00    -0.380 N 
ATOM     10  C   UNL     1      -5.346  -8.423  -2.688  0.00  0.00    +0.145 C 
ATOM     11  H   UNL     1      -7.130  -9.145  -1.661  0.00  0.00    +0.160 HD
ENDBRANCH   1   2
BRANCH   1  12
ATOM     12  C   UNL     1      -2.683  -8.700  -4.451  0.00  0.00    -0.039 A 
ATOM     13  C   UNL     1      -3.719  -8.355  -5.299  0.00  0.00    +0.006 A 
ATOM     14  C   UNL     1      -3.728  -8.813  -6.602  0.00  0.00    +0.023 A 
ATOM     15  C   UNL     1      -2.695  -9.620  -7.061  0.00  0.00    +0.029 A 
ATOM     16  C   UNL     1      -1.655  -9.965  -6.206  0.00  0.00    +0.023 A 
ATOM     17  C   UNL     1      -1.650  -9.499  -4.906  0.00  0.00    +0.006 A 
BRANCH  15  18
ATOM     18  N   UNL     1      -2.701 -10.085  -8.378  0.00  0.00    -0.336 N 
ATOM     19  C   UNL     1      -3.857  -9.827  -9.240  0.00  0.00    +0.129 C 
ATOM     20  C   UNL     1      -1.552 -10.831  -8.897  0.00  0.00    +0.129 C 
ENDBRANCH  15  18
ENDBRANCH   1  12
BRANCH   1  21
ATOM     21  C   UNL     1      -2.670  -6.669  -3.029  0.00  0.00    +0.116 C 
BRANCH  21  24
ATOM     22  C   UNL     1      -2.515  -4.857  -1.407  0.00  0.00    +0.217 C 
ATOM     23  O   UNL     1      -2.595  -4.068  -2.324  0.00  0.00    -0.275 OA
ATOM     24  N   UNL     1      -2.543  -6.182  -1.653  0.00  0.00    -0.314 N 
ATOM     25  H   UNL     1      -2.479  -6.813  -0.919  0.00  0.00    +0.149 HD
BRANCH  22  26
ATOM     26  C   UNL     1      -2.385  -4.357   0.009  0.00  0.00    +0.134 C 
BRANCH  26  31
ATOM     27  C   UNL     1      -1.184  -0.766   0.008  0.00  0.00    +0.018 A 
ATOM     28  C   UNL     1      -2.399  -0.071   0.012  0.00  0.00    +0.015 A 
ATOM     29  C   UNL     1      -3.579  -0.758   0.016  0.00  0.00    +0.046 A 
ATOM     30  C   UNL     1      -3.580  -2.149   0.015  0.00  0.00    +0.124 A 
ATOM     31  C   UNL     1      -2.378  -2.850   0.010  0.00  0.00    +0.004 A 
ATOM     32  C   UNL     1      -1.183  -2.166   0.002  0.00  0.00    +0.019 A 
BRANCH  27  34
ATOM     33  C   UNL     1       0.084   1.478   0.011  0.00  0.00    +0.091 C 
ATOM     34  C   UNL     1       0.087  -0.029   0.004  0.00  0.00    +0.160 C 
ATOM     35  O   UNL     1       1.138  -0.633  -0.005  0.00  0.00    -0.292 OA
ENDBRANCH  27  34
BRANCH  30  36
ATOM     36  O   UNL     1      -4.756  -2.825   0.018  0.00  0.00    -0.495 OA
ATOM     37  C   UNL     1      -5.953  -2.044   0.023  0.00  0.00    +0.277 C 
ENDBRANCH  30  36
ENDBRANCH  26  31
ENDBRANCH  22  26
ENDBRANCH  21  24
ENDBRANCH   1  21
TORSDOF 9
