REMARK  Name = ZINC11995809
REMARK  6 active torsions:
REMARK  status: ('A' for Active; 'I' for Inactive)
REMARK    1  A    between atoms: C_8  and  C_10
REMARK    2  A    between atoms: C_10  and  N_65
REMARK    3  A    between atoms: C_13  and  C_16
REMARK    4  A    between atoms: C_16  and  C_30
REMARK    5  A    between atoms: N_19  and  C_23
REMARK    6  A    between atoms: C_23  and  C_24
REMARK                            x       y       z     vdW  Elec       q    Type
REMARK                         _______ _______ _______ _____ _____    ______ ____
ROOT
ATOM      1  C   UNL     1       1.181   2.140   0.002  0.00  0.00    +0.157 C 
ATOM      2  C   UNL     1      -0.014   1.208   0.009  0.00  0.00    +0.253 C 
ATOM      3  O   UNL     1       0.002  -0.004   0.002  0.00  0.00    -0.272 OA
ATOM      4  N   UNL     1      -1.099   2.007   0.017  0.00  0.00    -0.221 N 
ATOM      5  C   UNL     1      -0.759   3.301   0.026  0.00  0.00    +0.310 C 
ATOM      6  O   UNL     1      -1.564   4.212   0.038  0.00  0.00    -0.252 OA
ATOM      7  N   UNL     1       0.574   3.482   0.015  0.00  0.00    -0.280 N 
ATOM      8  H   UNL     1       1.044   4.331   0.014  0.00  0.00    +0.152 HD
ENDROOT
BRANCH   1  11
ATOM      9  C   UNL     1       4.056   2.701   2.500  0.00  0.00    -0.078 C 
ATOM     10  C   UNL     1       3.237   2.877   1.220  0.00  0.00    -0.012 C 
ATOM     11  C   UNL     1       2.038   1.925   1.252  0.00  0.00    +0.024 C 
ATOM     12  C   UNL     1       1.201   2.212   2.501  0.00  0.00    -0.012 C 
ATOM     13  C   UNL     1       2.079   2.055   3.745  0.00  0.00    -0.078 C 
ATOM     14  N   UNL     1       3.201   3.015   3.665  0.00  0.00    +0.383 N 
ATOM     15  H   UNL     1       2.820   3.962   3.553  0.00  0.00    -0.081 HD
BRANCH  14  16
ATOM     16  C   UNL     1       4.000   2.962   4.906  0.00  0.00    -0.036 C 
BRANCH  16  24
ATOM     17  C   UNL     1       0.154   3.851   9.786  0.00  0.00    +0.001 A 
ATOM     18  C   UNL     1       0.405   5.217   9.793  0.00  0.00    +0.001 A 
ATOM     19  C   UNL     1       1.270   5.754   8.861  0.00  0.00    +0.015 A 
ATOM     20  C   UNL     1       1.874   4.926   7.938  0.00  0.00    +0.020 A 
ATOM     21  C   UNL     1       1.637   3.535   7.911  0.00  0.00    -0.011 A 
ATOM     22  C   UNL     1       0.743   3.025   8.882  0.00  0.00    +0.009 A 
ATOM     23  C   UNL     1       2.355   2.818   6.867  0.00  0.00    +0.017 A 
ATOM     24  C   UNL     1       3.166   3.496   6.043  0.00  0.00    -0.026 A 
ATOM     25  S   UNL     1       3.017   5.181   6.606  0.00  0.00    -0.095 S 
ENDBRANCH  16  24
ENDBRANCH  14  16
ENDBRANCH   1  11
BRANCH   1  26
ATOM     26  C   UNL     1       2.004   1.938  -1.244  0.00  0.00    +0.074 A 
ATOM     27  C   UNL     1       1.456   2.230  -2.479  0.00  0.00    +0.026 A 
ATOM     28  C   UNL     1       2.221   2.042  -3.619  0.00  0.00    +0.003 A 
ATOM     29  C   UNL     1       3.515   1.564  -3.474  0.00  0.00    +0.020 A 
ATOM     30  C   UNL     1       3.995   1.294  -2.207  0.00  0.00    +0.111 A 
ATOM     31  N   UNL     1       3.240   1.491  -1.143  0.00  0.00    -0.257 NA
ENDBRANCH   1  26
BRANCH   4  32
ATOM     32  C   UNL     1      -2.481   1.520   0.020  0.00  0.00    +0.149 C 
BRANCH  32  33
ATOM     33  C   UNL     1      -2.956   1.342   1.463  0.00  0.00    +0.136 C 
ATOM     34  C   UNL     1      -4.405   0.793   1.489  0.00  0.00    +0.035 C 
ATOM     35  C   UNL     1      -4.433   0.102   2.881  0.00  0.00    +0.031 C 
ATOM     36  C   UNL     1      -2.986  -0.419   3.018  0.00  0.00    +0.160 C 
ATOM     37  O   UNL     1      -2.164   0.346   2.130  0.00  0.00    -0.375 OA
ENDBRANCH  32  33
ENDBRANCH   4  32
TORSDOF 6
