REMARK  Name = ZINC12877237
REMARK  9 active torsions:
REMARK  status: ('A' for Active; 'I' for Inactive)
REMARK    1  A    between atoms: C_1  and  O_2
REMARK    2  A    between atoms: O_2  and  C_3
REMARK    3  A    between atoms: C_6  and  C_11
REMARK    4  A    between atoms: C_8  and  O_9
REMARK    5  A    between atoms: O_9  and  C_10
REMARK    6  A    between atoms: C_11  and  C_12
REMARK    7  A    between atoms: C_12  and  N_13
REMARK    8  A    between atoms: C_18  and  C_35
REMARK    9  A    between atoms: C_35  and  C_36
REMARK                            x       y       z     vdW  Elec       q    Type
REMARK                         _______ _______ _______ _____ _____    ______ ____
ROOT
ATOM      1  N   UNL     1       0.002  -0.004   0.002  0.00  0.00    -0.241 N 
ATOM      2  C   UNL     1       1.227  -0.543  -0.016  0.00  0.00    +0.224 C 
ATOM      3  O   UNL     1       1.470  -1.730  -0.022  0.00  0.00    -0.275 OA
ATOM      4  C   UNL     1       2.260   0.560  -0.029  0.00  0.00    +0.073 C 
ATOM      5  C   UNL     1       3.024   0.561   1.312  0.00  0.00    -0.049 C 
ATOM      6  C   UNL     1       1.726   2.502   1.351  0.00  0.00    +0.050 C 
ATOM      7  C   UNL     1       1.403   1.856  -0.001  0.00  0.00    +0.088 C 
ATOM      8  C   UNL     1      -0.016   1.334   0.009  0.00  0.00    +0.225 C 
ATOM      9  O   UNL     1      -1.015   2.021   0.018  0.00  0.00    -0.275 OA
ATOM     10  C   UNL     1       0.524   3.185   1.940  0.00  0.00    -0.026 A 
ATOM     11  C   UNL     1      -0.731   2.750   2.303  0.00  0.00    +0.024 A 
ATOM     12  C   UNL     1      -1.647   3.642   2.835  0.00  0.00    +0.041 A 
ATOM     13  C   UNL     1      -1.298   4.971   2.999  0.00  0.00    +0.022 A 
ATOM     14  C   UNL     1      -0.043   5.410   2.634  0.00  0.00    +0.025 A 
ATOM     15  C   UNL     1       0.885   4.519   2.099  0.00  0.00    +0.036 A 
ATOM     16  N   UNL     1       2.197   4.721   1.663  0.00  0.00    -0.286 N 
ATOM     17  C   UNL     1       2.761   3.585   1.209  0.00  0.00    +0.211 C 
ATOM     18  O   UNL     1       3.885   3.460   0.771  0.00  0.00    -0.277 OA
ATOM     19 CL   UNL     1      -3.229   3.094   3.295  0.00  0.00    -0.084 Cl
ATOM     20  H   UNL     1       2.649   5.579   1.685  0.00  0.00    +0.155 HD
ATOM     21  N   UNL     1       2.212   1.414   2.182  0.00  0.00    +0.394 N 
ATOM     22  H   UNL     1       2.783   1.782   2.951  0.00  0.00    -0.083 HD
ATOM     23  H   UNL     1       1.423   0.881   2.566  0.00  0.00    -0.083 HD
ENDROOT
BRANCH   1  24
ATOM     24  C   UNL     1      -1.219  -0.813   0.013  0.00  0.00    +0.121 C 
BRANCH  24  25
ATOM     25  C   UNL     1      -1.662  -1.087  -1.426  0.00  0.00    +0.054 C 
BRANCH  25  29
ATOM     26  C   UNL     1      -5.231  -3.444  -1.396  0.00  0.00    +0.161 A 
ATOM     27  C   UNL     1      -5.311  -2.060  -1.387  0.00  0.00    +0.049 A 
ATOM     28  C   UNL     1      -4.155  -1.301  -1.396  0.00  0.00    +0.007 A 
ATOM     29  C   UNL     1      -2.918  -1.919  -1.415  0.00  0.00    -0.042 A 
ATOM     30  C   UNL     1      -2.832  -3.299  -1.429  0.00  0.00    +0.053 A 
ATOM     31  C   UNL     1      -3.986  -4.066  -1.414  0.00  0.00    +0.162 A 
BRANCH  26  33
ATOM     32  C   UNL     1      -7.608  -3.485  -1.369  0.00  0.00    +0.277 C 
ATOM     33  O   UNL     1      -6.366  -4.192  -1.387  0.00  0.00    -0.491 OA
ENDBRANCH  26  33
BRANCH  31  34
ATOM     34  O   UNL     1      -3.903  -5.423  -1.423  0.00  0.00    -0.491 OA
ATOM     35  C   UNL     1      -2.592  -5.992  -1.441  0.00  0.00    +0.277 C 
ENDBRANCH  31  34
ENDBRANCH  25  29
ENDBRANCH  24  25
ENDBRANCH   1  24
BRANCH   5  36
ATOM     36  C   UNL     1       3.128  -0.862   1.865  0.00  0.00    +0.080 C 
BRANCH  36  37
ATOM     37  C   UNL     1       3.981  -0.856   3.108  0.00  0.00    +0.209 C 
ATOM     38  O   UNL     1       4.457   0.184   3.511  0.00  0.00    -0.276 OA
ATOM     39  N   UNL     1       4.213  -2.006   3.772  0.00  0.00    -0.329 N 
ATOM     40  H   UNL     1       3.832  -2.837   3.449  0.00  0.00    +0.145 HD
ATOM     41  H   UNL     1       4.761  -2.002   4.572  0.00  0.00    +0.145 HD
ENDBRANCH  36  37
ENDBRANCH   5  36
TORSDOF 7
