REMARK  Name = ZINC09439569
REMARK  6 active torsions:
REMARK  status: ('A' for Active; 'I' for Inactive)
REMARK    1  A    between atoms: C_1  and  C_2
REMARK    2  A    between atoms: C_9  and  S_14
REMARK    3  A    between atoms: S_14  and  N_17
REMARK    4  A    between atoms: N_20  and  C_23
REMARK    5  A    between atoms: C_28  and  O_29
REMARK    6  A    between atoms: O_29  and  C_30
REMARK                            x       y       z     vdW  Elec       q    Type
REMARK                         _______ _______ _______ _____ _____    ______ ____
ROOT
ATOM      1  S   UNL     1       6.891   0.448  -0.098  0.00  0.00    +0.061 S 
ATOM      2  O   UNL     1       7.673   0.138   1.048  0.00  0.00    -0.153 OA
ATOM      3  O   UNL     1       7.100  -0.179  -1.355  0.00  0.00    -0.153 OA
ENDROOT
BRANCH   1  11
ATOM      4  C   UNL     1      -0.019   1.526   0.010  0.00  0.00    +0.029 C 
ATOM      5  C   UNL     1       0.002  -0.004   0.002  0.00  0.00    +0.134 C 
ATOM      6  C   UNL     1       0.712  -0.492  -1.231  0.00  0.00    +0.230 C 
ATOM      7  O   UNL     1       0.044  -0.768  -2.205  0.00  0.00    -0.274 OA
ATOM      8  N   UNL     1       2.032  -0.637  -1.312  0.00  0.00    -0.284 N 
ATOM      9  C   UNL     1       2.954  -0.362  -0.307  0.00  0.00    +0.049 A 
ATOM     10  C   UNL     1       4.282  -0.123  -0.643  0.00  0.00    +0.053 A 
ATOM     11  C   UNL     1       5.212   0.147   0.343  0.00  0.00    +0.107 A 
ATOM     12  C   UNL     1       4.833   0.182   1.672  0.00  0.00    +0.030 A 
ATOM     13  C   UNL     1       3.516  -0.052   2.021  0.00  0.00    +0.018 A 
ATOM     14  C   UNL     1       2.579  -0.321   1.037  0.00  0.00    +0.030 A 
ATOM     15  S   UNL     1       0.888  -0.610   1.470  0.00  0.00    -0.111 S 
ATOM     16  H   UNL     1       2.386  -0.967  -2.153  0.00  0.00    +0.155 HD
ENDBRANCH   1  11
BRANCH   1  17
ATOM     17  N   UNL     1       7.046   2.077  -0.349  0.00  0.00    -0.174 NA
ATOM     18  C   UNL     1       6.820   2.653  -1.683  0.00  0.00    +0.128 C 
ATOM     19  C   UNL     1       5.755   3.751  -1.568  0.00  0.00    +0.122 C 
ATOM     20  N   UNL     1       6.121   4.647  -0.462  0.00  0.00    -0.325 N 
ATOM     21  C   UNL     1       6.348   4.071   0.871  0.00  0.00    +0.122 C 
ATOM     22  C   UNL     1       7.408   2.974   0.757  0.00  0.00    +0.128 C 
BRANCH  20  23
ATOM     23  C   UNL     1       6.253   6.024  -0.675  0.00  0.00    +0.072 A 
ATOM     24  C   UNL     1       5.158   6.861  -0.513  0.00  0.00    +0.027 A 
ATOM     25  C   UNL     1       5.290   8.220  -0.723  0.00  0.00    +0.002 A 
ATOM     26  C   UNL     1       6.512   8.750  -1.095  0.00  0.00    +0.004 A 
ATOM     27  C   UNL     1       7.608   7.922  -1.259  0.00  0.00    +0.047 A 
ATOM     28  C   UNL     1       7.485   6.559  -1.045  0.00  0.00    +0.141 A 
BRANCH  28  29
ATOM     29  O   UNL     1       8.563   5.745  -1.200  0.00  0.00    -0.493 OA
ATOM     30  C   UNL     1       9.793   6.363  -1.581  0.00  0.00    +0.277 C 
ENDBRANCH  28  29
ENDBRANCH  20  23
ENDBRANCH   1  17
TORSDOF 4
