REMARK  Name = ZINC39856277
REMARK  8 active torsions:
REMARK  status: ('A' for Active; 'I' for Inactive)
REMARK    1  A    between atoms: C_1  and  C_2
REMARK    2  A    between atoms: C_4  and  C_28
REMARK    3  A    between atoms: C_6  and  N_8
REMARK    4  A    between atoms: C_9  and  C_11
REMARK    5  A    between atoms: C_12  and  C_27
REMARK    6  A    between atoms: C_17  and  C_25
REMARK    7  A    between atoms: C_17  and  C_26
REMARK    8  A    between atoms: N_20  and  N_21
REMARK                            x       y       z     vdW  Elec       q    Type
REMARK                         _______ _______ _______ _____ _____    ______ ____
ROOT
ATOM      1  C   UNL     1       0.275  -2.880   4.818  0.00  0.00    +0.193 A 
ATOM      2  C   UNL     1       0.377  -2.330   6.066  0.00  0.00    +0.009 A 
ATOM      3  C   UNL     1       0.476  -3.403   6.960  0.00  0.00    +0.042 A 
ATOM      4  C   UNL     1       0.432  -4.561   6.221  0.00  0.00    +0.116 A 
ATOM      5  O   UNL     1       0.304  -4.227   4.939  0.00  0.00    -0.454 OA
ATOM      6  C   UNL     1       0.518  -5.933   6.840  0.00  0.00    +0.081 C 
ATOM      7  C   UNL     1       1.155  -5.826   8.228  0.00  0.00    -0.023 C 
ATOM      8  C   UNL     1       0.419  -4.787   9.081  0.00  0.00    +0.064 C 
ATOM      9  C   UNL     1       0.605  -3.422   8.434  0.00  0.00    +0.071 C 
ATOM     10  N   UNL     1       0.857  -2.354   9.125  0.00  0.00    -0.183 NA
ATOM     11  C   UNL     1       1.085  -7.188   8.921  0.00  0.00    +0.011 C 
ATOM     12  C   UNL     1       2.620  -5.411   8.080  0.00  0.00    +0.011 C 
ATOM     13  C   UNL     1       0.382  -0.863   6.410  0.00  0.00    +0.048 C 
ENDROOT
BRANCH  10  14
ATOM     14  N   UNL     1       0.969  -2.431  10.519  0.00  0.00    -0.191 N 
ATOM     15  C   UNL     1       1.231  -1.320  11.236  0.00  0.00    +0.317 C 
ATOM     16  O   UNL     1       1.328  -1.387  12.447  0.00  0.00    -0.251 OA
ATOM     17  N   UNL     1       1.386  -0.136  10.613  0.00  0.00    -0.312 N 
ATOM     18  H   UNL     1       0.857  -3.283  10.968  0.00  0.00    +0.179 HD
ATOM     19  H   UNL     1       1.309  -0.083   9.647  0.00  0.00    +0.147 HD
ATOM     20  H   UNL     1       1.575   0.663  11.129  0.00  0.00    +0.147 HD
ENDBRANCH  10  14
BRANCH   1  22
ATOM     21  N   UNL     1       0.050  -2.797   2.392  0.00  0.00    -0.279 N 
ATOM     22  C   UNL     1       0.149  -2.134   3.561  0.00  0.00    +0.284 C 
ATOM     23  O   UNL     1       0.134  -0.917   3.574  0.00  0.00    -0.266 OA
ATOM     24  H   UNL     1      -0.014  -3.765   2.387  0.00  0.00    +0.155 HD
BRANCH  21  30
ATOM     25  C   UNL     1      -1.515  -2.363  -2.248  0.00  0.00    +0.044 C 
ATOM     26  C   UNL     1      -0.709  -1.856  -1.080  0.00  0.00    -0.048 A 
ATOM     27  C   UNL     1       0.024  -0.690  -1.201  0.00  0.00    +0.006 A 
ATOM     28  C   UNL     1       0.765  -0.221  -0.132  0.00  0.00    -0.048 A 
ATOM     29  C   UNL     1       0.776  -0.917   1.061  0.00  0.00    +0.026 A 
ATOM     30  C   UNL     1       0.041  -2.090   1.186  0.00  0.00    +0.034 A 
ATOM     31  C   UNL     1      -0.707  -2.554   0.112  0.00  0.00    +0.026 A 
ATOM     32  C   UNL     1       1.562   1.051  -0.268  0.00  0.00    +0.044 C 
ENDBRANCH  21  30
ENDBRANCH   1  22
TORSDOF 3
