REMARK  Name = ZINC39466932
REMARK  8 active torsions:
REMARK  status: ('A' for Active; 'I' for Inactive)
REMARK    1  A    between atoms: C_1  and  C_2
REMARK    2  A    between atoms: C_2  and  O_3
REMARK    3  A    between atoms: O_3  and  C_4
REMARK    4  A    between atoms: P_13  and  C_32
REMARK    5  A    between atoms: C_21  and  S_22
REMARK    6  A    between atoms: S_22  and  O_25
REMARK    7  A    between atoms: O_25  and  C_26
REMARK    8  A    between atoms: C_32  and  C_33
REMARK                            x       y       z     vdW  Elec       q    Type
REMARK                         _______ _______ _______ _____ _____    ______ ____
ROOT
ATOM      1  C   UNL     1      -1.722  -2.175   0.416  0.00  0.00    +0.145 C 
ATOM      2  C   UNL     1      -0.788  -3.111   0.600  0.00  0.00    +0.024 C 
ATOM      3  C   UNL     1      -1.193  -4.552   0.754  0.00  0.00    +0.019 C 
ATOM      4  C   UNL     1      -0.136  -5.319   1.535  0.00  0.00    -0.002 C 
ATOM      5  C   UNL     1      -0.751  -6.522   2.264  0.00  0.00    -0.020 C 
ATOM      6  C   UNL     1       0.379  -7.555   2.387  0.00  0.00    +0.156 C 
ATOM      7  O   UNL     1      -0.083  -8.721   3.086  0.00  0.00    -0.319 OA
ATOM      8  P   UNL     1      -1.461  -9.408   2.559  0.00  0.00    +0.262 P 
ATOM      9  O   UNL     1      -2.065 -10.236   3.627  0.00  0.00    -0.274 OA
ATOM     10  N   UNL     1      -2.448  -8.141   2.189  0.00  0.00    -0.291 NA
ATOM     11  N   UNL     1      -1.897  -7.056   1.539  0.00  0.00    +0.397 N 
ATOM     12  C   UNL     1      -3.008  -6.093   1.468  0.00  0.00    -0.046 C 
ATOM     13  C   UNL     1      -2.516  -4.639   1.512  0.00  0.00    +0.006 C 
ATOM     14  C   UNL     1      -3.530  -3.727   0.874  0.00  0.00    +0.009 C 
ATOM     15  C   UNL     1      -3.144  -2.566   0.360  0.00  0.00    +0.165 C 
ATOM     16  H   UNL     1      -3.391  -8.166   2.416  0.00  0.00    +0.111 HD
ATOM     17  H   UNL     1      -1.614  -7.316   0.606  0.00  0.00    -0.055 HD
ENDROOT
BRANCH  15  18
ATOM     18  S   UNL     1      -4.327  -1.498  -0.392  0.00  0.00    +0.154 S 
ATOM     19  O   UNL     1      -5.595  -2.119  -0.232  0.00  0.00    -0.131 OA
ATOM     20  O   UNL     1      -4.055  -0.188   0.088  0.00  0.00    -0.131 OA
BRANCH  18  21
ATOM     21  O   UNL     1      -4.035  -1.483  -1.885  0.00  0.00    -0.342 OA
BRANCH  21  22
ATOM     22  C   UNL     1      -4.413  -2.616  -2.534  0.00  0.00    +0.157 A 
ATOM     23  C   UNL     1      -3.525  -3.674  -2.660  0.00  0.00    +0.048 A 
ATOM     24  C   UNL     1      -3.912  -4.824  -3.320  0.00  0.00    +0.004 A 
ATOM     25  C   UNL     1      -5.184  -4.922  -3.853  0.00  0.00    +0.000 A 
ATOM     26  C   UNL     1      -6.071  -3.869  -3.728  0.00  0.00    +0.004 A 
ATOM     27  C   UNL     1      -5.691  -2.719  -3.065  0.00  0.00    +0.048 A 
ENDBRANCH  21  22
ENDBRANCH  18  21
ENDBRANCH  15  18
BRANCH   1  28
ATOM     28  O   UNL     1      -1.367  -0.870   0.286  0.00  0.00    -0.491 OA
BRANCH  28  30
ATOM     29  C   UNL     1       0.235   0.927   0.070  0.00  0.00    +0.048 C 
ATOM     30  C   UNL     1       0.032  -0.580   0.240  0.00  0.00    +0.226 C 
ENDBRANCH  28  30
ENDBRANCH   1  28
BRANCH   8  31
ATOM     31  C   UNL     1      -1.139 -10.421   1.078  0.00  0.00    +0.147 C 
BRANCH  31  32
ATOM     32  C   UNL     1      -0.149 -11.505   1.417  0.00  0.00    -0.037 A 
ATOM     33  C   UNL     1       1.206 -11.272   1.275  0.00  0.00    +0.004 A 
ATOM     34  C   UNL     1       2.115 -12.266   1.585  0.00  0.00    +0.000 A 
ATOM     35  C   UNL     1       1.669 -13.493   2.038  0.00  0.00    +0.000 A 
ATOM     36  C   UNL     1       0.314 -13.726   2.181  0.00  0.00    +0.000 A 
ATOM     37  C   UNL     1      -0.595 -12.731   1.875  0.00  0.00    +0.004 A 
ENDBRANCH  31  32
ENDBRANCH   8  31
TORSDOF 7
