REMARK  Name = ZINC36333301
REMARK  7 active torsions:
REMARK  status: ('A' for Active; 'I' for Inactive)
REMARK    1  A    between atoms: C_4  and  S_9
REMARK    2  A    between atoms: C_5  and  C_7
REMARK    3  A    between atoms: S_9  and  C_10
REMARK    4  A    between atoms: C_15  and  C_16
REMARK    5  A    between atoms: N_18  and  C_19
REMARK    6  A    between atoms: C_23  and  S_25
REMARK    7  A    between atoms: S_25  and  N_28
REMARK                            x       y       z     vdW  Elec       q    Type
REMARK                         _______ _______ _______ _____ _____    ______ ____
ROOT
ATOM      1  C   UNL     1       6.994  -1.223  -0.209  0.00  0.00    +0.249 C 
ATOM      2  O   UNL     1       6.223  -2.125   0.055  0.00  0.00    -0.270 OA
ATOM      3  N   UNL     1       8.272  -1.502  -0.535  0.00  0.00    -0.281 N 
ATOM      4  H   UNL     1       8.906  -0.781  -0.673  0.00  0.00    +0.155 HD
ENDROOT
BRANCH   1  10
ATOM      5  C   UNL     1       5.202   0.473   0.164  0.00  0.00    +0.025 A 
ATOM      6  C   UNL     1       4.780   1.797   0.199  0.00  0.00    +0.016 A 
ATOM      7  C   UNL     1       5.664   2.812  -0.102  0.00  0.00    +0.001 A 
ATOM      8  C   UNL     1       6.976   2.522  -0.443  0.00  0.00    +0.001 A 
ATOM      9  C   UNL     1       7.413   1.216  -0.483  0.00  0.00    +0.014 A 
ATOM     10  C   UNL     1       6.532   0.176  -0.174  0.00  0.00    +0.051 A 
BRANCH   5  11
ATOM     11  S   UNL     1       4.075  -0.826   0.549  0.00  0.00    -0.087 S 
BRANCH  11  15
ATOM     12  C   UNL     1       0.121   1.305   1.206  0.00  0.00    +0.001 A 
ATOM     13  C   UNL     1       0.355   0.615   0.027  0.00  0.00    +0.001 A 
ATOM     14  C   UNL     1       1.556  -0.034  -0.176  0.00  0.00    +0.016 A 
ATOM     15  C   UNL     1       2.541   0.002   0.804  0.00  0.00    +0.030 A 
ATOM     16  C   UNL     1       2.306   0.700   2.000  0.00  0.00    +0.065 A 
ATOM     17  C   UNL     1       1.085   1.352   2.189  0.00  0.00    +0.020 A 
BRANCH  16  18
ATOM     18  C   UNL     1       3.312   0.744   3.018  0.00  0.00    +0.100 C 
ATOM     19  N   UNL     1       4.110   0.779   3.826  0.00  0.00    -0.191 NA
ENDBRANCH  16  18
ENDBRANCH  11  15
ENDBRANCH   5  11
ENDBRANCH   1  10
BRANCH   3  20
ATOM     20  C   UNL     1       8.683  -2.832  -0.673  0.00  0.00    +0.036 A 
ATOM     21  C   UNL     1       9.972  -3.203  -0.309  0.00  0.00    +0.023 A 
ATOM     22  C   UNL     1      10.374  -4.517  -0.447  0.00  0.00    +0.004 A 
ATOM     23  C   UNL     1       9.497  -5.462  -0.946  0.00  0.00    +0.029 A 
ATOM     24  C   UNL     1       8.215  -5.096  -1.310  0.00  0.00    +0.114 A 
ATOM     25  C   UNL     1       7.803  -3.784  -1.169  0.00  0.00    +0.052 A 
BRANCH  24  26
ATOM     26  S   UNL     1       7.101  -6.304  -1.946  0.00  0.00    +0.100 S 
ATOM     27  O   UNL     1       6.140  -5.602  -2.722  0.00  0.00    -0.146 OA
ATOM     28  O   UNL     1       7.900  -7.348  -2.485  0.00  0.00    -0.146 OA
BRANCH  26  29
ATOM     29  N   UNL     1       6.288  -6.948  -0.656  0.00  0.00    -0.118 NA
ATOM     30  C   UNL     1       5.400  -7.869  -0.846  0.00  0.00    +0.117 C 
ATOM     31  N   UNL     1       5.052  -8.393  -2.062  0.00  0.00    -0.331 N 
ATOM     32  C   UNL     1       4.409  -9.701  -1.861  0.00  0.00    +0.103 C 
ATOM     33  C   UNL     1       3.717  -9.584  -0.484  0.00  0.00    +0.026 C 
ATOM     34  C   UNL     1       4.589  -8.538   0.243  0.00  0.00    +0.074 C 
ATOM     35  H   UNL     1       5.206  -7.969  -2.921  0.00  0.00    +0.147 HD
ENDBRANCH  26  29
ENDBRANCH  24  26
ENDBRANCH   3  20
TORSDOF 7
