REMARK  Name = ZINC46561677
REMARK  11 active torsions:
REMARK  status: ('A' for Active; 'I' for Inactive)
REMARK    1  A    between atoms: C_1  and  C_2
REMARK    2  A    between atoms: C_9  and  C_11
REMARK    3  A    between atoms: C_14  and  N_17
REMARK    4  A    between atoms: C_18  and  C_20
REMARK    5  A    between atoms: C_20  and  N_21
REMARK    6  A    between atoms: N_21  and  C_22
REMARK    7  A    between atoms: N_21  and  C_23
REMARK    8  A    between atoms: C_23  and  C_25
REMARK    9  A    between atoms: C_23  and  C_26
REMARK   10  A    between atoms: C_29  and  S_32
REMARK   11  A    between atoms: S_32  and  C_35
REMARK                            x       y       z     vdW  Elec       q    Type
REMARK                         _______ _______ _______ _____ _____    ______ ____
ROOT
ATOM      1  N   UNL     1       0.153 -10.274   2.434  0.00  0.00    -0.287 N 
ATOM      2  C   UNL     1       0.065 -11.177   1.436  0.00  0.00    +0.201 C 
ATOM      3  O   UNL     1       0.059 -10.806   0.282  0.00  0.00    -0.278 OA
ATOM      4  H   UNL     1       0.225 -10.574   3.354  0.00  0.00    +0.155 HD
ENDROOT
BRANCH   1   8
ATOM      5  C   UNL     1       0.118  -6.198   1.566  0.00  0.00    +0.007 A 
ATOM      6  C   UNL     1      -0.490  -6.670   2.731  0.00  0.00    +0.012 A 
ATOM      7  C   UNL     1      -0.477  -8.019   3.015  0.00  0.00    +0.024 A 
ATOM      8  C   UNL     1       0.141  -8.908   2.143  0.00  0.00    +0.033 A 
ATOM      9  C   UNL     1       0.748  -8.441   0.982  0.00  0.00    +0.024 A 
ATOM     10  C   UNL     1       0.732  -7.095   0.689  0.00  0.00    +0.012 A 
BRANCH   5  19
ATOM     11  C   UNL     1       0.015   1.500  -0.004  0.00  0.00    +0.044 C 
ATOM     12  C   UNL     1       0.189   0.004   0.030  0.00  0.00    -0.049 A 
ATOM     13  C   UNL     1       0.857  -0.648  -0.997  0.00  0.00    +0.005 A 
ATOM     14  C   UNL     1       1.030  -1.997  -0.994  0.00  0.00    +0.029 A 
ATOM     15  C   UNL     1       0.529  -2.790   0.067  0.00  0.00    +0.079 A 
ATOM     16  C   UNL     1      -0.147  -2.096   1.099  0.00  0.00    +0.040 A 
ATOM     17  C   UNL     1      -0.310  -0.733   1.089  0.00  0.00    +0.020 A 
ATOM     18  S   UNL     1      -0.604  -3.411   2.202  0.00  0.00    -0.067 S 
ATOM     19  C   UNL     1       0.106  -4.753   1.258  0.00  0.00    +0.109 A 
ATOM     20  N   UNL     1       0.615  -4.126   0.220  0.00  0.00    -0.239 NA
ENDBRANCH   5  19
ENDBRANCH   1   8
BRANCH   2  21
ATOM     21  C   UNL     1      -0.027 -12.646   1.756  0.00  0.00    +0.019 C 
BRANCH  21  22
ATOM     22  N   UNL     1      -0.113 -13.415   0.507  0.00  0.00    +0.388 N 
ATOM     23  C   UNL     1      -1.367 -13.088  -0.184  0.00  0.00    -0.095 C 
ATOM     24  H   UNL     1       0.669 -13.180  -0.087  0.00  0.00    -0.081 HD
BRANCH  22  25
ATOM     25  C   UNL     1      -0.081 -14.851   0.812  0.00  0.00    -0.041 C 
ATOM     26  C   UNL     1       1.226 -15.191   1.532  0.00  0.00    -0.008 C 
BRANCH  25  27
ATOM     27  C   UNL     1      -0.169 -15.639  -0.469  0.00  0.00    -0.061 A 
ATOM     28  C   UNL     1       0.523 -15.217  -1.589  0.00  0.00    +0.004 A 
ATOM     29  C   UNL     1       0.442 -15.940  -2.764  0.00  0.00    +0.027 A 
ATOM     30  C   UNL     1      -0.330 -17.085  -2.820  0.00  0.00    +0.088 A 
ATOM     31  C   UNL     1      -1.022 -17.508  -1.700  0.00  0.00    +0.027 A 
ATOM     32  C   UNL     1      -0.938 -16.787  -0.523  0.00  0.00    +0.004 A 
BRANCH  30  33
ATOM     33  S   UNL     1      -0.434 -18.006  -4.319  0.00  0.00    -0.006 S 
ATOM     34  O   UNL     1      -1.686 -18.675  -4.247  0.00  0.00    -0.170 OA
ATOM     35  O   UNL     1      -0.177 -17.058  -5.345  0.00  0.00    -0.170 OA
ATOM     36  C   UNL     1       0.922 -19.207  -4.223  0.00  0.00    +0.200 C 
ENDBRANCH  30  33
ENDBRANCH  25  27
ENDBRANCH  22  25
ENDBRANCH  21  22
ENDBRANCH   2  21
TORSDOF 7
