REMARK  Name = ZINC39966179
REMARK  8 active torsions:
REMARK  status: ('A' for Active; 'I' for Inactive)
REMARK    1  A    between atoms: C_1  and  C_2
REMARK    2  A    between atoms: C_9  and  N_14
REMARK    3  A    between atoms: C_10  and  C_11
REMARK    4  A    between atoms: C_15  and  C_17
REMARK    5  A    between atoms: C_17  and  S_18
REMARK    6  A    between atoms: S_18  and  C_19
REMARK    7  A    between atoms: C_22  and  C_25
REMARK    8  A    between atoms: N_23  and  C_24
REMARK                            x       y       z     vdW  Elec       q    Type
REMARK                         _______ _______ _______ _____ _____    ______ ____
ROOT
ATOM      1  N   UNL     1       1.984  -5.821   1.687  0.00  0.00    -0.279 N 
ATOM      2  C   UNL     1       2.389  -6.066   2.949  0.00  0.00    +0.228 C 
ATOM      3  O   UNL     1       2.526  -5.148   3.730  0.00  0.00    -0.275 OA
ATOM      4  H   UNL     1       1.874  -6.555   1.062  0.00  0.00    +0.155 HD
ENDROOT
BRANCH   1  12
ATOM      5  C   UNL     1       0.547   1.621  -0.127  0.00  0.00    +0.008 C 
ATOM      6  C   UNL     1       0.429   0.097  -0.072  0.00  0.00    -0.009 C 
ATOM      7  C   UNL     1       0.981  -0.507  -1.367  0.00  0.00    +0.008 C 
ATOM      8  C   UNL     1       0.646  -1.999  -1.430  0.00  0.00    +0.037 C 
ATOM      9  C   UNL     1       1.103  -2.657  -0.137  0.00  0.00    -0.023 A 
ATOM     10  C   UNL     1       1.357  -1.927   0.971  0.00  0.00    -0.004 A 
ATOM     11  S   UNL     1       1.848  -3.113   2.187  0.00  0.00    -0.077 S 
ATOM     12  C   UNL     1       1.725  -4.521   1.281  0.00  0.00    +0.084 A 
ATOM     13  C   UNL     1       1.304  -4.085   0.034  0.00  0.00    +0.068 A 
ATOM     14  C   UNL     1       1.240  -0.440   1.116  0.00  0.00    +0.046 C 
BRANCH  13  15
ATOM     15  C   UNL     1       1.073  -5.026  -1.066  0.00  0.00    +0.244 C 
ATOM     16  O   UNL     1       1.981  -5.311  -1.824  0.00  0.00    -0.270 OA
ATOM     17  N   UNL     1      -0.146  -5.576  -1.237  0.00  0.00    -0.325 N 
ATOM     18  H   UNL     1      -0.870  -5.349  -0.633  0.00  0.00    +0.145 HD
ATOM     19  H   UNL     1      -0.299  -6.198  -1.965  0.00  0.00    +0.145 HD
ENDBRANCH  13  15
ENDBRANCH   1  12
BRANCH   2  20
ATOM     20  C   UNL     1       2.671  -7.479   3.389  0.00  0.00    +0.173 C 
BRANCH  20  21
ATOM     21  S   UNL     1       3.192  -7.478   5.127  0.00  0.00    -0.077 S 
BRANCH  21  22
ATOM     22  C   UNL     1       3.480  -9.178   5.486  0.00  0.00    +0.192 A 
ATOM     23  N   UNL     1       3.343 -10.184   4.654  0.00  0.00    -0.122 NA
ATOM     24  N   UNL     1       3.635 -11.288   5.244  0.00  0.00    -0.128 NA
ATOM     25  C   UNL     1       3.977 -11.055   6.490  0.00  0.00    +0.165 A 
ATOM     26  N   UNL     1       3.894  -9.696   6.683  0.00  0.00    -0.305 N 
ATOM     27  C   UNL     1       4.186  -8.957   7.914  0.00  0.00    +0.153 C 
BRANCH  25  28
ATOM     28  C   UNL     1       4.380 -12.063   7.494  0.00  0.00    +0.030 A 
ATOM     29  C   UNL     1       3.827 -12.048   8.740  0.00  0.00    +0.057 A 
ATOM     30  S   UNL     1       4.641 -13.433   9.519  0.00  0.00    -0.101 S 
ATOM     31  C   UNL     1       5.644 -13.933   8.143  0.00  0.00    -0.006 A 
ATOM     32  C   UNL     1       5.335 -13.047   7.166  0.00  0.00    -0.026 A 
ATOM     33  C   UNL     1       5.995 -13.095   5.790  0.00  0.00    +0.036 C 
ATOM     34  C   UNL     1       6.446 -14.517   5.480  0.00  0.00    +0.005 C 
ATOM     35  C   UNL     1       7.871 -14.752   5.978  0.00  0.00    +0.001 C 
ATOM     36  C   UNL     1       7.927 -14.606   7.495  0.00  0.00    +0.005 C 
ATOM     37  C   UNL     1       6.598 -15.082   8.080  0.00  0.00    +0.043 C 
ENDBRANCH  25  28
ENDBRANCH  21  22
ENDBRANCH  20  21
ENDBRANCH   2  20
TORSDOF 6
