REMARK  Name = ZINC35036559
REMARK  3 active torsions:
REMARK  status: ('A' for Active; 'I' for Inactive)
REMARK    1  A    between atoms: C_1  and  C_2
REMARK    2  A    between atoms: C_2  and  N_3
REMARK    3  A    between atoms: N_3  and  C_4
REMARK                            x       y       z     vdW  Elec       q    Type
REMARK                         _______ _______ _______ _____ _____    ______ ____
ROOT
ATOM      1  C   UNL     1      -1.609  -1.890   0.007  0.00  0.00    +0.043 A 
ATOM      2  C   UNL     1      -0.542  -2.776  -0.002  0.00  0.00    +0.051 A 
ATOM      3  C   UNL     1      -0.780  -4.142  -0.006  0.00  0.00    +0.069 A 
ATOM      4  C   UNL     1      -2.092  -4.621  -0.002  0.00  0.00    +0.068 A 
ATOM      5  C   UNL     1      -3.155  -3.731   0.007  0.00  0.00    +0.045 A 
ATOM      6  C   UNL     1      -2.915  -2.370   0.017  0.00  0.00    +0.041 A 
ATOM      7 BR   UNL     1      -4.365  -1.157   0.037  0.00  0.00    -0.048 Br
ATOM      8  N   UNL     1      -2.011  -6.014  -0.008  0.00  0.00    -0.306 N 
ATOM      9  H   UNL     1      -2.764  -6.626  -0.007  0.00  0.00    +0.170 HD
ATOM     10  C   UNL     1      -0.711  -6.363  -0.016  0.00  0.00    +0.325 A 
ATOM     11  O   UNL     1      -0.292  -7.505  -0.023  0.00  0.00    -0.247 OA
ATOM     12  N   UNL     1       0.056  -5.256  -0.015  0.00  0.00    -0.306 N 
ATOM     13  H   UNL     1       1.026  -5.238  -0.021  0.00  0.00    +0.170 HD
ENDROOT
BRANCH   1  14
ATOM     14  N   UNL     1      -1.372  -0.511   0.012  0.00  0.00    -0.343 N 
ATOM     15  H   UNL     1      -2.118   0.109   0.023  0.00  0.00    +0.146 HD
BRANCH  14  17
ATOM     16  C   UNL     1      -0.019   1.526   0.010  0.00  0.00    +0.024 C 
ATOM     17  C   UNL     1       0.002  -0.004   0.002  0.00  0.00    +0.098 C 
ENDBRANCH  14  17
ENDBRANCH   1  14
TORSDOF 2
