REMARK  Name = ZINC09218859
REMARK  6 active torsions:
REMARK  status: ('A' for Active; 'I' for Inactive)
REMARK    1  A    between atoms: C_1  and  C_2
REMARK    2  A    between atoms: C_3  and  C_30
REMARK    3  A    between atoms: C_7  and  N_18
REMARK    4  A    between atoms: C_9  and  C_11
REMARK    5  A    between atoms: C_11  and  N_61
REMARK    6  A    between atoms: C_14  and  C_17
REMARK                            x       y       z     vdW  Elec       q    Type
REMARK                         _______ _______ _______ _____ _____    ______ ____
ROOT
ATOM      1  C   UNL     1      -0.704   7.443  -7.775  0.00  0.00    +0.045 C 
ATOM      2  C   UNL     1      -1.466   7.273  -6.486  0.00  0.00    -0.028 A 
ATOM      3  C   UNL     1      -2.799   7.419  -6.462  0.00  0.00    -0.008 A 
ATOM      4  S   UNL     1      -3.220   7.127  -4.755  0.00  0.00    -0.074 S 
ATOM      5  C   UNL     1      -1.595   6.817  -4.119  0.00  0.00    +0.114 A 
ATOM      6  C   UNL     1      -0.767   6.949  -5.255  0.00  0.00    +0.051 A 
ATOM      7  C   UNL     1       0.622   6.746  -5.025  0.00  0.00    +0.133 A 
ATOM      8  N   UNL     1       1.038   6.460  -3.801  0.00  0.00    -0.219 NA
ATOM      9  C   UNL     1       0.203   6.347  -2.783  0.00  0.00    +0.116 A 
ATOM     10  N   UNL     1      -1.095   6.524  -2.934  0.00  0.00    -0.227 NA
ATOM     11  C   UNL     1      -3.722   7.750  -7.607  0.00  0.00    +0.052 C 
ENDROOT
BRANCH   7  12
ATOM     12  N   UNL     1       1.527   6.850  -6.065  0.00  0.00    -0.314 N 
ATOM     13  C   UNL     1       2.209   5.571  -6.300  0.00  0.00    +0.109 C 
ATOM     14  C   UNL     1       3.083   5.681  -7.553  0.00  0.00    +0.054 C 
ATOM     15  C   UNL     1       4.090   6.811  -7.369  0.00  0.00    +0.115 C 
ATOM     16  C   UNL     1       3.372   8.121  -7.056  0.00  0.00    +0.054 C 
ATOM     17  C   UNL     1       2.490   7.932  -5.819  0.00  0.00    +0.109 C 
ATOM     18  C   UNL     1       4.949   6.961  -8.602  0.00  0.00    +0.244 C 
ATOM     19  O   UNL     1       4.582   7.233  -9.725  0.00  0.00    -0.273 OA
ATOM     20  N   UNL     1       6.213   6.727  -8.191  0.00  0.00    -0.238 N 
ATOM     21  C   UNL     1       6.263   6.454  -6.881  0.00  0.00    +0.307 C 
ATOM     22  O   UNL     1       7.290   6.210  -6.280  0.00  0.00    -0.252 OA
ATOM     23  N   UNL     1       5.046   6.481  -6.304  0.00  0.00    -0.285 N 
ATOM     24  H   UNL     1       6.989   6.753  -8.772  0.00  0.00    +0.159 HD
ATOM     25  H   UNL     1       4.841   6.316  -5.371  0.00  0.00    +0.151 HD
ENDBRANCH   7  12
BRANCH   9  26
ATOM     26  C   UNL     1       0.748   6.014  -1.418  0.00  0.00    -0.001 C 
BRANCH  26  33
ATOM     27  C   UNL     1       1.510   4.184  -0.029  0.00  0.00    -0.078 C 
ATOM     28  C   UNL     1       1.639   2.660   0.044  0.00  0.00    -0.016 C 
ATOM     29  C   UNL     1       0.242   2.035   0.062  0.00  0.00    -0.018 C 
ATOM     30  C   UNL     1      -0.523   2.477  -1.188  0.00  0.00    -0.016 C 
ATOM     31  C   UNL     1      -0.590   4.006  -1.225  0.00  0.00    -0.078 C 
ATOM     32  C   UNL     1       0.364   0.510   0.074  0.00  0.00    +0.007 C 
ATOM     33  N   UNL     1       0.786   4.545  -1.266  0.00  0.00    +0.384 N 
ATOM     34  H   UNL     1       1.279   4.139  -2.071  0.00  0.00    -0.081 HD
ENDBRANCH  26  33
ENDBRANCH   9  26
TORSDOF 3
