REMARK  Name = ZINC09332675
REMARK  4 active torsions:
REMARK  status: ('A' for Active; 'I' for Inactive)
REMARK    1  A    between atoms: C_15  and  C_17
REMARK    2  A    between atoms: C_17  and  C_19
REMARK    3  A    between atoms: C_23  and  N_25
REMARK    4  A    between atoms: N_30  and  C_33
REMARK                            x       y       z     vdW  Elec       q    Type
REMARK                         _______ _______ _______ _____ _____    ______ ____
ROOT
ATOM      1  C   UNL     1      -6.567  -3.766  -0.124  0.00  0.00    +0.001 A 
ATOM      2  C   UNL     1      -6.442  -3.267  -1.409  0.00  0.00    +0.000 A 
ATOM      3  C   UNL     1      -6.119  -1.938  -1.613  0.00  0.00    +0.006 A 
ATOM      4  C   UNL     1      -5.919  -1.097  -0.539  0.00  0.00    -0.021 A 
ATOM      5  C   UNL     1      -6.029  -1.598   0.765  0.00  0.00    -0.019 A 
ATOM      6  C   UNL     1      -6.361  -2.941   0.961  0.00  0.00    +0.008 A 
ATOM      7  C   UNL     1      -5.794  -0.722   1.929  0.00  0.00    +0.022 C 
ATOM      8  C   UNL     1      -5.248   0.495   1.757  0.00  0.00    +0.054 C 
ATOM      9  C   UNL     1      -5.610   0.350  -0.740  0.00  0.00    +0.100 C 
ATOM     10  C   UNL     1      -4.758   0.734  -1.854  0.00  0.00    +0.113 C 
ATOM     11  C   UNL     1      -4.219   2.147  -1.389  0.00  0.00    +0.116 C 
ATOM     12  C   UNL     1      -3.812   1.755   0.030  0.00  0.00    +0.141 C 
ATOM     13  C   UNL     1      -3.194   2.308  -2.467  0.00  0.00    +0.232 C 
ATOM     14  O   UNL     1      -2.115   2.853  -2.373  0.00  0.00    -0.274 OA
ATOM     15  N   UNL     1      -3.723   1.716  -3.579  0.00  0.00    -0.208 N 
ATOM     16  C   UNL     1      -4.794   0.920  -3.288  0.00  0.00    +0.232 C 
ATOM     17  O   UNL     1      -5.602   0.466  -4.070  0.00  0.00    -0.274 OA
ATOM     18  N   UNL     1      -5.140   1.135   0.376  0.00  0.00    -0.384 NA
ATOM     19  H   UNL     1      -5.794   1.925   0.423  0.00  0.00    +0.127 HD
ENDROOT
BRANCH  15  20
ATOM     20  C   UNL     1      -3.228   1.918  -4.876  0.00  0.00    +0.062 A 
ATOM     21  C   UNL     1      -2.232   1.091  -5.377  0.00  0.00    +0.025 A 
ATOM     22  C   UNL     1      -1.752   1.288  -6.657  0.00  0.00    +0.002 A 
ATOM     23  C   UNL     1      -2.253   2.316  -7.435  0.00  0.00    +0.002 A 
ATOM     24  C   UNL     1      -3.241   3.145  -6.937  0.00  0.00    +0.022 A 
ATOM     25  C   UNL     1      -3.731   2.949  -5.659  0.00  0.00    +0.063 A 
ATOM     26 CL   UNL     1      -4.972   3.990  -5.035  0.00  0.00    -0.082 Cl
ENDBRANCH  15  20
BRANCH  12  27
ATOM     27  C   UNL     1      -2.500   1.013   0.019  0.00  0.00    +0.183 C 
ATOM     28  O   UNL     1      -2.489  -0.200   0.013  0.00  0.00    -0.290 OA
BRANCH  27  29
ATOM     29  C   UNL     1      -1.232   1.760   0.017  0.00  0.00    +0.021 A 
ATOM     30  C   UNL     1      -1.240   3.159   0.030  0.00  0.00    +0.011 A 
ATOM     31  C   UNL     1      -0.049   3.852   0.023  0.00  0.00    +0.003 A 
ATOM     32  C   UNL     1       1.154   3.167   0.008  0.00  0.00    +0.033 A 
ATOM     33  C   UNL     1       1.171   1.783   0.001  0.00  0.00    +0.127 A 
ATOM     34  C   UNL     1      -0.013   1.076   0.008  0.00  0.00    +0.044 A 
BRANCH  33  35
ATOM     35  N   UNL     1       2.463   1.061  -0.015  0.00  0.00    +0.056 N 
ATOM     36  O   UNL     1       2.479  -0.157  -0.021  0.00  0.00    -0.126 OA
ATOM     37  O   UNL     1       3.509   1.684  -0.022  0.00  0.00    -0.126 OA
ENDBRANCH  33  35
ENDBRANCH  27  29
ENDBRANCH  12  27
TORSDOF 4
