REMARK  Name = ZINC34716192
REMARK  8 active torsions:
REMARK  status: ('A' for Active; 'I' for Inactive)
REMARK    1  A    between atoms: C_1  and  C_2
REMARK    2  A    between atoms: C_2  and  N_3
REMARK    3  A    between atoms: C_8  and  C_26
REMARK    4  A    between atoms: C_11  and  C_14
REMARK    5  A    between atoms: N_16  and  C_17
REMARK    6  A    between atoms: C_17  and  C_19
REMARK    7  A    between atoms: C_17  and  C_20
REMARK    8  A    between atoms: C_30  and  C_32
REMARK                            x       y       z     vdW  Elec       q    Type
REMARK                         _______ _______ _______ _____ _____    ______ ____
ROOT
ATOM      1  N   UNL     1       0.344  -2.692   0.507  0.00  0.00    -0.300 N 
ATOM      2  C   UNL     1       0.854  -1.814   1.394  0.00  0.00    +0.302 C 
ATOM      3  O   UNL     1       0.806  -0.621   1.164  0.00  0.00    -0.253 OA
ATOM      4  N   UNL     1       1.417  -2.258   2.535  0.00  0.00    -0.284 N 
ATOM      5  C   UNL     1       1.587  -3.698   2.774  0.00  0.00    +0.117 C 
ATOM      6  C   UNL     1       0.951  -4.053   4.121  0.00  0.00    +0.037 C 
ATOM      7  C   UNL     1       1.545  -3.159   5.213  0.00  0.00    +0.024 C 
ATOM      8  C   UNL     1       1.232  -1.694   4.902  0.00  0.00    +0.093 C 
ATOM      9  C   UNL     1       1.877  -1.312   3.561  0.00  0.00    +0.122 C 
ATOM     10  H   UNL     1       0.448  -3.645   0.654  0.00  0.00    +0.150 HD
ENDROOT
BRANCH   6  11
ATOM     11  C   UNL     1       1.231  -5.498   4.445  0.00  0.00    -0.042 A 
ATOM     12  C   UNL     1       2.536  -5.937   4.572  0.00  0.00    +0.007 A 
ATOM     13  C   UNL     1       2.794  -7.261   4.869  0.00  0.00    +0.039 A 
ATOM     14  C   UNL     1       1.745  -8.149   5.040  0.00  0.00    +0.126 A 
ATOM     15  C   UNL     1       0.439  -7.708   4.913  0.00  0.00    -0.015 A 
ATOM     16  C   UNL     1       0.183  -6.382   4.621  0.00  0.00    +0.010 A 
ATOM     17  C   UNL     1      -0.704  -8.673   5.099  0.00  0.00    +0.047 C 
ATOM     18  F   UNL     1       1.996  -9.444   5.330  0.00  0.00    -0.205 F 
ENDBRANCH   6  11
BRANCH   8  19
ATOM     19  C   UNL     1       1.789  -0.818   5.994  0.00  0.00    +0.218 C 
ATOM     20  O   UNL     1       2.378  -1.316   6.930  0.00  0.00    -0.275 OA
ATOM     21  N   UNL     1       1.632   0.519   5.931  0.00  0.00    -0.308 N 
ATOM     22  H   UNL     1       1.160   0.917   5.183  0.00  0.00    +0.149 HD
BRANCH  21  23
ATOM     23  C   UNL     1       2.173   1.371   6.993  0.00  0.00    +0.100 C 
ATOM     24  C   UNL     1       3.643   1.677   6.701  0.00  0.00    +0.033 C 
BRANCH  23  25
ATOM     25  C   UNL     1       1.393   2.659   7.050  0.00  0.00    -0.027 A 
ATOM     26  C   UNL     1       0.992   3.276   5.880  0.00  0.00    +0.005 A 
ATOM     27  C   UNL     1       0.276   4.458   5.932  0.00  0.00    +0.000 A 
ATOM     28  C   UNL     1      -0.037   5.023   7.155  0.00  0.00    +0.000 A 
ATOM     29  C   UNL     1       0.364   4.405   8.325  0.00  0.00    +0.000 A 
ATOM     30  C   UNL     1       1.075   3.221   8.272  0.00  0.00    +0.005 A 
ENDBRANCH  23  25
ENDBRANCH  21  23
ENDBRANCH   8  19
BRANCH   1  32
ATOM     31  C   UNL     1      -0.839  -3.398  -1.513  0.00  0.00    +0.024 C 
ATOM     32  C   UNL     1      -0.366  -2.206  -0.679  0.00  0.00    +0.102 C 
ENDBRANCH   1  32
TORSDOF 5
