REMARK  Name = ZINC39965028
REMARK  15 active torsions:
REMARK  status: ('A' for Active; 'I' for Inactive)
REMARK    1  A    between atoms: C_1  and  C_2
REMARK    2  A    between atoms: C_2  and  C_3
REMARK    3  A    between atoms: C_4  and  C_35
REMARK    4  A    between atoms: C_6  and  N_13
REMARK    5  A    between atoms: C_7  and  C_8
REMARK    6  A    between atoms: C_8  and  O_10
REMARK    7  A    between atoms: O_10  and  C_11
REMARK    8  A    between atoms: C_11  and  C_12
REMARK    9  A    between atoms: C_14  and  C_16
REMARK   10  A    between atoms: C_16  and  N_17
REMARK   11  A    between atoms: N_20  and  S_23
REMARK   12  A    between atoms: S_23  and  C_26
REMARK   13  A    between atoms: C_29  and  C_32
REMARK   14  A    between atoms: C_32  and  C_33
REMARK   15  A    between atoms: C_32  and  C_34
REMARK                            x       y       z     vdW  Elec       q    Type
REMARK                         _______ _______ _______ _____ _____    ______ ____
ROOT
ATOM      1  C   UNL     1       5.760  -2.233  -4.306  0.00  0.00    +0.180 C 
ENDROOT
BRANCH   1   2
ATOM      2  N   UNL     1       5.869  -2.667  -5.705  0.00  0.00    -0.291 NA
ATOM      3  C   UNL     1       5.545  -1.568  -6.624  0.00  0.00    +0.102 C 
ATOM      4  C   UNL     1       5.492  -2.104  -8.058  0.00  0.00    +0.125 C 
ATOM      5  N   UNL     1       6.755  -2.802  -8.343  0.00  0.00    -0.174 NA
ATOM      6  C   UNL     1       7.216  -3.824  -7.391  0.00  0.00    +0.125 C 
ATOM      7  C   UNL     1       7.201  -3.220  -5.983  0.00  0.00    +0.102 C 
BRANCH   5   8
ATOM      8  S   UNL     1       7.636  -2.447  -9.700  0.00  0.00    +0.061 S 
ATOM      9  O   UNL     1       8.425  -3.593  -9.983  0.00  0.00    -0.153 OA
ATOM     10  O   UNL     1       6.725  -1.897 -10.642  0.00  0.00    -0.153 OA
BRANCH   8  11
ATOM     11  C   UNL     1       8.756  -1.157  -9.270  0.00  0.00    +0.105 A 
ATOM     12  C   UNL     1       8.377   0.165  -9.413  0.00  0.00    +0.029 A 
ATOM     13  C   UNL     1       9.256   1.177  -9.076  0.00  0.00    +0.006 A 
ATOM     14  C   UNL     1      10.515   0.868  -8.596  0.00  0.00    -0.045 A 
ATOM     15  C   UNL     1      10.894  -0.454  -8.453  0.00  0.00    +0.006 A 
ATOM     16  C   UNL     1      10.013  -1.466  -8.786  0.00  0.00    +0.029 A 
BRANCH  14  17
ATOM     17  C   UNL     1      11.474   1.971  -8.230  0.00  0.00    +0.013 C 
ATOM     18  C   UNL     1      11.847   1.853  -6.751  0.00  0.00    +0.012 C 
ATOM     19  C   UNL     1      12.737   1.853  -9.085  0.00  0.00    +0.012 C 
ENDBRANCH  14  17
ENDBRANCH   8  11
ENDBRANCH   5   8
ENDBRANCH   1   2
BRANCH   1  21
ATOM     20  N   UNL     1       3.984  -1.480  -2.758  0.00  0.00    -0.278 N 
ATOM     21  C   UNL     1       4.324  -1.903  -3.991  0.00  0.00    +0.232 C 
ATOM     22  O   UNL     1       3.474  -2.019  -4.848  0.00  0.00    -0.274 OA
ATOM     23  H   UNL     1       4.664  -1.388  -2.072  0.00  0.00    +0.155 HD
BRANCH  20  27
ATOM     24  C   UNL     1       0.707  -0.490  -1.238  0.00  0.00    -0.022 A 
ATOM     25  C   UNL     1       0.050  -0.725  -2.388  0.00  0.00    -0.008 A 
ATOM     26  S   UNL     1       1.336  -1.266  -3.493  0.00  0.00    -0.078 S 
ATOM     27  C   UNL     1       2.662  -1.178  -2.469  0.00  0.00    +0.086 A 
ATOM     28  C   UNL     1       2.133  -0.727  -1.267  0.00  0.00    +0.091 A 
ATOM     29  C   UNL     1      -1.422  -0.569  -2.672  0.00  0.00    +0.052 C 
BRANCH  24  31
ATOM     30  C   UNL     1      -0.019   1.526   0.010  0.00  0.00    +0.009 C 
ATOM     31  C   UNL     1       0.002  -0.004   0.002  0.00  0.00    +0.033 C 
ENDBRANCH  24  31
BRANCH  28  32
ATOM     32  C   UNL     1       2.975  -0.506  -0.089  0.00  0.00    +0.342 C 
ATOM     33  O   UNL     1       3.165  -1.412   0.700  0.00  0.00    -0.245 OA
BRANCH  32  34
ATOM     34  O   UNL     1       3.539   0.701   0.120  0.00  0.00    -0.461 OA
BRANCH  34  35
ATOM     35  C   UNL     1       4.348   0.845   1.290  0.00  0.00    +0.229 C 
ATOM     36  C   UNL     1       4.898   2.271   1.357  0.00  0.00    +0.048 C 
ENDBRANCH  34  35
ENDBRANCH  32  34
ENDBRANCH  28  32
ENDBRANCH  20  27
ENDBRANCH   1  21
TORSDOF 10
