REMARK  Name = ZINC09336337
REMARK  7 active torsions:
REMARK  status: ('A' for Active; 'I' for Inactive)
REMARK    1  A    between atoms: C_1  and  C_2
REMARK    2  A    between atoms: C_2  and  C_4
REMARK    3  A    between atoms: C_2  and  S_17
REMARK    4  A    between atoms: N_6  and  C_7
REMARK    5  A    between atoms: C_11  and  S_13
REMARK    6  A    between atoms: S_13  and  N_16
REMARK    7  A    between atoms: S_17  and  C_18
REMARK                            x       y       z     vdW  Elec       q    Type
REMARK                         _______ _______ _______ _____ _____    ______ ____
ROOT
ATOM      1  C   UNL     1      -5.101   3.195  -0.064  0.00  0.00    +0.230 C 
ATOM      2  O   UNL     1      -5.608   2.158   0.309  0.00  0.00    -0.274 OA
ATOM      3  N   UNL     1      -5.870   4.175  -0.578  0.00  0.00    -0.285 N 
ATOM      4  H   UNL     1      -5.474   5.029  -0.814  0.00  0.00    +0.155 HD
ENDROOT
BRANCH   3   5
ATOM      5  C   UNL     1      -7.239   3.962  -0.770  0.00  0.00    +0.035 A 
ATOM      6  C   UNL     1      -7.954   3.178   0.126  0.00  0.00    +0.023 A 
ATOM      7  C   UNL     1      -9.306   2.969  -0.067  0.00  0.00    +0.004 A 
ATOM      8  C   UNL     1      -9.947   3.540  -1.151  0.00  0.00    +0.028 A 
ATOM      9  C   UNL     1      -9.239   4.321  -2.044  0.00  0.00    +0.107 A 
ATOM     10  C   UNL     1      -7.888   4.538  -1.854  0.00  0.00    +0.051 A 
BRANCH   9  11
ATOM     11  S   UNL     1     -10.061   5.047  -3.423  0.00  0.00    +0.056 S 
ATOM     12  O   UNL     1      -9.067   5.284  -4.410  0.00  0.00    -0.153 OA
ATOM     13  O   UNL     1     -11.210   4.251  -3.676  0.00  0.00    -0.153 OA
BRANCH  11  14
ATOM     14  N   UNL     1     -10.611   6.532  -2.939  0.00  0.00    -0.204 NA
ATOM     15  H   UNL     1     -10.448   6.838  -2.033  0.00  0.00    +0.144 HD
ATOM     16  H   UNL     1     -11.097   7.096  -3.562  0.00  0.00    +0.144 HD
ENDBRANCH  11  14
ENDBRANCH   9  11
ENDBRANCH   3   5
BRANCH   1  18
ATOM     17  C   UNL     1      -3.285   4.122   1.348  0.00  0.00    +0.029 C 
ATOM     18  C   UNL     1      -3.610   3.386   0.046  0.00  0.00    +0.137 C 
BRANCH  18  19
ATOM     19  S   UNL     1      -2.792   1.771   0.045  0.00  0.00    -0.074 S 
BRANCH  19  20
ATOM     20  C   UNL     1      -1.106   2.282   0.029  0.00  0.00    +0.192 A 
ATOM     21  N   UNL     1      -0.662   3.519   0.020  0.00  0.00    -0.122 NA
ATOM     22  N   UNL     1       0.625   3.523   0.016  0.00  0.00    -0.134 NA
ATOM     23  C   UNL     1       1.071   2.302   0.026  0.00  0.00    +0.134 A 
ATOM     24  N   UNL     1      -0.013   1.471   0.023  0.00  0.00    -0.306 N 
ATOM     25  C   UNL     1       0.011   0.009   0.007  0.00  0.00    +0.125 C 
ATOM     26  C   UNL     1       1.297  -0.484   0.676  0.00  0.00    +0.022 C 
ATOM     27  C   UNL     1       2.407  -0.606  -0.366  0.00  0.00    +0.002 C 
ATOM     28  C   UNL     1       2.708   0.751  -0.994  0.00  0.00    +0.008 C 
ATOM     29  C   UNL     1       2.511   1.856   0.049  0.00  0.00    +0.076 C 
ENDBRANCH  19  20
ENDBRANCH  18  19
ENDBRANCH   1  18
TORSDOF 6
