REMARK  Name = ZINC40451124
REMARK  7 active torsions:
REMARK  status: ('A' for Active; 'I' for Inactive)
REMARK    1  A    between atoms: C_1  and  C_2
REMARK    2  A    between atoms: C_2  and  C_3
REMARK    3  A    between atoms: C_8  and  S_9
REMARK    4  A    between atoms: S_9  and  N_12
REMARK    5  A    between atoms: C_25  and  C_27
REMARK    6  A    between atoms: C_30  and  S_33
REMARK    7  A    between atoms: S_33  and  C_34
REMARK                            x       y       z     vdW  Elec       q    Type
REMARK                         _______ _______ _______ _____ _____    ______ ____
ROOT
ATOM      1  N   UNL     1       2.592   1.595   0.091  0.00  0.00    -0.163 NA
ATOM      2  C   UNL     1       3.414   2.657  -0.510  0.00  0.00    +0.115 C 
ATOM      3  C   UNL     1       2.577   3.400  -1.558  0.00  0.00    +0.054 C 
ATOM      4  C   UNL     1       1.213   3.686  -0.984  0.00  0.00    -0.016 A 
ATOM      5  C   UNL     1       0.229   4.645  -1.443  0.00  0.00    +0.003 A 
ATOM      6  C   UNL     1       0.221   5.562  -2.499  0.00  0.00    +0.010 A 
ATOM      7  C   UNL     1      -0.908   6.331  -2.644  0.00  0.00    +0.001 A 
ATOM      8  C   UNL     1      -1.993   6.214  -1.791  0.00  0.00    +0.002 A 
ATOM      9  C   UNL     1      -2.011   5.315  -0.739  0.00  0.00    +0.026 A 
ATOM     10  C   UNL     1      -0.879   4.521  -0.567  0.00  0.00    +0.047 A 
ATOM     11  N   UNL     1      -0.569   3.554   0.345  0.00  0.00    -0.356 N 
ATOM     12  H   UNL     1      -1.148   3.259   1.065  0.00  0.00    +0.166 HD
ATOM     13  C   UNL     1       0.683   3.062   0.090  0.00  0.00    +0.044 A 
ATOM     14  C   UNL     1       1.403   1.986   0.866  0.00  0.00    +0.156 C 
ENDROOT
BRANCH  14  15
ATOM     15  C   UNL     1       1.822   2.524   2.210  0.00  0.00    -0.023 A 
ATOM     16  C   UNL     1       1.443   1.865   3.365  0.00  0.00    +0.007 A 
ATOM     17  C   UNL     1       1.825   2.356   4.598  0.00  0.00    +0.015 A 
ATOM     18  C   UNL     1       2.591   3.512   4.678  0.00  0.00    +0.008 A 
ATOM     19  C   UNL     1       2.971   4.171   3.514  0.00  0.00    +0.015 A 
ATOM     20  C   UNL     1       2.589   3.672   2.285  0.00  0.00    +0.007 A 
BRANCH  18  21
ATOM     21  S   UNL     1       3.081   4.142   6.249  0.00  0.00    -0.129 S 
ATOM     22  C   UNL     1       4.041   5.627   5.847  0.00  0.00    +0.090 C 
ENDBRANCH  18  21
ENDBRANCH  14  15
BRANCH   1  23
ATOM     23  S   UNL     1       2.991  -0.001  -0.105  0.00  0.00    +0.062 S 
ATOM     24  O   UNL     1       2.468  -0.691   1.021  0.00  0.00    -0.153 OA
ATOM     25  O   UNL     1       4.369  -0.036  -0.449  0.00  0.00    -0.153 OA
BRANCH  23  31
ATOM     26  C   UNL     1       2.456  -1.793  -2.093  0.00  0.00    -0.021 A 
ATOM     27  C   UNL     1       1.758  -2.258  -3.193  0.00  0.00    +0.005 A 
ATOM     28  C   UNL     1       0.715  -1.516  -3.713  0.00  0.00    +0.000 A 
ATOM     29  C   UNL     1       0.368  -0.309  -3.134  0.00  0.00    +0.002 A 
ATOM     30  C   UNL     1       1.065   0.155  -2.034  0.00  0.00    +0.029 A 
ATOM     31  C   UNL     1       2.106  -0.589  -1.511  0.00  0.00    +0.109 A 
BRANCH  26  33
ATOM     32  C   UNL     1       3.072  -3.491  -0.394  0.00  0.00    +0.009 C 
ATOM     33  C   UNL     1       3.593  -2.602  -1.526  0.00  0.00    +0.034 C 
ENDBRANCH  26  33
ENDBRANCH  23  31
ENDBRANCH   1  23
TORSDOF 5
