REMARK  Name = ZINC62497196
REMARK  7 active torsions:
REMARK  status: ('A' for Active; 'I' for Inactive)
REMARK    1  A    between atoms: C_1  and  C_2
REMARK    2  A    between atoms: C_2  and  C_3
REMARK    3  A    between atoms: C_2  and  C_4
REMARK    4  A    between atoms: C_4  and  N_5
REMARK    5  A    between atoms: C_9  and  O_24
REMARK    6  A    between atoms: C_13  and  C_17
REMARK    7  A    between atoms: C_17  and  C_18
REMARK                            x       y       z     vdW  Elec       q    Type
REMARK                         _______ _______ _______ _____ _____    ______ ____
ROOT
ATOM      1  N   UNL     1      -2.105  -0.148  -1.230  0.00  0.00    -0.265 N 
ATOM      2  C   UNL     1      -2.801   1.068  -1.315  0.00  0.00    +0.079 A 
ATOM      3  C   UNL     1      -3.058   1.811  -0.174  0.00  0.00    +0.031 A 
ATOM      4  C   UNL     1      -3.756   3.001  -0.269  0.00  0.00    +0.047 A 
ATOM      5  C   UNL     1      -4.200   3.451  -1.504  0.00  0.00    +0.120 A 
ATOM      6  C   UNL     1      -3.941   2.712  -2.649  0.00  0.00    +0.093 A 
ATOM      7  C   UNL     1      -3.237   1.524  -2.557  0.00  0.00    +0.146 A 
ATOM      8  O   UNL     1      -2.949   0.806  -3.676  0.00  0.00    -0.477 OA
ATOM      9  C   UNL     1      -2.871  -0.614  -3.535  0.00  0.00    +0.263 C 
ATOM     10  C   UNL     1      -2.058  -0.956  -2.311  0.00  0.00    +0.261 C 
ATOM     11  O   UNL     1      -1.369  -1.954  -2.296  0.00  0.00    -0.271 OA
ENDROOT
BRANCH   5  12
ATOM     12  O   UNL     1      -4.892   4.618  -1.592  0.00  0.00    -0.507 OA
ATOM     13  H   UNL     1      -4.334   5.396  -1.730  0.00  0.00    +0.292 HD
ENDBRANCH   5  12
BRANCH   1  14
ATOM     14  C   UNL     1      -1.433  -0.534   0.013  0.00  0.00    +0.117 C 
BRANCH  14  16
ATOM     15  C   UNL     1      -0.019   1.526   0.010  0.00  0.00    +0.009 C 
ATOM     16  C   UNL     1       0.002  -0.004   0.002  0.00  0.00    +0.001 C 
ATOM     17  C   UNL     1       0.742  -0.511   1.242  0.00  0.00    +0.009 C 
ENDBRANCH  14  16
ENDBRANCH   1  14
BRANCH   9  18
ATOM     18  C   UNL     1      -4.281  -1.190  -3.393  0.00  0.00    +0.089 C 
BRANCH  18  19
ATOM     19  C   UNL     1      -5.049  -0.957  -4.669  0.00  0.00    -0.043 A 
ATOM     20  C   UNL     1      -5.783   0.203  -4.832  0.00  0.00    +0.004 A 
ATOM     21  C   UNL     1      -6.488   0.416  -6.002  0.00  0.00    +0.000 A 
ATOM     22  C   UNL     1      -6.458  -0.530  -7.009  0.00  0.00    +0.000 A 
ATOM     23  C   UNL     1      -5.723  -1.690  -6.846  0.00  0.00    +0.000 A 
ATOM     24  C   UNL     1      -5.015  -1.901  -5.678  0.00  0.00    +0.004 A 
ENDBRANCH  18  19
ENDBRANCH   9  18
TORSDOF 5
