REMARK  Name = ZINC38814913
REMARK  10 active torsions:
REMARK  status: ('A' for Active; 'I' for Inactive)
REMARK    1  A    between atoms: C_1  and  C_2
REMARK    2  A    between atoms: C_3  and  C_14
REMARK    3  A    between atoms: C_4  and  C_13
REMARK    4  A    between atoms: N_5  and  C_7
REMARK    5  A    between atoms: N_15  and  N_16
REMARK    6  A    between atoms: C_17  and  C_19
REMARK    7  A    between atoms: C_22  and  C_24
REMARK    8  A    between atoms: C_25  and  C_37
REMARK    9  A    between atoms: N_27  and  C_31
REMARK   10  A    between atoms: C_28  and  C_30
REMARK                            x       y       z     vdW  Elec       q    Type
REMARK                         _______ _______ _______ _____ _____    ______ ____
ROOT
ATOM      1  N   UNL     1      -0.770   1.284  -4.105  0.00  0.00    -0.202 N 
ATOM      2  C   UNL     1      -0.987   2.587  -4.371  0.00  0.00    +0.280 C 
ATOM      3  O   UNL     1      -1.008   3.399  -3.462  0.00  0.00    -0.267 OA
ATOM      4  H   UNL     1      -0.753   0.638  -4.828  0.00  0.00    +0.178 HD
ENDROOT
BRANCH   2   5
ATOM      5  C   UNL     1      -1.190   3.014  -5.706  0.00  0.00    +0.132 C 
ATOM      6  N   UNL     1      -1.202   2.271  -6.787  0.00  0.00    -0.148 NA
ATOM      7  N   UNL     1      -1.409   2.916  -7.867  0.00  0.00    -0.153 NA
ATOM      8  C   UNL     1      -1.572   4.217  -7.695  0.00  0.00    +0.076 C 
ATOM      9  C   UNL     1      -1.446   4.429  -6.195  0.00  0.00    +0.120 C 
BRANCH   8  10
ATOM     10  C   UNL     1      -1.812   5.184  -8.676  0.00  0.00    +0.016 C 
ATOM     11  C   UNL     1      -1.971   6.518  -8.477  0.00  0.00    +0.026 C 
ATOM     12  N   UNL     1      -2.189   7.172  -9.643  0.00  0.00    -0.267 N 
ATOM     13  N   UNL     1      -2.189   6.285 -10.727  0.00  0.00    -0.246 N 
ATOM     14  C   UNL     1      -1.940   4.947 -10.166  0.00  0.00    +0.124 C 
ATOM     15  C   UNL     1      -0.642   4.362 -10.727  0.00  0.00    +0.035 C 
ATOM     16  C   UNL     1      -1.912   7.186  -7.128  0.00  0.00    +0.062 C 
ATOM     17  H   UNL     1      -2.326   8.129  -9.717  0.00  0.00    +0.170 HD
BRANCH  13  18
ATOM     18  C   UNL     1      -2.383   6.607 -12.072  0.00  0.00    +0.048 A 
ATOM     19  C   UNL     1      -2.361   5.608 -13.037  0.00  0.00    +0.025 A 
ATOM     20  C   UNL     1      -2.553   5.929 -14.366  0.00  0.00    +0.002 A 
ATOM     21  C   UNL     1      -2.766   7.244 -14.737  0.00  0.00    +0.000 A 
ATOM     22  C   UNL     1      -2.788   8.241 -13.779  0.00  0.00    +0.002 A 
ATOM     23  C   UNL     1      -2.603   7.926 -12.448  0.00  0.00    +0.025 A 
ENDBRANCH  13  18
ENDBRANCH   8  10
ENDBRANCH   2   5
BRANCH   1  25
ATOM     24  C   UNL     1      -0.360  -0.393  -2.528  0.00  0.00    +0.142 C 
ATOM     25  N   UNL     1      -0.569   0.863  -2.784  0.00  0.00    -0.187 NA
BRANCH  24  28
ATOM     26  C   UNL     1      -0.360   1.476   0.035  0.00  0.00    +0.068 C 
ATOM     27  C   UNL     1      -0.146  -0.016   0.013  0.00  0.00    +0.069 A 
ATOM     28  C   UNL     1      -0.149  -0.836  -1.137  0.00  0.00    +0.038 A 
ATOM     29  C   UNL     1       0.083  -2.129  -0.718  0.00  0.00    +0.051 A 
ATOM     30  N   UNL     1       0.221  -2.098   0.625  0.00  0.00    -0.236 N 
ATOM     31  N   UNL     1       0.078  -0.773   1.053  0.00  0.00    -0.171 NA
ATOM     32  C   UNL     1       0.168  -3.351  -1.596  0.00  0.00    +0.066 C 
BRANCH  30  33
ATOM     33  C   UNL     1       0.468  -3.204   1.450  0.00  0.00    +0.066 A 
ATOM     34  C   UNL     1      -0.208  -3.338   2.655  0.00  0.00    +0.028 A 
ATOM     35  C   UNL     1       0.038  -4.429   3.466  0.00  0.00    +0.002 A 
ATOM     36  C   UNL     1       0.957  -5.387   3.078  0.00  0.00    +0.000 A 
ATOM     37  C   UNL     1       1.632  -5.256   1.879  0.00  0.00    +0.002 A 
ATOM     38  C   UNL     1       1.387  -4.170   1.061  0.00  0.00    +0.028 A 
ENDBRANCH  30  33
ENDBRANCH  24  28
ENDBRANCH   1  25
TORSDOF 6
