REMARK  Name = ZINC12151531
REMARK  10 active torsions:
REMARK  status: ('A' for Active; 'I' for Inactive)
REMARK    1  A    between atoms: C_1  and  C_2
REMARK    2  A    between atoms: C_2  and  C_3
REMARK    3  A    between atoms: C_2  and  N_4
REMARK    4  A    between atoms: C_5  and  C_7
REMARK    5  A    between atoms: C_10  and  S_25
REMARK    6  A    between atoms: C_13  and  C_14
REMARK    7  A    between atoms: C_13  and  N_65
REMARK    8  A    between atoms: C_22  and  C_23
REMARK    9  A    between atoms: C_22  and  C_24
REMARK   10  A    between atoms: S_25  and  C_26
REMARK                            x       y       z     vdW  Elec       q    Type
REMARK                         _______ _______ _______ _____ _____    ______ ____
ROOT
ATOM      1  C   UNL     1       2.462   0.920  -0.017  0.00  0.00    +0.021 C 
ATOM      2  C   UNL     1       2.598   0.060   1.254  0.00  0.00    +0.006 C 
ATOM      3  C   UNL     1       3.876   0.585   1.957  0.00  0.00    +0.037 C 
ATOM      4  C   UNL     1       4.655   1.261   0.800  0.00  0.00    -0.063 C 
ATOM      5  N   UNL     1       3.579   1.871   0.011  0.00  0.00    +0.391 N 
ATOM      6  H   UNL     1       3.278   2.747   0.454  0.00  0.00    -0.080 HD
ENDROOT
BRANCH   1   8
ATOM      7  N   UNL     1      -0.011   0.966   0.007  0.00  0.00    -0.314 N 
ATOM      8  C   UNL     1       1.147   1.655   0.000  0.00  0.00    +0.200 C 
ATOM      9  O   UNL     1       1.130   2.868   0.007  0.00  0.00    -0.278 OA
ATOM     10  H   UNL     1       0.002  -0.004   0.002  0.00  0.00    +0.149 HD
BRANCH   7  12
ATOM     11  C   UNL     1      -1.680   2.047  -1.416  0.00  0.00    +0.027 C 
ATOM     12  C   UNL     1      -1.290   1.681   0.017  0.00  0.00    +0.067 C 
ATOM     13  C   UNL     1      -2.370   0.786   0.627  0.00  0.00    +0.027 C 
ENDBRANCH   7  12
ENDBRANCH   1   8
BRANCH   5  14
ATOM     14  C   UNL     1       4.045   2.161  -1.379  0.00  0.00    -0.046 C 
BRANCH  14  15
ATOM     15  C   UNL     1       5.007   3.321  -1.359  0.00  0.00    -0.086 C 
ATOM     16  C   UNL     1       6.305   3.130  -1.294  0.00  0.00    -0.029 C 
ATOM     17  C   UNL     1       7.232   4.320  -1.233  0.00  0.00    +0.031 C 
ATOM     18  C   UNL     1       6.419   5.615  -1.371  0.00  0.00    -0.000 C 
ATOM     19  C   UNL     1       5.324   5.523  -2.482  0.00  0.00    +0.012 C 
ATOM     20  C   UNL     1       4.513   4.756  -1.409  0.00  0.00    +0.019 C 
ATOM     21  C   UNL     1       5.242   5.633  -0.374  0.00  0.00    -0.025 C 
ATOM     22  C   UNL     1       4.615   7.016  -0.182  0.00  0.00    +0.012 C 
ATOM     23  C   UNL     1       5.538   4.918   0.946  0.00  0.00    +0.012 C 
ENDBRANCH  14  15
ENDBRANCH   5  14
BRANCH   3  24
ATOM     24  S   UNL     1       4.829  -0.786   2.655  0.00  0.00    -0.086 S 
BRANCH  24  25
ATOM     25  C   UNL     1       6.176   0.105   3.359  0.00  0.00    +0.167 A 
ATOM     26  N   UNL     1       7.221  -0.458   4.037  0.00  0.00    -0.333 N 
ATOM     27  H   UNL     1       7.353  -1.432   4.220  0.00  0.00    +0.168 HD
ATOM     28  C   UNL     1       8.062   0.573   4.423  0.00  0.00    +0.067 A 
ATOM     29  C   UNL     1       9.258   0.627   5.122  0.00  0.00    +0.028 A 
ATOM     30  C   UNL     1       9.863   1.845   5.356  0.00  0.00    +0.002 A 
ATOM     31  C   UNL     1       9.282   3.017   4.897  0.00  0.00    +0.002 A 
ATOM     32  C   UNL     1       8.094   2.983   4.202  0.00  0.00    +0.030 A 
ATOM     33  C   UNL     1       7.469   1.757   3.956  0.00  0.00    +0.090 A 
ATOM     34  N   UNL     1       6.323   1.406   3.316  0.00  0.00    -0.222 NA
ENDBRANCH  24  25
ENDBRANCH   3  24
TORSDOF 6
