REMARK  Name = ZINC25078126
REMARK  8 active torsions:
REMARK  status: ('A' for Active; 'I' for Inactive)
REMARK    1  A    between atoms: C_1  and  C_2
REMARK    2  A    between atoms: C_2  and  C_3
REMARK    3  A    between atoms: C_2  and  C_4
REMARK    4  A    between atoms: C_7  and  C_10
REMARK    5  A    between atoms: C_10  and  C_30
REMARK    6  A    between atoms: N_13  and  C_17
REMARK    7  A    between atoms: C_17  and  C_18
REMARK    8  A    between atoms: C_21  and  C_23
REMARK                            x       y       z     vdW  Elec       q    Type
REMARK                         _______ _______ _______ _____ _____    ______ ____
ROOT
ATOM      1  C   UNL     1      -1.366   2.788   3.019  0.00  0.00    +0.135 C 
ATOM      2  C   UNL     1      -0.418   2.719   1.838  0.00  0.00    +0.251 C 
ATOM      3  O   UNL     1       0.418   3.538   1.521  0.00  0.00    -0.272 OA
ATOM      4  N   UNL     1      -0.698   1.558   1.213  0.00  0.00    -0.218 N 
ATOM      5  C   UNL     1      -1.677   0.888   1.833  0.00  0.00    +0.310 C 
ATOM      6  O   UNL     1      -2.101  -0.188   1.459  0.00  0.00    -0.252 OA
ATOM      7  N   UNL     1      -2.138   1.538   2.917  0.00  0.00    -0.281 N 
ATOM      8  C   UNL     1      -2.290   4.002   2.906  0.00  0.00    +0.047 C 
ATOM      9  H   UNL     1      -2.916   1.310   3.660  0.00  0.00    +0.152 HD
ENDROOT
BRANCH   1  13
ATOM     10  C   UNL     1       0.825   2.906   6.684  0.00  0.00    -0.045 A 
ATOM     11  C   UNL     1      -0.390   2.249   6.626  0.00  0.00    +0.004 A 
ATOM     12  C   UNL     1      -1.099   2.211   5.440  0.00  0.00    +0.006 A 
ATOM     13  C   UNL     1      -0.593   2.830   4.312  0.00  0.00    -0.015 A 
ATOM     14  C   UNL     1       0.624   3.483   4.369  0.00  0.00    +0.006 A 
ATOM     15  C   UNL     1       1.330   3.526   5.557  0.00  0.00    +0.004 A 
BRANCH  10  17
ATOM     16  C   UNL     1       2.965   2.291   7.775  0.00  0.00    +0.012 C 
ATOM     17  C   UNL     1       1.598   2.948   7.977  0.00  0.00    +0.013 C 
ATOM     18  C   UNL     1       1.790   4.402   8.410  0.00  0.00    +0.012 C 
ENDBRANCH  10  17
ENDBRANCH   1  13
BRANCH   4  19
ATOM     19  C   UNL     1      -0.013   1.086   0.008  0.00  0.00    +0.174 C 
BRANCH  19  20
ATOM     20  C   UNL     1      -0.742   1.585  -1.213  0.00  0.00    +0.067 A 
ATOM     21  C   UNL     1      -0.342   2.732  -1.823  0.00  0.00    +0.072 A 
ATOM     22  S   UNL     1      -1.525   2.824  -3.161  0.00  0.00    -0.075 S 
ATOM     23  C   UNL     1      -2.425   1.333  -2.758  0.00  0.00    +0.109 A 
ATOM     24  N   UNL     1      -1.767   0.916  -1.686  0.00  0.00    -0.242 NA
BRANCH  23  25
ATOM     25  C   UNL     1      -3.591   0.728  -3.438  0.00  0.00    +0.007 A 
ATOM     26  C   UNL     1      -4.144  -0.459  -2.956  0.00  0.00    +0.013 A 
ATOM     27  C   UNL     1      -5.235  -1.016  -3.590  0.00  0.00    +0.039 A 
ATOM     28  C   UNL     1      -5.774  -0.405  -4.711  0.00  0.00    +0.123 A 
ATOM     29  C   UNL     1      -5.225   0.770  -5.197  0.00  0.00    +0.039 A 
ATOM     30  C   UNL     1      -4.138   1.339  -4.567  0.00  0.00    +0.013 A 
ATOM     31  F   UNL     1      -6.839  -0.958  -5.332  0.00  0.00    -0.205 F 
ENDBRANCH  23  25
ENDBRANCH  19  20
ENDBRANCH   4  19
TORSDOF 5
