REMARK  Name = ZINC09366162
REMARK  8 active torsions:
REMARK  status: ('A' for Active; 'I' for Inactive)
REMARK    1  A    between atoms: C_1  and  C_2
REMARK    2  A    between atoms: C_2  and  C_3
REMARK    3  A    between atoms: C_2  and  C_4
REMARK    4  A    between atoms: C_4  and  C_6
REMARK    5  A    between atoms: C_4  and  N_17
REMARK    6  A    between atoms: C_18  and  C_20
REMARK    7  A    between atoms: C_20  and  N_56
REMARK    8  A    between atoms: C_24  and  C_26
REMARK                            x       y       z     vdW  Elec       q    Type
REMARK                         _______ _______ _______ _____ _____    ______ ____
ROOT
ATOM      1  N   UNL     1       2.204   4.094  -0.885  0.00  0.00    -0.310 N 
ATOM      2  C   UNL     1       2.085   5.318  -1.437  0.00  0.00    +0.197 C 
ATOM      3  O   UNL     1       1.114   6.001  -1.192  0.00  0.00    -0.278 OA
ATOM      4  H   UNL     1       2.981   3.547  -1.080  0.00  0.00    +0.149 HD
ENDROOT
BRANCH   1   5
ATOM      5  C   UNL     1       1.159   3.589   0.010  0.00  0.00    +0.106 C 
BRANCH   5   6
ATOM      6  C   UNL     1       1.175   2.082   0.002  0.00  0.00    -0.023 A 
ATOM      7  C   UNL     1       2.381   1.406  -0.013  0.00  0.00    +0.009 A 
ATOM      8  C   UNL     1       2.404   0.023  -0.021  0.00  0.00    +0.050 A 
ATOM      9  C   UNL     1       1.212  -0.683  -0.014  0.00  0.00    +0.162 A 
ATOM     10  C   UNL     1       0.002  -0.004   0.002  0.00  0.00    +0.162 A 
ATOM     11  C   UNL     1      -0.017   1.380   0.010  0.00  0.00    +0.055 A 
ATOM     12  O   UNL     1      -1.166  -0.709   0.011  0.00  0.00    -0.488 OA
ATOM     13  C   UNL     1      -1.468  -1.433  -1.184  0.00  0.00    +0.232 C 
ATOM     14  C   UNL     1      -0.780  -2.789  -1.181  0.00  0.00    +0.082 C 
ATOM     15  C   UNL     1       0.736  -2.669  -1.213  0.00  0.00    +0.232 C 
ATOM     16  O   UNL     1       1.220  -2.047  -0.021  0.00  0.00    -0.488 OA
ENDBRANCH   5   6
BRANCH   5  18
ATOM     17  C   UNL     1       0.328   3.567   2.366  0.00  0.00    +0.009 C 
ATOM     18  C   UNL     1       1.418   4.094   1.431  0.00  0.00    +0.008 C 
ATOM     19  C   UNL     1       2.784   3.596   1.909  0.00  0.00    +0.009 C 
ENDBRANCH   5  18
ENDBRANCH   1   5
BRANCH   2  20
ATOM     20  C   UNL     1       3.159   5.836  -2.357  0.00  0.00    +0.020 C 
BRANCH  20  25
ATOM     21  C   UNL     1       2.886   8.162  -1.725  0.00  0.00    -0.077 C 
ATOM     22  C   UNL     1       3.860   9.270  -2.178  0.00  0.00    -0.020 C 
ATOM     23  C   UNL     1       3.829   9.151  -3.725  0.00  0.00    -0.008 C 
ATOM     24  C   UNL     1       3.688   7.621  -3.918  0.00  0.00    +0.020 C 
ATOM     25  N   UNL     1       2.786   7.195  -2.830  0.00  0.00    +0.393 N 
ATOM     26  H   UNL     1       1.820   7.175  -3.177  0.00  0.00    -0.080 HD
BRANCH  24  27
ATOM     27  C   UNL     1       3.063   7.316  -5.256  0.00  0.00    +0.197 C 
ATOM     28  O   UNL     1       1.976   6.782  -5.309  0.00  0.00    -0.278 OA
ATOM     29  N   UNL     1       3.713   7.637  -6.392  0.00  0.00    -0.331 N 
ATOM     30  H   UNL     1       4.583   8.064  -6.349  0.00  0.00    +0.145 HD
ATOM     31  H   UNL     1       3.312   7.441  -7.253  0.00  0.00    +0.145 HD
ENDBRANCH  24  27
ENDBRANCH  20  25
ENDBRANCH   2  20
TORSDOF 6
