REMARK  Name = ZINC13111771
REMARK  7 active torsions:
REMARK  status: ('A' for Active; 'I' for Inactive)
REMARK    1  A    between atoms: C_1  and  C_2
REMARK    2  A    between atoms: C_2  and  N_4
REMARK    3  A    between atoms: N_6  and  C_23
REMARK    4  A    between atoms: N_13  and  C_14
REMARK    5  A    between atoms: C_14  and  C_15
REMARK    6  A    between atoms: C_15  and  O_16
REMARK    7  A    between atoms: O_16  and  C_17
REMARK                            x       y       z     vdW  Elec       q    Type
REMARK                         _______ _______ _______ _____ _____    ______ ____
ROOT
ATOM      1  N   UNL     1       0.291  -0.871  -0.993  0.00  0.00    -0.151 NA
ATOM      2  C   UNL     1      -0.157  -2.117  -0.861  0.00  0.00    +0.203 A 
ATOM      3  N   UNL     1      -0.575  -2.684   0.301  0.00  0.00    -0.315 N 
ATOM      4  C   UNL     1      -0.967  -3.992   0.032  0.00  0.00    +0.068 A 
ATOM      5  C   UNL     1      -1.468  -5.013   0.826  0.00  0.00    +0.028 A 
ATOM      6  C   UNL     1      -1.773  -6.236   0.263  0.00  0.00    +0.002 A 
ATOM      7  C   UNL     1      -1.582  -6.448  -1.092  0.00  0.00    +0.002 A 
ATOM      8  C   UNL     1      -1.084  -5.439  -1.891  0.00  0.00    +0.028 A 
ATOM      9  C   UNL     1      -0.774  -4.205  -1.335  0.00  0.00    +0.068 A 
ATOM     10  N   UNL     1      -0.274  -3.022  -1.868  0.00  0.00    -0.308 N 
ATOM     11  C   UNL     1      -0.608  -2.031   1.612  0.00  0.00    +0.152 C 
ENDROOT
BRANCH   1  13
ATOM     12  C   UNL     1      -0.332   1.117   0.311  0.00  0.00    +0.106 C 
ATOM     13  C   UNL     1       0.497  -0.121   0.086  0.00  0.00    +0.176 C 
ATOM     14  O   UNL     1       1.353  -0.435   0.890  0.00  0.00    -0.497 OA
ATOM     15  H   UNL     1       1.884  -1.198   0.622  0.00  0.00    +0.293 HD
ENDBRANCH   1  13
BRANCH  10  16
ATOM     16  C   UNL     1       0.070  -2.791  -3.273  0.00  0.00    +0.166 C 
BRANCH  16  17
ATOM     17  C   UNL     1       1.534  -3.169  -3.508  0.00  0.00    +0.250 C 
BRANCH  17  18
ATOM     18  O   UNL     1       1.702  -4.573  -3.303  0.00  0.00    -0.490 OA
BRANCH  18  19
ATOM     19  C   UNL     1       2.954  -5.076  -3.474  0.00  0.00    +0.121 A 
ATOM     20  C   UNL     1       3.999  -4.234  -3.825  0.00  0.00    +0.045 A 
ATOM     21  C   UNL     1       5.270  -4.747  -3.997  0.00  0.00    +0.004 A 
ATOM     22  C   UNL     1       5.501  -6.098  -3.820  0.00  0.00    +0.000 A 
ATOM     23  C   UNL     1       4.461  -6.940  -3.470  0.00  0.00    +0.004 A 
ATOM     24  C   UNL     1       3.189  -6.431  -3.290  0.00  0.00    +0.045 A 
ENDBRANCH  18  19
ENDBRANCH  17  18
ENDBRANCH  16  17
ENDBRANCH  10  16
TORSDOF 5
