REMARK  Name = ZINC67596866
REMARK  9 active torsions:
REMARK  status: ('A' for Active; 'I' for Inactive)
REMARK    1  A    between atoms: C_1  and  C_2
REMARK    2  A    between atoms: C_2  and  N_3
REMARK    3  A    between atoms: C_4  and  C_31
REMARK    4  A    between atoms: C_5  and  C_9
REMARK    5  A    between atoms: C_6  and  C_8
REMARK    6  A    between atoms: C_9  and  N_10
REMARK    7  A    between atoms: C_11  and  C_13
REMARK    8  A    between atoms: C_22  and  C_28
REMARK    9  A    between atoms: C_25  and  C_27
REMARK                            x       y       z     vdW  Elec       q    Type
REMARK                         _______ _______ _______ _____ _____    ______ ____
ROOT
ATOM      1  C   UNL     1      -7.133   0.517   3.570  0.00  0.00    +0.306 C 
ATOM      2  O   UNL     1      -6.817   1.414   2.816  0.00  0.00    -0.265 OA
ATOM      3  N   UNL     1      -8.388   0.457   4.057  0.00  0.00    -0.261 N 
ATOM      4  C   UNL     1      -8.802  -0.638   4.825  0.00  0.00    +0.041 A 
ATOM      5  C   UNL     1      -8.015  -1.785   4.847  0.00  0.00    +0.024 A 
ATOM      6  C   UNL     1      -8.403  -2.874   5.601  0.00  0.00    +0.002 A 
ATOM      7  C   UNL     1      -9.575  -2.823   6.335  0.00  0.00    +0.000 A 
ATOM      8  C   UNL     1     -10.358  -1.685   6.313  0.00  0.00    +0.006 A 
ATOM      9  C   UNL     1      -9.977  -0.589   5.557  0.00  0.00    -0.014 A 
ATOM     10  C   UNL     1     -10.859   0.632   5.548  0.00  0.00    +0.108 C 
ATOM     11  C   UNL     1     -10.066   1.861   5.106  0.00  0.00    +0.040 C 
ATOM     12  C   UNL     1      -9.343   1.542   3.796  0.00  0.00    +0.080 C 
ATOM     13  C   UNL     1      -8.595   2.783   3.303  0.00  0.00    +0.028 C 
ENDROOT
BRANCH  10  14
ATOM     14  C   UNL     1     -11.401   0.865   6.935  0.00  0.00    +0.218 C 
ATOM     15  O   UNL     1     -10.807   1.592   7.704  0.00  0.00    -0.275 OA
ATOM     16  N   UNL     1     -12.545   0.267   7.322  0.00  0.00    -0.329 N 
ATOM     17  H   UNL     1     -12.978  -0.375   6.738  0.00  0.00    +0.145 HD
ATOM     18  H   UNL     1     -12.935   0.478   8.184  0.00  0.00    +0.145 HD
ENDBRANCH  10  14
BRANCH   1  20
ATOM     19  N   UNL     1      -5.404  -1.143   3.009  0.00  0.00    -0.303 N 
ATOM     20  C   UNL     1      -6.131  -0.521   3.957  0.00  0.00    +0.300 C 
ATOM     21  O   UNL     1      -5.972  -0.803   5.127  0.00  0.00    -0.265 OA
ATOM     22  H   UNL     1      -5.531  -0.917   2.074  0.00  0.00    +0.149 HD
BRANCH  19  23
ATOM     23  C   UNL     1      -4.421  -2.161   3.389  0.00  0.00    +0.143 C 
BRANCH  23  26
ATOM     24  N   UNL     1      -2.351  -2.964   0.496  0.00  0.00    -0.268 N 
ATOM     25  C   UNL     1      -2.625  -2.208   1.579  0.00  0.00    +0.041 A 
ATOM     26  C   UNL     1      -3.749  -2.698   2.151  0.00  0.00    +0.013 A 
ATOM     27  C   UNL     1      -4.177  -3.791   1.391  0.00  0.00    +0.065 A 
ATOM     28  N   UNL     1      -3.343  -3.948   0.395  0.00  0.00    -0.176 NA
ATOM     29  C   UNL     1      -5.393  -4.638   1.667  0.00  0.00    +0.068 C 
ATOM     30  C   UNL     1      -1.822  -1.029   2.066  0.00  0.00    +0.065 C 
BRANCH  24  32
ATOM     31  C   UNL     1      -1.623  -1.835  -1.548  0.00  0.00    +0.029 C 
ATOM     32  C   UNL     1      -1.220  -2.784  -0.417  0.00  0.00    +0.140 C 
ENDBRANCH  24  32
ENDBRANCH  23  26
ENDBRANCH  19  23
ENDBRANCH   1  20
TORSDOF 5
