REMARK  Name = ZINC66612603
REMARK  10 active torsions:
REMARK  status: ('A' for Active; 'I' for Inactive)
REMARK    1  A    between atoms: C_1  and  C_2
REMARK    2  A    between atoms: C_2  and  C_3
REMARK    3  A    between atoms: C_3  and  C_4
REMARK    4  A    between atoms: C_4  and  N_5
REMARK    5  A    between atoms: C_6  and  C_8
REMARK    6  A    between atoms: C_14  and  C_16
REMARK    7  A    between atoms: C_16  and  C_17
REMARK    8  A    between atoms: C_17  and  C_19
REMARK    9  A    between atoms: C_17  and  N_20
REMARK   10  A    between atoms: C_21  and  C_23
REMARK                            x       y       z     vdW  Elec       q    Type
REMARK                         _______ _______ _______ _____ _____    ______ ____
ROOT
ATOM      1  C   UNL     1       2.269  -4.308  -3.932  0.00  0.00    +0.078 C 
ATOM      2  C   UNL     1       3.704  -3.777  -3.944  0.00  0.00    +0.032 C 
ATOM      3  C   UNL     1       4.407  -4.244  -5.222  0.00  0.00    +0.108 C 
ATOM      4  N   UNL     1       4.305  -5.707  -5.310  0.00  0.00    -0.301 N 
ATOM      5  C   UNL     1       2.977  -6.329  -5.219  0.00  0.00    +0.108 C 
ATOM      6  C   UNL     1       2.290  -5.838  -3.940  0.00  0.00    +0.032 C 
ATOM      7  C   UNL     1       5.408  -6.464  -5.473  0.00  0.00    +0.217 C 
ATOM      8  O   UNL     1       6.498  -5.939  -5.548  0.00  0.00    -0.276 OA
ENDROOT
BRANCH   1  10
ATOM      9  N   UNL     1       1.425  -2.500  -2.470  0.00  0.00    -0.315 N 
ATOM     10  C   UNL     1       1.564  -3.822  -2.692  0.00  0.00    +0.216 C 
ATOM     11  O   UNL     1       1.121  -4.620  -1.894  0.00  0.00    -0.276 OA
ATOM     12  H   UNL     1       1.779  -1.861  -3.109  0.00  0.00    +0.149 HD
BRANCH   9  13
ATOM     13  C   UNL     1       0.739  -2.027  -1.265  0.00  0.00    +0.104 C 
BRANCH  13  14
ATOM     14  C   UNL     1       0.718  -0.497  -1.257  0.00  0.00    +0.018 C 
BRANCH  14  16
ATOM     15  C   UNL     1      -0.019   1.526   0.010  0.00  0.00    +0.004 C 
ATOM     16  C   UNL     1       0.002  -0.004   0.002  0.00  0.00    -0.002 C 
ENDBRANCH  14  16
ENDBRANCH  13  14
ENDBRANCH   9  13
ENDBRANCH   1  10
BRANCH   7  17
ATOM     17  C   UNL     1       5.286  -7.963  -5.562  0.00  0.00    +0.118 C 
BRANCH  17  18
ATOM     18  C   UNL     1       6.675  -8.578  -5.744  0.00  0.00    +0.079 C 
ATOM     19  C   UNL     1       6.567 -10.104  -5.709  0.00  0.00    +0.028 C 
BRANCH  18  20
ATOM     20  N   UNL     1       7.231  -8.157  -7.032  0.00  0.00    -0.312 N 
ATOM     21  C   UNL     1       8.566  -8.127  -7.213  0.00  0.00    +0.216 C 
ATOM     22  O   UNL     1       9.308  -8.449  -6.309  0.00  0.00    -0.276 OA
ATOM     23  H   UNL     1       6.637  -7.900  -7.755  0.00  0.00    +0.149 HD
BRANCH  21  24
ATOM     24  C   UNL     1       9.137  -7.694  -8.539  0.00  0.00    +0.075 C 
ATOM     25  C   UNL     1       8.636  -8.630  -9.640  0.00  0.00    +0.013 C 
ATOM     26  C   UNL     1       9.216  -8.191 -10.986  0.00  0.00    +0.001 C 
ATOM     27  C   UNL     1      10.743  -8.247 -10.926  0.00  0.00    +0.000 C 
ATOM     28  C   UNL     1      11.245  -7.311  -9.825  0.00  0.00    +0.001 C 
ATOM     29  C   UNL     1      10.665  -7.750  -8.479  0.00  0.00    +0.013 C 
ENDBRANCH  21  24
ENDBRANCH  18  20
ENDBRANCH  17  18
ENDBRANCH   7  17
TORSDOF 8
