REMARK  Name = ZINC36595454
REMARK  19 active torsions:
REMARK  status: ('A' for Active; 'I' for Inactive)
REMARK    1  A    between atoms: C_1  and  C_2
REMARK    2  A    between atoms: C_5  and  C_7
REMARK    3  A    between atoms: C_7  and  N_8
REMARK    4  A    between atoms: N_8  and  C_9
REMARK    5  A    between atoms: C_9  and  C_11
REMARK    6  A    between atoms: C_9  and  C_20
REMARK    7  A    between atoms: C_14  and  N_17
REMARK    8  A    between atoms: N_17  and  C_18
REMARK    9  A    between atoms: N_17  and  C_19
REMARK   10  A    between atoms: N_22  and  C_23
REMARK   11  A    between atoms: C_23  and  C_24
REMARK   12  A    between atoms: C_23  and  C_25
REMARK   13  A    between atoms: C_23  and  C_26
REMARK   14  A    between atoms: C_26  and  C_27
REMARK   15  A    between atoms: C_27  and  C_28
REMARK   16  A    between atoms: C_27  and  C_29
REMARK   17  A    between atoms: C_27  and  C_30
REMARK   18  A    between atoms: C_31  and  C_33
REMARK   19  A    between atoms: C_38  and  O_39
REMARK                            x       y       z     vdW  Elec       q    Type
REMARK                         _______ _______ _______ _____ _____    ______ ____
ROOT
ATOM      1  C   UNL     1       3.013  -2.401  -1.541  0.00  0.00    +0.193 C 
ENDROOT
BRANCH   1   2
ATOM      2  C   UNL     1       3.762  -2.750  -0.281  0.00  0.00    -0.018 A 
ATOM      3  C   UNL     1       3.105  -2.745   0.936  0.00  0.00    +0.008 A 
ATOM      4  C   UNL     1       3.788  -3.064   2.093  0.00  0.00    +0.023 A 
ATOM      5  C   UNL     1       5.138  -3.390   2.033  0.00  0.00    +0.029 A 
ATOM      6  C   UNL     1       5.795  -3.393   0.809  0.00  0.00    +0.023 A 
ATOM      7  C   UNL     1       5.104  -3.079  -0.344  0.00  0.00    +0.008 A 
BRANCH   5   8
ATOM      8  N   UNL     1       5.832  -3.712   3.201  0.00  0.00    -0.336 N 
ATOM      9  C   UNL     1       5.137  -3.708   4.491  0.00  0.00    +0.129 C 
ATOM     10  C   UNL     1       7.255  -4.056   3.137  0.00  0.00    +0.129 C 
ENDBRANCH   5   8
ENDBRANCH   1   2
BRANCH   1  11
ATOM     11  C   UNL     1       3.249  -0.952  -1.881  0.00  0.00    +0.239 C 
ATOM     12  O   UNL     1       2.803  -0.081  -1.165  0.00  0.00    -0.273 OA
ATOM     13  N   UNL     1       3.955  -0.624  -2.981  0.00  0.00    -0.308 N 
ATOM     14  H   UNL     1       4.312  -1.321  -3.554  0.00  0.00    +0.149 HD
BRANCH  13  15
ATOM     15  C   UNL     1       4.184   0.785  -3.311  0.00  0.00    +0.030 C 
ATOM     16  C   UNL     1       2.871   1.420  -3.772  0.00  0.00    +0.031 C 
ATOM     17  C   UNL     1       4.701   1.521  -2.074  0.00  0.00    +0.031 C 
BRANCH  15  18
ATOM     18  C   UNL     1       5.220   0.884  -4.433  0.00  0.00    +0.031 C 
BRANCH  18  19
ATOM     19  C   UNL     1       6.387  -0.059  -4.134  0.00  0.00    -0.036 C 
ATOM     20  C   UNL     1       5.957  -1.503  -4.400  0.00  0.00    +0.010 C 
ATOM     21  C   UNL     1       7.572   0.294  -5.036  0.00  0.00    +0.010 C 
ATOM     22  C   UNL     1       6.800   0.088  -2.668  0.00  0.00    +0.010 C 
ENDBRANCH  18  19
ENDBRANCH  15  18
ENDBRANCH  13  15
ENDBRANCH   1  11
BRANCH   1  23
ATOM     23  N   UNL     1       1.581  -2.628  -1.337  0.00  0.00    -0.275 N 
ATOM     24  C   UNL     1       1.161  -3.706  -0.644  0.00  0.00    +0.251 C 
ATOM     25  O   UNL     1      -0.015  -3.826  -0.360  0.00  0.00    -0.270 OA
BRANCH  24  26
ATOM     26  C   UNL     1       2.129  -4.740  -0.232  0.00  0.00    +0.078 A 
ATOM     27  C   UNL     1       3.406  -4.773  -0.797  0.00  0.00    +0.017 A 
ATOM     28  C   UNL     1       4.306  -5.741  -0.407  0.00  0.00    +0.001 A 
ATOM     29  C   UNL     1       3.950  -6.683   0.544  0.00  0.00    +0.004 A 
ATOM     30  C   UNL     1       2.692  -6.662   1.112  0.00  0.00    +0.046 A 
ATOM     31  C   UNL     1       1.775  -5.691   0.735  0.00  0.00    +0.129 A 
BRANCH  31  32
ATOM     32  O   UNL     1       0.540  -5.667   1.295  0.00  0.00    -0.506 OA
ATOM     33  H   UNL     1      -0.118  -6.194   0.821  0.00  0.00    +0.292 HD
ENDBRANCH  31  32
ENDBRANCH  24  26
BRANCH  23  34
ATOM     34  C   UNL     1       0.604  -1.684  -1.884  0.00  0.00    +0.183 C 
BRANCH  34  39
ATOM     35  C   UNL     1       1.147  -1.342  -6.887  0.00  0.00    +0.086 C 
ATOM     36  C   UNL     1       0.662  -1.794  -5.534  0.00  0.00    +0.102 A 
ATOM     37  C   UNL     1      -0.251  -2.755  -5.306  0.00  0.00    +0.045 A 
ATOM     38  C   UNL     1      -0.403  -2.851  -3.903  0.00  0.00    +0.046 A 
ATOM     39  C   UNL     1       0.426  -1.943  -3.358  0.00  0.00    +0.122 A 
ATOM     40  O   UNL     1       1.073  -1.310  -4.350  0.00  0.00    -0.463 OA
ENDBRANCH  34  39
ENDBRANCH  23  34
ENDBRANCH   1  23
TORSDOF 11
