REMARK  Name = ZINC39687110
REMARK  6 active torsions:
REMARK  status: ('A' for Active; 'I' for Inactive)
REMARK    1  A    between atoms: C_1  and  C_2
REMARK    2  A    between atoms: C_2  and  C_4
REMARK    3  A    between atoms: C_2  and  N_12
REMARK    4  A    between atoms: C_4  and  C_5
REMARK    5  A    between atoms: C_13  and  C_15
REMARK    6  A    between atoms: C_26  and  C_28
REMARK                            x       y       z     vdW  Elec       q    Type
REMARK                         _______ _______ _______ _____ _____    ______ ____
ROOT
ATOM      1  C   UNL     1      -3.465  -1.164  -1.134  0.00  0.00    +0.100 C 
ATOM      2  C   UNL     1      -3.486  -2.652  -0.717  0.00  0.00    +0.121 C 
ATOM      3  N   UNL     1      -4.545  -3.261  -1.556  0.00  0.00    -0.297 N 
ATOM      4  C   UNL     1      -4.383  -2.614  -2.881  0.00  0.00    +0.115 C 
ATOM      5  C   UNL     1      -4.054  -1.143  -2.554  0.00  0.00    -0.004 C 
ATOM      6  C   UNL     1      -5.324  -0.298  -2.587  0.00  0.00    -0.010 C 
ATOM      7  C   UNL     1      -5.859  -0.246  -4.021  0.00  0.00    -0.082 C 
ATOM      8  N   UNL     1      -4.840   0.331  -4.905  0.00  0.00    +0.379 N 
ATOM      9  C   UNL     1      -3.656  -0.537  -4.939  0.00  0.00    -0.082 C 
ATOM     10  C   UNL     1      -3.028  -0.601  -3.545  0.00  0.00    -0.010 C 
ATOM     11  C   UNL     1      -5.450  -4.192  -1.197  0.00  0.00    +0.260 C 
ATOM     12  O   UNL     1      -6.260  -4.595  -2.006  0.00  0.00    -0.271 OA
ATOM     13  H   UNL     1      -5.216   0.421  -5.837  0.00  0.00    -0.086 HD
ATOM     14  H   UNL     1      -4.576   1.243  -4.563  0.00  0.00    -0.086 HD
ENDROOT
BRANCH  11  15
ATOM     15  C   UNL     1      -5.457  -4.734   0.209  0.00  0.00    +0.296 C 
ATOM     16  C   UNL     1      -4.163  -5.518   0.468  0.00  0.00    +0.283 C 
ATOM     17  O   UNL     1      -4.208  -6.029   1.804  0.00  0.00    -0.484 OA
ATOM     18  C   UNL     1      -5.368  -6.627   2.192  0.00  0.00    +0.162 A 
ATOM     19  C   UNL     1      -5.370  -7.449   3.308  0.00  0.00    +0.049 A 
ATOM     20  C   UNL     1      -6.540  -8.061   3.716  0.00  0.00    +0.004 A 
ATOM     21  C   UNL     1      -7.712  -7.855   3.011  0.00  0.00    +0.004 A 
ATOM     22  C   UNL     1      -7.716  -7.038   1.897  0.00  0.00    +0.049 A 
ATOM     23  C   UNL     1      -6.545  -6.422   1.482  0.00  0.00    +0.163 A 
ATOM     24  O   UNL     1      -6.564  -5.626   0.378  0.00  0.00    -0.473 OA
ENDBRANCH  11  15
BRANCH   1  26
ATOM     25  N   UNL     1      -1.812   0.661  -0.903  0.00  0.00    -0.312 N 
ATOM     26  C   UNL     1      -2.051  -0.643  -1.145  0.00  0.00    +0.218 C 
ATOM     27  O   UNL     1      -1.128  -1.397  -1.371  0.00  0.00    -0.275 OA
ATOM     28  H   UNL     1      -2.550   1.264  -0.722  0.00  0.00    +0.149 HD
BRANCH  25  30
ATOM     29  C   UNL     1      -0.031   1.511  -2.348  0.00  0.00    +0.028 C 
ATOM     30  C   UNL     1      -0.438   1.169  -0.913  0.00  0.00    +0.074 C 
BRANCH  30  31
ATOM     31  C   UNL     1      -0.351   2.425  -0.045  0.00  0.00    +0.060 C 
BRANCH  31  32
ATOM     32  C   UNL     1      -0.632   2.064   1.391  0.00  0.00    -0.010 A 
ATOM     33  C   UNL     1      -1.910   2.195   1.899  0.00  0.00    +0.006 A 
ATOM     34  C   UNL     1      -2.168   1.863   3.216  0.00  0.00    +0.000 A 
ATOM     35  C   UNL     1      -1.148   1.401   4.027  0.00  0.00    +0.003 A 
ATOM     36  C   UNL     1       0.131   1.269   3.520  0.00  0.00    +0.038 A 
ATOM     37  C   UNL     1       0.390   1.596   2.200  0.00  0.00    +0.127 A 
ATOM     38  F   UNL     1       1.639   1.463   1.702  0.00  0.00    -0.205 F 
ENDBRANCH  31  32
ENDBRANCH  30  31
ENDBRANCH  25  30
ENDBRANCH   1  26
TORSDOF 5
