REMARK  Name = ZINC00797578
REMARK  9 active torsions:
REMARK  status: ('A' for Active; 'I' for Inactive)
REMARK    1  A    between atoms: C_1  and  C_2
REMARK    2  A    between atoms: C_6  and  C_9
REMARK    3  A    between atoms: C_10  and  C_11
REMARK    4  A    between atoms: C_10  and  N_57
REMARK    5  A    between atoms: C_12  and  O_34
REMARK    6  A    between atoms: C_18  and  C_30
REMARK    7  A    between atoms: C_19  and  C_22
REMARK    8  A    between atoms: C_27  and  O_28
REMARK    9  A    between atoms: O_28  and  C_29
REMARK                            x       y       z     vdW  Elec       q    Type
REMARK                         _______ _______ _______ _____ _____    ______ ____
ROOT
ATOM      1  C   UNL     1      -6.161   2.026  -0.148  0.00  0.00    +0.020 A 
ATOM      2  C   UNL     1      -6.835   2.399   1.002  0.00  0.00    +0.122 A 
ATOM      3  C   UNL     1      -6.309   2.106   2.259  0.00  0.00    +0.046 A 
ATOM      4  C   UNL     1      -5.117   1.447   2.371  0.00  0.00    +0.019 A 
ATOM      5  C   UNL     1      -4.427   1.065   1.220  0.00  0.00    +0.065 A 
ATOM      6  C   UNL     1      -4.949   1.355  -0.052  0.00  0.00    +0.144 A 
ATOM      7  O   UNL     1      -4.280   0.986  -1.163  0.00  0.00    -0.450 OA
ATOM      8  C   UNL     1      -3.110   0.343  -1.133  0.00  0.00    +0.220 A 
ATOM      9  C   UNL     1      -2.495  -0.004   0.027  0.00  0.00    +0.080 A 
ATOM     10  C   UNL     1      -3.139   0.352   1.303  0.00  0.00    +0.201 A 
ATOM     11  O   UNL     1      -2.633   0.070   2.375  0.00  0.00    -0.286 OA
ENDROOT
BRANCH   9  12
ATOM     12  C   UNL     1      -1.198  -0.722   0.010  0.00  0.00    +0.031 A 
ATOM     13  C   UNL     1      -1.169  -2.115   0.001  0.00  0.00    +0.012 A 
ATOM     14  C   UNL     1       0.042  -2.778  -0.014  0.00  0.00    +0.001 A 
ATOM     15  C   UNL     1       1.227  -2.065  -0.022  0.00  0.00    +0.004 A 
ATOM     16  C   UNL     1       1.210  -0.683  -0.019  0.00  0.00    +0.046 A 
ATOM     17  C   UNL     1       0.002  -0.004   0.002  0.00  0.00    +0.128 A 
BRANCH  17  18
ATOM     18  O   UNL     1      -0.016   1.355   0.009  0.00  0.00    -0.494 OA
ATOM     19  C   UNL     1       1.248   2.021   0.001  0.00  0.00    +0.277 C 
ENDBRANCH  17  18
ENDBRANCH   9  12
BRANCH   8  20
ATOM     20  C   UNL     1      -2.448  -0.016  -2.439  0.00  0.00    +0.451 C 
ATOM     21  F   UNL     1      -2.882  -1.281  -2.850  0.00  0.00    -0.163 F 
ATOM     22  F   UNL     1      -2.788   0.932  -3.410  0.00  0.00    -0.163 F 
ATOM     23  F   UNL     1      -1.059  -0.032  -2.269  0.00  0.00    -0.163 F 
ENDBRANCH   8  20
BRANCH   2  24
ATOM     24  O   UNL     1      -8.020   3.054   0.906  0.00  0.00    -0.506 OA
ATOM     25  H   UNL     1      -8.790   2.471   0.877  0.00  0.00    +0.292 HD
ENDBRANCH   2  24
BRANCH   1  26
ATOM     26  C   UNL     1      -6.741   2.349  -1.502  0.00  0.00    -0.035 C 
BRANCH  26  34
ATOM     27  C   UNL     1      -6.927  -2.360  -2.923  0.00  0.00    +0.036 C 
ATOM     28  C   UNL     1      -7.749  -1.114  -2.587  0.00  0.00    +0.099 C 
ATOM     29  C   UNL     1      -6.810   0.027  -2.189  0.00  0.00    -0.047 C 
ATOM     30  C   UNL     1      -8.368   1.616  -3.139  0.00  0.00    -0.047 C 
ATOM     31  C   UNL     1      -9.291   0.459  -3.529  0.00  0.00    +0.099 C 
ATOM     32  O   UNL     1      -8.509  -0.721  -3.733  0.00  0.00    -0.378 OA
ATOM     33  C   UNL     1     -10.035   0.810  -4.819  0.00  0.00    +0.036 C 
ATOM     34  N   UNL     1      -7.618   1.236  -1.923  0.00  0.00    +0.386 N 
ATOM     35  H   UNL     1      -8.285   1.032  -1.170  0.00  0.00    -0.081 HD
ENDBRANCH  26  34
ENDBRANCH   1  26
TORSDOF 6
