REMARK  Name = ZINC39164198
REMARK  12 active torsions:
REMARK  status: ('A' for Active; 'I' for Inactive)
REMARK    1  A    between atoms: C_1  and  C_2
REMARK    2  A    between atoms: C_2  and  C_3
REMARK    3  A    between atoms: C_2  and  C_4
REMARK    4  A    between atoms: C_4  and  C_6
REMARK    5  A    between atoms: C_4  and  N_21
REMARK    6  A    between atoms: C_6  and  O_8
REMARK    7  A    between atoms: O_8  and  C_9
REMARK    8  A    between atoms: C_9  and  C_10
REMARK    9  A    between atoms: C_10  and  C_12
REMARK   10  A    between atoms: N_21  and  S_22
REMARK   11  A    between atoms: S_22  and  C_25
REMARK   12  A    between atoms: C_26  and  C_27
REMARK                            x       y       z     vdW  Elec       q    Type
REMARK                         _______ _______ _______ _____ _____    ______ ____
ROOT
ATOM      1  C   UNL     1      -1.433  -0.534   0.013  0.00  0.00    +0.187 C 
ENDROOT
BRANCH   1   3
ATOM      2  C   UNL     1      -0.019   1.526   0.010  0.00  0.00    +0.009 C 
ATOM      3  C   UNL     1       0.002  -0.004   0.002  0.00  0.00    +0.012 C 
ATOM      4  C   UNL     1       0.742  -0.511   1.242  0.00  0.00    +0.009 C 
ENDBRANCH   1   3
BRANCH   1   5
ATOM      5  C   UNL     1      -2.175   0.051   1.187  0.00  0.00    +0.327 C 
ATOM      6  O   UNL     1      -3.164   0.721   1.004  0.00  0.00    -0.249 OA
BRANCH   5   7
ATOM      7  O   UNL     1      -1.738  -0.173   2.436  0.00  0.00    -0.455 OA
BRANCH   7   8
ATOM      8  C   UNL     1      -2.490   0.412   3.501  0.00  0.00    +0.311 C 
BRANCH   8   9
ATOM      9  C   UNL     1      -1.854   0.056   4.820  0.00  0.00    +0.199 C 
ATOM     10  O   UNL     1      -0.853  -0.632   4.845  0.00  0.00    -0.289 OA
BRANCH   9  11
ATOM     11  C   UNL     1      -2.421   0.521   6.026  0.00  0.00    +0.026 C 
ATOM     12  C   UNL     1      -1.961   0.292   7.310  0.00  0.00    +0.006 A 
ATOM     13  C   UNL     1      -0.856  -0.429   7.822  0.00  0.00    +0.010 A 
ATOM     14  C   UNL     1      -0.641  -0.489   9.155  0.00  0.00    +0.001 A 
ATOM     15  C   UNL     1      -1.481   0.145  10.084  0.00  0.00    +0.002 A 
ATOM     16  C   UNL     1      -2.562   0.858   9.699  0.00  0.00    +0.026 A 
ATOM     17  C   UNL     1      -2.869   0.974   8.264  0.00  0.00    +0.043 A 
ATOM     18  N   UNL     1      -3.826   1.586   7.626  0.00  0.00    -0.380 N 
ATOM     19  C   UNL     1      -3.655   1.382   6.184  0.00  0.00    +0.152 C 
ATOM     20  H   UNL     1      -4.537   2.099   8.040  0.00  0.00    +0.160 HD
ENDBRANCH   9  11
ENDBRANCH   8   9
ENDBRANCH   7   8
ENDBRANCH   5   7
ENDBRANCH   1   5
BRANCH   1  21
ATOM     21  N   UNL     1      -2.105  -0.148  -1.230  0.00  0.00    -0.176 NA
ATOM     22  H   UNL     1      -2.526   0.723  -1.305  0.00  0.00    +0.149 HD
BRANCH  21  23
ATOM     23  S   UNL     1      -2.147  -1.200  -2.509  0.00  0.00    +0.052 S 
ATOM     24  O   UNL     1      -2.882  -0.555  -3.541  0.00  0.00    -0.154 OA
ATOM     25  O   UNL     1      -0.817  -1.663  -2.697  0.00  0.00    -0.154 OA
BRANCH  23  26
ATOM     26  C   UNL     1      -3.100  -2.594  -2.007  0.00  0.00    +0.153 C 
ATOM     27  C   UNL     1      -4.253  -2.859  -2.606  0.00  0.00    +0.028 C 
BRANCH  27  28
ATOM     28  C   UNL     1      -5.053  -4.028  -2.184  0.00  0.00    -0.024 A 
ATOM     29  C   UNL     1      -4.600  -4.852  -1.153  0.00  0.00    +0.008 A 
ATOM     30  C   UNL     1      -5.352  -5.942  -0.764  0.00  0.00    +0.001 A 
ATOM     31  C   UNL     1      -6.551  -6.219  -1.395  0.00  0.00    +0.000 A 
ATOM     32  C   UNL     1      -7.005  -5.407  -2.419  0.00  0.00    +0.001 A 
ATOM     33  C   UNL     1      -6.267  -4.310  -2.812  0.00  0.00    +0.008 A 
ENDBRANCH  27  28
ENDBRANCH  23  26
ENDBRANCH  21  23
ENDBRANCH   1  21
TORSDOF 10
