REMARK  Name = ZINC20764897
REMARK  10 active torsions:
REMARK  status: ('A' for Active; 'I' for Inactive)
REMARK    1  A    between atoms: C_1  and  C_2
REMARK    2  A    between atoms: C_2  and  O_3
REMARK    3  A    between atoms: O_3  and  C_4
REMARK    4  A    between atoms: C_8  and  C_11
REMARK    5  A    between atoms: C_9  and  O_10
REMARK    6  A    between atoms: C_14  and  C_29
REMARK    7  A    between atoms: C_16  and  C_19
REMARK    8  A    between atoms: C_23  and  N_25
REMARK    9  A    between atoms: C_33  and  O_35
REMARK   10  A    between atoms: O_35  and  C_36
REMARK                            x       y       z     vdW  Elec       q    Type
REMARK                         _______ _______ _______ _____ _____    ______ ____
ROOT
ATOM      1  C   UNL     1      -3.747   2.217   0.422  0.00  0.00    -0.028 C 
ATOM      2  C   UNL     1      -2.576   1.315   0.021  0.00  0.00    +0.044 C 
ATOM      3  C   UNL     1      -1.304   2.116   0.020  0.00  0.00    +0.040 C 
ATOM      4  N   UNL     1      -1.284   3.395   0.032  0.00  0.00    -0.299 NA
ATOM      5  C   UNL     1      -2.477   4.232   0.047  0.00  0.00    +0.081 C 
ATOM      6  N   UNL     1      -3.658   3.461  -0.360  0.00  0.00    +0.401 N 
ATOM      7  H   UNL     1      -3.577   3.217  -1.430  0.00  0.00    -0.081 HD
ATOM      8  H   UNL     1      -4.560   4.067  -0.190  0.00  0.00    -0.081 HD
ENDROOT
BRANCH   5   9
ATOM      9  C   UNL     1      -2.687   4.762   1.442  0.00  0.00    -0.038 A 
ATOM     10  C   UNL     1      -3.963   5.058   1.884  0.00  0.00    +0.005 A 
ATOM     11  C   UNL     1      -4.156   5.539   3.165  0.00  0.00    +0.022 A 
ATOM     12  C   UNL     1      -3.072   5.735   4.002  0.00  0.00    +0.071 A 
ATOM     13  C   UNL     1      -1.794   5.444   3.557  0.00  0.00    +0.145 A 
ATOM     14  C   UNL     1      -1.603   4.957   2.277  0.00  0.00    +0.038 A 
ATOM     15 CL   UNL     1      -3.313   6.345   5.609  0.00  0.00    -0.081 Cl
BRANCH  13  16
ATOM     16  N   UNL     1      -0.634   5.653   4.451  0.00  0.00    +0.058 N 
ATOM     17  O   UNL     1       0.491   5.396   4.059  0.00  0.00    -0.126 OA
ATOM     18  O   UNL     1      -0.803   6.081   5.579  0.00  0.00    -0.126 OA
ENDBRANCH  13  16
ENDBRANCH   5   9
BRANCH   1  23
ATOM     19  C   UNL     1      -6.794  -0.003   0.768  0.00  0.00    +0.162 A 
ATOM     20  C   UNL     1      -7.446   0.243  -0.429  0.00  0.00    +0.049 A 
ATOM     21  C   UNL     1      -6.901   1.125  -1.345  0.00  0.00    +0.004 A 
ATOM     22  C   UNL     1      -5.709   1.766  -1.066  0.00  0.00    +0.006 A 
ATOM     23  C   UNL     1      -5.050   1.520   0.124  0.00  0.00    -0.016 A 
ATOM     24  C   UNL     1      -5.591   0.638   1.046  0.00  0.00    +0.160 A 
BRANCH  24  25
ATOM     25  O   UNL     1      -4.947   0.400   2.220  0.00  0.00    -0.503 OA
ATOM     26  H   UNL     1      -3.996   0.908   2.439  0.00  0.00    +0.292 HD
ENDBRANCH  24  25
BRANCH  19  27
ATOM     27  O   UNL     1      -7.329  -0.870   1.669  0.00  0.00    -0.489 OA
BRANCH  27  29
ATOM     28  C   UNL     1      -9.007  -2.426   2.445  0.00  0.00    +0.048 C 
ATOM     29  C   UNL     1      -8.566  -1.492   1.317  0.00  0.00    +0.226 C 
ENDBRANCH  27  29
ENDBRANCH  19  27
ENDBRANCH   1  23
BRANCH   3  30
ATOM     30  C   UNL     1      -0.017   1.392   0.010  0.00  0.00    -0.001 A 
ATOM     31  C   UNL     1       0.002  -0.004   0.002  0.00  0.00    +0.010 A 
ATOM     32  C   UNL     1       1.206  -0.677  -0.013  0.00  0.00    +0.004 A 
ATOM     33  C   UNL     1       2.397   0.028  -0.021  0.00  0.00    +0.045 A 
ATOM     34  C   UNL     1       2.388   1.416  -0.013  0.00  0.00    +0.121 A 
ATOM     35  C   UNL     1       1.185   2.101   0.002  0.00  0.00    +0.055 A 
BRANCH  34  36
ATOM     36  O   UNL     1       3.561   2.102  -0.021  0.00  0.00    -0.495 OA
ATOM     37  C   UNL     1       4.764   1.331  -0.036  0.00  0.00    +0.277 C 
ENDBRANCH  34  36
ENDBRANCH   3  30
TORSDOF 8
