REMARK  Name = ZINC15683046
REMARK  4 active torsions:
REMARK  status: ('A' for Active; 'I' for Inactive)
REMARK    1  A    between atoms: C_1  and  C_2
REMARK    2  A    between atoms: C_2  and  C_4
REMARK    3  A    between atoms: C_2  and  O_17
REMARK    4  A    between atoms: O_17  and  C_18
REMARK                            x       y       z     vdW  Elec       q    Type
REMARK                         _______ _______ _______ _____ _____    ______ ____
ROOT
ATOM      1  C   UNL     1      -0.686   2.240   1.292  0.00  0.00    +0.261 C 
ATOM      2  O   UNL     1       0.028   2.686   2.166  0.00  0.00    -0.271 OA
ATOM      3  N   UNL     1      -2.020   2.182   1.476  0.00  0.00    -0.258 N 
ATOM      4  C   UNL     1      -2.908   1.652   0.430  0.00  0.00    +0.209 C 
ATOM      5  C   UNL     1      -4.132   2.519   0.333  0.00  0.00    +0.235 C 
ATOM      6  O   UNL     1      -4.713   2.616  -0.727  0.00  0.00    -0.274 OA
ATOM      7  N   UNL     1      -4.588   3.193   1.405  0.00  0.00    -0.283 N 
ATOM      8  C   UNL     1      -3.908   3.138   2.627  0.00  0.00    +0.055 A 
ATOM      9  C   UNL     1      -2.607   2.632   2.669  0.00  0.00    +0.058 A 
ATOM     10  C   UNL     1      -1.920   2.579   3.868  0.00  0.00    +0.025 A 
ATOM     11  C   UNL     1      -2.527   3.026   5.028  0.00  0.00    +0.002 A 
ATOM     12  C   UNL     1      -3.817   3.525   4.989  0.00  0.00    +0.002 A 
ATOM     13  C   UNL     1      -4.509   3.582   3.793  0.00  0.00    +0.025 A 
ATOM     14  H   UNL     1      -5.397   3.722   1.331  0.00  0.00    +0.155 HD
ENDROOT
BRANCH   1  16
ATOM     15  C   UNL     1      -0.310   0.243  -0.129  0.00  0.00    +0.062 C 
ATOM     16  C   UNL     1      -0.081   1.750   0.002  0.00  0.00    +0.256 C 
BRANCH  16  17
ATOM     17  O   UNL     1       1.322   2.020   0.000  0.00  0.00    -0.478 OA
BRANCH  17  18
ATOM     18  C   UNL     1       1.926   2.142  -1.212  0.00  0.00    +0.140 A 
ATOM     19  C   UNL     1       1.210   1.891  -2.373  0.00  0.00    +0.048 A 
ATOM     20  C   UNL     1       1.824   2.018  -3.603  0.00  0.00    +0.023 A 
ATOM     21  C   UNL     1       3.156   2.387  -3.679  0.00  0.00    +0.043 A 
ATOM     22  C   UNL     1       3.874   2.632  -2.522  0.00  0.00    +0.043 A 
ATOM     23  C   UNL     1       3.262   2.510  -1.288  0.00  0.00    +0.084 A 
ATOM     24 CL   UNL     1       4.163   2.819   0.163  0.00  0.00    -0.080 Cl
ATOM     25 CL   UNL     1       3.926   2.541  -5.227  0.00  0.00    -0.083 Cl
ENDBRANCH  17  18
ENDBRANCH  16  17
ENDBRANCH   1  16
TORSDOF 3
