REMARK  Name = ZINC63375691
REMARK  9 active torsions:
REMARK  status: ('A' for Active; 'I' for Inactive)
REMARK    1  A    between atoms: C_1  and  C_2
REMARK    2  A    between atoms: C_2  and  C_3
REMARK    3  A    between atoms: C_12  and  O_14
REMARK    4  A    between atoms: O_14  and  C_15
REMARK    5  A    between atoms: C_15  and  C_17
REMARK    6  A    between atoms: C_15  and  C_18
REMARK    7  A    between atoms: N_20  and  C_21
REMARK    8  A    between atoms: C_21  and  C_22
REMARK    9  A    between atoms: C_22  and  C_23
REMARK                            x       y       z     vdW  Elec       q    Type
REMARK                         _______ _______ _______ _____ _____    ______ ____
ROOT
ATOM      1  C   UNL     1      -3.408  -0.855  -6.078  0.00  0.00    +0.255 C 
ATOM      2  C   UNL     1      -3.698   0.590  -6.487  0.00  0.00    +0.062 C 
ENDROOT
BRANCH   1   3
ATOM      3  C   UNL     1      -4.076  -1.796  -7.048  0.00  0.00    +0.254 C 
ATOM      4  O   UNL     1      -3.410  -2.581  -7.688  0.00  0.00    -0.272 OA
ATOM      5  N   UNL     1      -5.414  -1.764  -7.204  0.00  0.00    -0.312 N 
ATOM      6  H   UNL     1      -5.947  -1.135  -6.692  0.00  0.00    +0.149 HD
BRANCH   5   7
ATOM      7  C   UNL     1      -6.064  -2.678  -8.146  0.00  0.00    +0.108 C 
BRANCH   7   8
ATOM      8  C   UNL     1      -7.575  -2.437  -8.131  0.00  0.00    +0.052 C 
BRANCH   8   9
ATOM      9  C   UNL     1      -8.243  -3.377  -9.101  0.00  0.00    -0.040 C 
ATOM     10  C   UNL     1      -8.801  -4.576  -8.817  0.00  0.00    -0.001 A 
ATOM     11  C   UNL     1      -8.947  -5.335  -7.569  0.00  0.00    +0.010 A 
ATOM     12  C   UNL     1      -9.566  -6.536  -7.601  0.00  0.00    +0.001 A 
ATOM     13  C   UNL     1     -10.072  -7.074  -8.793  0.00  0.00    +0.002 A 
ATOM     14  C   UNL     1      -9.977  -6.436  -9.979  0.00  0.00    +0.026 A 
ATOM     15  C   UNL     1      -9.344  -5.165 -10.062  0.00  0.00    +0.043 A 
ATOM     16  N   UNL     1      -9.130  -4.362 -11.076  0.00  0.00    -0.380 N 
ATOM     17  C   UNL     1      -8.432  -3.168 -10.587  0.00  0.00    +0.144 C 
ATOM     18  H   UNL     1      -9.393  -4.527 -11.995  0.00  0.00    +0.160 HD
ENDBRANCH   8   9
ENDBRANCH   7   8
ENDBRANCH   5   7
ENDBRANCH   1   3
BRANCH   1  19
ATOM     19  O   UNL     1      -1.997  -1.081  -6.092  0.00  0.00    -0.480 OA
BRANCH  19  29
ATOM     20  C   UNL     1       0.856   0.363  -1.509  0.00  0.00    -0.030 A 
ATOM     21  C   UNL     1       0.178   1.003  -0.521  0.00  0.00    +0.096 A 
ATOM     22  C   UNL     1      -1.197   1.275  -0.676  0.00  0.00    +0.337 A 
ATOM     23  O   UNL     1      -1.793   1.850   0.217  0.00  0.00    -0.245 OA
ATOM     24  O   UNL     1      -1.866   0.916  -1.783  0.00  0.00    -0.422 OA
ATOM     25  C   UNL     1      -1.252   0.277  -2.801  0.00  0.00    +0.143 A 
ATOM     26  C   UNL     1       0.121  -0.021  -2.716  0.00  0.00    +0.021 A 
ATOM     27  C   UNL     1       0.762  -0.679  -3.772  0.00  0.00    +0.015 A 
ATOM     28  C   UNL     1       0.053  -1.026  -4.885  0.00  0.00    +0.046 A 
ATOM     29  C   UNL     1      -1.305  -0.729  -4.978  0.00  0.00    +0.125 A 
ATOM     30  C   UNL     1      -1.959  -0.088  -3.938  0.00  0.00    +0.092 A 
BRANCH  20  32
ATOM     31  C   UNL     1       2.506  -1.363  -0.839  0.00  0.00    +0.009 C 
ATOM     32  C   UNL     1       2.326   0.061  -1.369  0.00  0.00    +0.033 C 
ENDBRANCH  20  32
ENDBRANCH  19  29
ENDBRANCH   1  19
TORSDOF 7
