REMARK  Name = ZINC10061770
REMARK  5 active torsions:
REMARK  status: ('A' for Active; 'I' for Inactive)
REMARK    1  A    between atoms: C_1  and  C_2
REMARK    2  A    between atoms: C_2  and  N_44
REMARK    3  A    between atoms: C_8  and  N_13
REMARK    4  A    between atoms: C_9  and  C_10
REMARK    5  A    between atoms: C_14  and  C_16
REMARK                            x       y       z     vdW  Elec       q    Type
REMARK                         _______ _______ _______ _____ _____    ______ ____
ROOT
ATOM      1  C   UNL     1       2.540   2.177   3.622  0.00  0.00    -0.074 C 
ATOM      2  C   UNL     1       1.385   2.011   2.630  0.00  0.00    +0.018 C 
ATOM      3  C   UNL     1       1.901   2.347   1.236  0.00  0.00    -0.027 A 
ATOM      4  C   UNL     1       3.058   3.032   1.088  0.00  0.00    -0.021 A 
ATOM      5  S   UNL     1       3.274   3.180  -0.661  0.00  0.00    -0.079 S 
ATOM      6  C   UNL     1       1.853   2.339  -1.190  0.00  0.00    +0.085 A 
ATOM      7  C   UNL     1       1.245   1.963   0.001  0.00  0.00    +0.068 A 
ATOM      8  C   UNL     1       3.935   3.544   2.187  0.00  0.00    -0.035 C 
ATOM      9  N   UNL     1       3.150   3.511   3.446  0.00  0.00    +0.383 N 
ATOM     10  H   UNL     1       2.404   4.215   3.393  0.00  0.00    -0.081 HD
ENDROOT
BRANCH   7  11
ATOM     11  C   UNL     1      -0.014   1.213   0.009  0.00  0.00    +0.244 C 
ATOM     12  O   UNL     1       0.002  -0.004   0.002  0.00  0.00    -0.270 OA
ATOM     13  N   UNL     1      -1.191   1.871   0.018  0.00  0.00    -0.325 N 
ATOM     14  H   UNL     1      -2.024   1.375   0.019  0.00  0.00    +0.145 HD
ATOM     15  H   UNL     1      -1.204   2.841   0.023  0.00  0.00    +0.145 HD
ENDBRANCH   7  11
BRANCH   6  16
ATOM     16  N   UNL     1       1.428   2.101  -2.486  0.00  0.00    -0.271 N 
ATOM     17  C   UNL     1       2.157   2.547  -3.528  0.00  0.00    +0.304 C 
ATOM     18  O   UNL     1       3.188   3.159  -3.330  0.00  0.00    -0.265 OA
ATOM     19  H   UNL     1       0.605   1.612  -2.644  0.00  0.00    +0.156 HD
BRANCH  17  20
ATOM     20  C   UNL     1       1.702   2.292  -4.912  0.00  0.00    +0.285 A 
ATOM     21  N   UNL     1       2.331   2.679  -5.990  0.00  0.00    -0.205 NA
ATOM     22  C   UNL     1       1.635   2.277  -7.071  0.00  0.00    +0.110 A 
ATOM     23  C   UNL     1       1.829   2.409  -8.451  0.00  0.00    +0.031 A 
ATOM     24  C   UNL     1       0.919   1.877  -9.319  0.00  0.00    +0.002 A 
ATOM     25  C   UNL     1      -0.200   1.205  -8.847  0.00  0.00    +0.004 A 
ATOM     26  C   UNL     1      -0.412   1.063  -7.492  0.00  0.00    +0.048 A 
ATOM     27  C   UNL     1       0.500   1.596  -6.593  0.00  0.00    +0.156 A 
ATOM     28  O   UNL     1       0.582   1.622  -5.246  0.00  0.00    -0.432 OA
ENDBRANCH  17  20
ENDBRANCH   6  16
BRANCH   9  30
ATOM     29  C   UNL     1       5.087   2.736   4.771  0.00  0.00    -0.017 C 
ATOM     30  C   UNL     1       4.025   3.824   4.596  0.00  0.00    -0.082 C 
ENDBRANCH   9  30
TORSDOF 4
