REMARK  Name = ZINC41585847
REMARK  5 active torsions:
REMARK  status: ('A' for Active; 'I' for Inactive)
REMARK    1  A    between atoms: C_1  and  C_2
REMARK    2  A    between atoms: C_4  and  O_33
REMARK    3  A    between atoms: C_5  and  C_20
REMARK    4  A    between atoms: C_11  and  C_12
REMARK    5  A    between atoms: C_20  and  N_21
REMARK                            x       y       z     vdW  Elec       q    Type
REMARK                         _______ _______ _______ _____ _____    ______ ____
ROOT
ATOM      1  C   UNL     1       0.034   1.263  -0.312  0.00  0.00    +0.045 C 
ATOM      2  C   UNL     1       0.073  -0.244  -0.297  0.00  0.00    -0.033 A 
ATOM      3  C   UNL     1       0.010  -0.941  -1.471  0.00  0.00    +0.050 A 
ATOM      4  C   UNL     1       0.046  -2.333  -1.460  0.00  0.00    +0.125 A 
ATOM      5  C   UNL     1       0.146  -3.026  -0.264  0.00  0.00    +0.051 A 
ATOM      6  C   UNL     1       0.210  -2.332   0.938  0.00  0.00    +0.148 A 
ATOM      7  C   UNL     1       0.179  -0.928   0.913  0.00  0.00    +0.071 A 
ATOM      8  C   UNL     1       0.270  -0.486   2.317  0.00  0.00    +0.232 C 
ATOM      9  O   UNL     1       0.272   0.656   2.740  0.00  0.00    -0.283 OA
ATOM     10  C   UNL     1       0.359  -1.735   3.091  0.00  0.00    +0.176 C 
ATOM     11  C   UNL     1       0.460  -1.836   4.440  0.00  0.00    +0.058 C 
ATOM     12  O   UNL     1       0.308  -2.764   2.214  0.00  0.00    -0.451 OA
ENDROOT
BRANCH  11  13
ATOM     13  C   UNL     1       0.428  -3.158   5.082  0.00  0.00    -0.020 A 
ATOM     14  C   UNL     1       0.429  -4.319   4.302  0.00  0.00    +0.008 A 
ATOM     15  C   UNL     1       0.399  -5.555   4.912  0.00  0.00    +0.002 A 
ATOM     16  C   UNL     1       0.367  -5.650   6.293  0.00  0.00    +0.015 A 
ATOM     17  C   UNL     1       0.366  -4.505   7.072  0.00  0.00    +0.018 A 
ATOM     18  C   UNL     1       0.402  -3.261   6.478  0.00  0.00    +0.023 A 
ATOM     19 BR   UNL     1       0.322  -4.649   8.957  0.00  0.00    -0.050 Br
ENDBRANCH  11  13
BRANCH   4  20
ATOM     20  O   UNL     1      -0.017  -3.016  -2.631  0.00  0.00    -0.506 OA
ATOM     21  H   UNL     1       0.846  -3.192  -3.031  0.00  0.00    +0.292 HD
ENDBRANCH   4  20
BRANCH   5  22
ATOM     22  C   UNL     1       0.183  -4.532  -0.268  0.00  0.00    +0.127 C 
BRANCH  22  23
ATOM     23  N   UNL     1       1.577  -4.987  -0.363  0.00  0.00    -0.295 NA
ATOM     24  C   UNL     1       2.336  -4.614   0.838  0.00  0.00    +0.103 C 
ATOM     25  C   UNL     1       3.818  -4.942   0.624  0.00  0.00    +0.122 C 
ATOM     26  N   UNL     1       3.931  -6.355   0.230  0.00  0.00    -0.314 N 
ATOM     27  C   UNL     1       3.096  -6.837  -0.880  0.00  0.00    +0.122 C 
ATOM     28  C   UNL     1       1.643  -6.434  -0.607  0.00  0.00    +0.103 C 
ATOM     29  C   UNL     1       4.804  -7.212   0.891  0.00  0.00    +0.099 A 
ATOM     30  C   UNL     1       4.992  -8.506   0.415  0.00  0.00    +0.042 A 
ATOM     31  C   UNL     1       5.863  -9.348   1.082  0.00  0.00    +0.005 A 
ATOM     32  C   UNL     1       6.520  -8.865   2.207  0.00  0.00    +0.018 A 
ATOM     33  C   UNL     1       6.287  -7.570   2.623  0.00  0.00    +0.084 A 
ATOM     34  N   UNL     1       5.453  -6.787   1.964  0.00  0.00    -0.350 N 
ATOM     35  H   UNL     1       5.310  -5.880   2.276  0.00  0.00    +0.166 HD
ENDBRANCH  22  23
ENDBRANCH   5  22
TORSDOF 4
