REMARK  Name = ZINC40017120
REMARK  5 active torsions:
REMARK  status: ('A' for Active; 'I' for Inactive)
REMARK    1  A    between atoms: C_1  and  C_2
REMARK    2  A    between atoms: C_4  and  N_17
REMARK    3  A    between atoms: N_8  and  C_11
REMARK    4  A    between atoms: N_9  and  C_10
REMARK    5  A    between atoms: C_21  and  C_24
REMARK                            x       y       z     vdW  Elec       q    Type
REMARK                         _______ _______ _______ _____ _____    ______ ____
ROOT
ATOM      1  N   UNL     1      -1.582  -0.969  -1.431  0.00  0.00    -0.310 N 
ATOM      2  C   UNL     1      -2.855  -1.157  -1.885  0.00  0.00    +0.177 C 
ATOM      3  N   UNL     1      -3.929  -1.043  -1.095  0.00  0.00    -0.127 NA
ATOM      4  N   UNL     1      -5.143  -1.188  -1.379  0.00  0.00    -0.151 NA
ATOM      5  C   UNL     1      -5.804  -1.484  -2.472  0.00  0.00    +0.079 C 
ATOM      6  C   UNL     1      -5.015  -1.731  -3.760  0.00  0.00    +0.134 C 
ATOM      7  S   UNL     1      -3.202  -1.544  -3.490  0.00  0.00    -0.083 S 
ATOM      8  H   UNL     1      -0.832  -1.058  -2.040  0.00  0.00    +0.149 HD
ENDROOT
BRANCH   5   9
ATOM      9  C   UNL     1      -7.189  -1.571  -2.461  0.00  0.00    +0.005 C 
ATOM     10  C   UNL     1      -8.044  -1.368  -1.368  0.00  0.00    +0.005 A 
ATOM     11  C   UNL     1      -7.803  -1.033  -0.022  0.00  0.00    +0.010 A 
ATOM     12  C   UNL     1      -8.848  -0.897   0.837  0.00  0.00    +0.001 A 
ATOM     13  C   UNL     1     -10.166  -1.082   0.418  0.00  0.00    +0.002 A 
ATOM     14  C   UNL     1     -10.469  -1.406  -0.864  0.00  0.00    +0.026 A 
ATOM     15  C   UNL     1      -9.430  -1.564  -1.816  0.00  0.00    +0.043 A 
ATOM     16  N   UNL     1      -9.462  -1.871  -3.100  0.00  0.00    -0.380 N 
ATOM     17  C   UNL     1      -8.095  -1.900  -3.628  0.00  0.00    +0.150 C 
ATOM     18  H   UNL     1     -10.266  -2.046  -3.615  0.00  0.00    +0.160 HD
ENDBRANCH   5   9
BRANCH   1  21
ATOM     19  C   UNL     1      -0.242   1.629   0.258  0.00  0.00    +0.028 C 
ATOM     20  C   UNL     1      -0.009   0.121   0.147  0.00  0.00    +0.102 C 
ATOM     21  C   UNL     1      -1.348  -0.635  -0.025  0.00  0.00    +0.179 C 
ATOM     22  C   UNL     1      -1.119  -1.887   0.802  0.00  0.00    +0.256 C 
ATOM     23  O   UNL     1      -1.790  -2.897   0.770  0.00  0.00    -0.272 OA
ATOM     24  N   UNL     1      -0.039  -1.679   1.578  0.00  0.00    -0.201 N 
ATOM     25  N   UNL     1       0.494  -0.433   1.425  0.00  0.00    -0.218 NA
ATOM     26  C   UNL     1       0.133   0.436   2.554  0.00  0.00    +0.128 C 
BRANCH  24  27
ATOM     27  C   UNL     1       0.483  -2.640   2.451  0.00  0.00    +0.053 A 
ATOM     28  C   UNL     1      -0.364  -3.343   3.298  0.00  0.00    +0.025 A 
ATOM     29  C   UNL     1       0.154  -4.292   4.158  0.00  0.00    +0.002 A 
ATOM     30  C   UNL     1       1.514  -4.542   4.176  0.00  0.00    +0.000 A 
ATOM     31  C   UNL     1       2.360  -3.843   3.333  0.00  0.00    +0.002 A 
ATOM     32  C   UNL     1       1.847  -2.898   2.467  0.00  0.00    +0.025 A 
ENDBRANCH  24  27
ENDBRANCH   1  21
TORSDOF 3
