REMARK  Name = ZINC09374956
REMARK  15 active torsions:
REMARK  status: ('A' for Active; 'I' for Inactive)
REMARK    1  A    between atoms: C_1  and  C_2
REMARK    2  A    between atoms: C_2  and  N_66
REMARK    3  A    between atoms: C_3  and  C_4
REMARK    4  A    between atoms: C_3  and  N_66
REMARK    5  A    between atoms: C_5  and  C_6
REMARK    6  A    between atoms: C_5  and  N_66
REMARK    7  A    between atoms: C_6  and  N_7
REMARK    8  A    between atoms: C_8  and  C_28
REMARK    9  A    between atoms: C_11  and  C_12
REMARK   10  A    between atoms: C_11  and  O_23
REMARK   11  A    between atoms: C_15  and  O_18
REMARK   12  A    between atoms: O_18  and  C_19
REMARK   13  A    between atoms: C_19  and  C_20
REMARK   14  A    between atoms: C_20  and  C_21
REMARK   15  A    between atoms: C_20  and  C_22
REMARK                            x       y       z     vdW  Elec       q    Type
REMARK                         _______ _______ _______ _____ _____    ______ ____
ROOT
ATOM      1  N   UNL     1       1.043   2.058  -0.406  0.00  0.00    -0.285 N 
ATOM      2  C   UNL     1       0.596   3.414  -0.076  0.00  0.00    +0.146 C 
ATOM      3  C   UNL     1      -0.897   3.446  -0.308  0.00  0.00    +0.071 C 
ATOM      4  C   UNL     1      -1.743   4.523  -0.126  0.00  0.00    +0.133 C 
ATOM      5  C   UNL     1      -1.250   2.163  -0.753  0.00  0.00    +0.249 C 
ATOM      6  O   UNL     1      -2.372   1.794  -1.051  0.00  0.00    -0.282 OA
ATOM      7  C   UNL     1      -0.018   1.330  -0.794  0.00  0.00    +0.288 C 
ATOM      8  O   UNL     1       0.024   0.165  -1.133  0.00  0.00    -0.266 OA
ENDROOT
BRANCH   4   9
ATOM      9  C   UNL     1      -3.197   4.347  -0.261  0.00  0.00    +0.017 A 
ATOM     10  C   UNL     1      -3.925   5.164  -1.135  0.00  0.00    +0.015 A 
ATOM     11  C   UNL     1      -5.284   4.991  -1.262  0.00  0.00    +0.046 A 
ATOM     12  C   UNL     1      -5.937   4.017  -0.515  0.00  0.00    +0.121 A 
ATOM     13  C   UNL     1      -5.219   3.207   0.359  0.00  0.00    +0.046 A 
ATOM     14  C   UNL     1      -3.858   3.367   0.489  0.00  0.00    +0.015 A 
BRANCH  12  15
ATOM     15  O   UNL     1      -7.278   3.855  -0.639  0.00  0.00    -0.492 OA
BRANCH  15  16
ATOM     16  C   UNL     1      -7.954   4.719  -1.554  0.00  0.00    +0.232 C 
BRANCH  16  17
ATOM     17  C   UNL     1      -9.448   4.390  -1.559  0.00  0.00    +0.020 C 
ATOM     18  C   UNL     1     -10.044   4.708  -0.186  0.00  0.00    +0.010 C 
ATOM     19  C   UNL     1     -10.152   5.229  -2.627  0.00  0.00    +0.010 C 
ENDBRANCH  16  17
ENDBRANCH  15  16
ENDBRANCH  12  15
ENDBRANCH   4   9
BRANCH   2  20
ATOM     20  C   UNL     1       1.280   4.415  -0.971  0.00  0.00    -0.004 A 
ATOM     21  C   UNL     1       1.716   5.629  -0.461  0.00  0.00    +0.009 A 
ATOM     22  C   UNL     1       2.345   6.517  -1.320  0.00  0.00    +0.020 A 
ATOM     23  C   UNL     1       2.505   6.170  -2.649  0.00  0.00    +0.111 A 
ATOM     24  N   UNL     1       2.073   5.009  -3.099  0.00  0.00    -0.263 NA
ATOM     25  C   UNL     1       1.476   4.138  -2.310  0.00  0.00    +0.116 A 
ENDBRANCH   2  20
BRANCH   4  26
ATOM     26  O   UNL     1      -1.234   5.737   0.176  0.00  0.00    -0.506 OA
ATOM     27  H   UNL     1      -1.980   6.396   0.273  0.00  0.00    +0.292 HD
ENDBRANCH   4  26
BRANCH   1  28
ATOM     28  C   UNL     1       2.424   1.573  -0.325  0.00  0.00    +0.090 C 
BRANCH  28  29
ATOM     29  C   UNL     1       3.126   1.811  -1.663  0.00  0.00    -0.060 C 
BRANCH  29  30
ATOM     30  N   UNL     1       4.522   1.337  -1.559  0.00  0.00    +0.380 N 
ATOM     31  H   UNL     1       4.956   1.757  -0.729  0.00  0.00    -0.082 HD
BRANCH  30  33
ATOM     32  C   UNL     1       3.951  -0.800  -2.664  0.00  0.00    -0.017 C 
ATOM     33  C   UNL     1       4.548  -0.135  -1.422  0.00  0.00    -0.082 C 
ENDBRANCH  30  33
BRANCH  30  34
ATOM     34  C   UNL     1       5.285   1.745  -2.757  0.00  0.00    -0.082 C 
ATOM     35  C   UNL     1       6.778   1.567  -2.474  0.00  0.00    -0.017 C 
ENDBRANCH  30  34
ENDBRANCH  29  30
ENDBRANCH  28  29
ENDBRANCH   1  28
TORSDOF 11
