REMARK  Name = ZINC45483786
REMARK  11 active torsions:
REMARK  status: ('A' for Active; 'I' for Inactive)
REMARK    1  A    between atoms: C_1  and  C_2
REMARK    2  A    between atoms: C_2  and  O_3
REMARK    3  A    between atoms: O_3  and  C_4
REMARK    4  A    between atoms: C_4  and  C_6
REMARK    5  A    between atoms: N_14  and  C_15
REMARK    6  A    between atoms: C_15  and  C_16
REMARK    7  A    between atoms: C_16  and  C_18
REMARK    8  A    between atoms: C_16  and  N_21
REMARK    9  A    between atoms: C_18  and  C_19
REMARK   10  A    between atoms: C_18  and  C_20
REMARK   11  A    between atoms: N_21  and  C_22
REMARK                            x       y       z     vdW  Elec       q    Type
REMARK                         _______ _______ _______ _____ _____    ______ ____
ROOT
ATOM      1  C   UNL     1       1.348  -2.352   4.641  0.00  0.00    +0.101 C 
ATOM      2  C   UNL     1       1.312  -3.878   4.755  0.00  0.00    +0.034 C 
ATOM      3  C   UNL     1       2.194  -4.488   3.660  0.00  0.00    +0.110 C 
ATOM      4  N   UNL     1       3.539  -3.906   3.758  0.00  0.00    -0.286 N 
ATOM      5  C   UNL     1       3.679  -2.444   3.750  0.00  0.00    +0.110 C 
ATOM      6  C   UNL     1       2.781  -1.857   4.844  0.00  0.00    +0.034 C 
ATOM      7  C   UNL     1       4.625  -4.700   3.853  0.00  0.00    +0.302 C 
ATOM      8  O   UNL     1       5.738  -4.211   3.841  0.00  0.00    -0.253 OA
ATOM      9  N   UNL     1       4.476  -6.035   3.961  0.00  0.00    -0.297 N 
ATOM     10  H   UNL     1       3.593  -6.431   3.897  0.00  0.00    +0.150 HD
ENDROOT
BRANCH   1  11
ATOM     11  C   UNL     1       0.455  -1.750   5.696  0.00  0.00    +0.310 C 
ATOM     12  O   UNL     1       0.918  -1.002   6.524  0.00  0.00    -0.251 OA
BRANCH  11  13
ATOM     13  O   UNL     1      -0.854  -2.045   5.715  0.00  0.00    -0.465 OA
BRANCH  13  15
ATOM     14  C   UNL     1      -3.096  -1.889   6.603  0.00  0.00    +0.048 C 
ATOM     15  C   UNL     1      -1.641  -1.438   6.742  0.00  0.00    +0.229 C 
ENDBRANCH  13  15
ENDBRANCH  11  13
ENDBRANCH   1  11
BRANCH   9  16
ATOM     16  C   UNL     1       5.648  -6.887   4.176  0.00  0.00    +0.128 C 
BRANCH  16  17
ATOM     17  C   UNL     1       5.207  -8.350   4.263  0.00  0.00    +0.090 C 
BRANCH  17  18
ATOM     18  C   UNL     1       6.440  -9.250   4.362  0.00  0.00    +0.005 C 
ATOM     19  C   UNL     1       7.376  -8.964   3.186  0.00  0.00    +0.009 C 
ATOM     20  C   UNL     1       7.171  -8.970   5.676  0.00  0.00    +0.009 C 
ENDBRANCH  17  18
BRANCH  17  21
ATOM     21  N   UNL     1       4.441  -8.700   3.064  0.00  0.00    -0.339 N 
ATOM     22  H   UNL     1       4.580  -8.209   2.239  0.00  0.00    +0.146 HD
BRANCH  21  23
ATOM     23  C   UNL     1       3.512  -9.742   3.108  0.00  0.00    +0.027 A 
ATOM     24  C   UNL     1       3.307 -10.442   4.290  0.00  0.00    +0.023 A 
ATOM     25  C   UNL     1       2.387 -11.471   4.331  0.00  0.00    +0.002 A 
ATOM     26  C   UNL     1       1.670 -11.805   3.197  0.00  0.00    +0.000 A 
ATOM     27  C   UNL     1       1.871 -11.109   2.019  0.00  0.00    +0.002 A 
ATOM     28  C   UNL     1       2.785 -10.076   1.972  0.00  0.00    +0.023 A 
ENDBRANCH  21  23
ENDBRANCH  17  21
ENDBRANCH  16  17
ENDBRANCH   9  16
TORSDOF 8
