REMARK  Name = ZINC05905292
REMARK  7 active torsions:
REMARK  status: ('A' for Active; 'I' for Inactive)
REMARK    1  A    between atoms: C_1  and  O_2
REMARK    2  A    between atoms: O_2  and  C_3
REMARK    3  A    between atoms: C_3  and  C_5
REMARK    4  A    between atoms: C_8  and  N_11
REMARK    5  A    between atoms: N_11  and  S_12
REMARK    6  A    between atoms: S_12  and  C_15
REMARK    7  A    between atoms: C_18  and  N_21
REMARK                            x       y       z     vdW  Elec       q    Type
REMARK                         _______ _______ _______ _____ _____    ______ ____
ROOT
ATOM      1  S   UNL     1      -5.158   4.023   0.004  0.00  0.00    +0.072 S 
ATOM      2  O   UNL     1      -4.910   5.264  -0.641  0.00  0.00    -0.150 OA
ATOM      3  O   UNL     1      -6.203   3.150  -0.402  0.00  0.00    -0.150 OA
ENDROOT
BRANCH   1   4
ATOM      4  C   UNL     1      -3.662   3.096  -0.093  0.00  0.00    +0.109 A 
ATOM      5  C   UNL     1      -3.706   1.714  -0.107  0.00  0.00    +0.030 A 
ATOM      6  C   UNL     1      -2.535   0.986  -0.184  0.00  0.00    +0.025 A 
ATOM      7  C   UNL     1      -1.313   1.642  -0.246  0.00  0.00    +0.035 A 
ATOM      8  C   UNL     1      -1.272   3.030  -0.226  0.00  0.00    +0.025 A 
ATOM      9  C   UNL     1      -2.447   3.753  -0.155  0.00  0.00    +0.030 A 
BRANCH   7  10
ATOM     10  N   UNL     1      -0.125   0.906  -0.324  0.00  0.00    -0.270 N 
ATOM     11  C   UNL     1       0.922   1.390  -1.021  0.00  0.00    +0.301 C 
ATOM     12  O   UNL     1       0.805   2.419  -1.659  0.00  0.00    -0.253 OA
ATOM     13  N   UNL     1       2.099   0.733  -1.011  0.00  0.00    -0.313 N 
ATOM     14  H   UNL     1      -0.047  -0.066   0.183  0.00  0.00    +0.156 HD
ATOM     15  H   UNL     1       2.954   1.128  -1.579  0.00  0.00    +0.146 HD
ATOM     16  H   UNL     1       2.205  -0.198  -0.434  0.00  0.00    +0.146 HD
ENDBRANCH   7  10
ENDBRANCH   1   4
BRANCH   1  17
ATOM     17  N   UNL     1      -5.420   4.364   1.603  0.00  0.00    -0.216 N 
ATOM     18  H   UNL     1      -6.296   3.943   2.119  0.00  0.00    +0.174 HD
BRANCH  17  22
ATOM     19  C   UNL     1      -2.767   6.808   3.669  0.00  0.00    +0.059 A 
ATOM     20  C   UNL     1      -3.663   7.364   2.751  0.00  0.00    +0.017 A 
ATOM     21  C   UNL     1      -4.536   6.555   2.071  0.00  0.00    +0.025 A 
ATOM     22  C   UNL     1      -4.532   5.181   2.294  0.00  0.00    +0.048 A 
ATOM     23  C   UNL     1      -3.646   4.624   3.212  0.00  0.00    +0.025 A 
ATOM     24  C   UNL     1      -2.766   5.427   3.891  0.00  0.00    +0.017 A 
BRANCH  19  25
ATOM     25  C   UNL     1      -1.826   7.674   4.401  0.00  0.00    +0.339 C 
ATOM     26  O   UNL     1      -1.828   8.874   4.207  0.00  0.00    -0.245 OA
BRANCH  25  28
ATOM     27  C   UNL     1      -0.066   8.050   5.971  0.00  0.00    +0.280 C 
ATOM     28  O   UNL     1      -0.964   7.136   5.286  0.00  0.00    -0.464 OA
ENDBRANCH  25  28
ENDBRANCH  19  25
ENDBRANCH  17  22
ENDBRANCH   1  17
TORSDOF 6
