REMARK  Name = ZINC39676113
REMARK  6 active torsions:
REMARK  status: ('A' for Active; 'I' for Inactive)
REMARK    1  A    between atoms: C_4  and  C_7
REMARK    2  A    between atoms: C_7  and  N_8
REMARK    3  A    between atoms: C_10  and  C_13
REMARK    4  A    between atoms: C_13  and  N_14
REMARK    5  A    between atoms: C_15  and  C_17
REMARK    6  A    between atoms: C_28  and  C_30
REMARK                            x       y       z     vdW  Elec       q    Type
REMARK                         _______ _______ _______ _____ _____    ______ ____
ROOT
ATOM      1  C   UNL     1       7.934  -4.071   5.112  0.00  0.00    +0.100 C 
ATOM      2  C   UNL     1       9.057  -3.015   5.219  0.00  0.00    +0.121 C 
ATOM      3  N   UNL     1       9.453  -3.033   6.647  0.00  0.00    -0.300 N 
ATOM      4  C   UNL     1       9.413  -4.467   7.023  0.00  0.00    +0.115 C 
ATOM      5  C   UNL     1       8.172  -5.023   6.295  0.00  0.00    -0.004 C 
ATOM      6  C   UNL     1       8.447  -6.436   5.789  0.00  0.00    -0.010 C 
ATOM      7  C   UNL     1       8.623  -7.377   6.984  0.00  0.00    -0.082 C 
ATOM      8  N   UNL     1       7.408  -7.358   7.808  0.00  0.00    +0.379 N 
ATOM      9  C   UNL     1       7.203  -6.016   8.367  0.00  0.00    -0.082 C 
ATOM     10  C   UNL     1       6.967  -5.018   7.230  0.00  0.00    -0.010 C 
ATOM     11  C   UNL     1       9.777  -1.984   7.428  0.00  0.00    +0.219 C 
ATOM     12  O   UNL     1       9.688  -0.855   6.993  0.00  0.00    -0.275 OA
ATOM     13  H   UNL     1       6.614  -7.608   7.239  0.00  0.00    -0.086 HD
ATOM     14  H   UNL     1       7.503  -8.023   8.560  0.00  0.00    -0.086 HD
ENDROOT
BRANCH  11  15
ATOM     15  C   UNL     1      10.249  -2.213   8.840  0.00  0.00    +0.079 C 
ATOM     16  C   UNL     1       9.954  -0.970   9.690  0.00  0.00    +0.017 C 
ATOM     17  C   UNL     1      10.277  -1.294  11.150  0.00  0.00    +0.027 C 
ATOM     18  C   UNL     1      11.641  -1.912  11.253  0.00  0.00    -0.031 C 
ATOM     19  C   UNL     1      12.284  -2.421  10.251  0.00  0.00    -0.030 C 
ATOM     20  C   UNL     1      11.759  -2.460   8.845  0.00  0.00    +0.039 C 
ENDBRANCH  11  15
BRANCH   1  22
ATOM     21  N   UNL     1       5.512  -3.957   4.623  0.00  0.00    -0.311 N 
ATOM     22  C   UNL     1       6.583  -3.413   5.232  0.00  0.00    +0.218 C 
ATOM     23  O   UNL     1       6.461  -2.393   5.878  0.00  0.00    -0.275 OA
ATOM     24  H   UNL     1       5.610  -4.773   4.106  0.00  0.00    +0.149 HD
BRANCH  21  25
ATOM     25  C   UNL     1       4.199  -3.318   4.740  0.00  0.00    +0.142 C 
BRANCH  25  28
ATOM     26  N   UNL     1       1.645  -5.588   3.464  0.00  0.00    -0.267 N 
ATOM     27  C   UNL     1       2.432  -5.136   4.463  0.00  0.00    +0.113 A 
ATOM     28  C   UNL     1       3.179  -4.120   3.972  0.00  0.00    +0.007 A 
ATOM     29  C   UNL     1       2.838  -3.945   2.627  0.00  0.00    +0.139 A 
ATOM     30  N   UNL     1       1.923  -4.828   2.320  0.00  0.00    -0.179 NA
BRANCH  26  31
ATOM     31  C   UNL     1       0.677  -6.683   3.558  0.00  0.00    +0.178 C 
BRANCH  31  35
ATOM     32  C   UNL     1      -3.161  -5.307   2.283  0.00  0.00    +0.000 A 
ATOM     33  C   UNL     1      -2.282  -5.852   1.365  0.00  0.00    +0.000 A 
ATOM     34  C   UNL     1      -1.040  -6.297   1.778  0.00  0.00    +0.005 A 
ATOM     35  C   UNL     1      -0.676  -6.197   3.108  0.00  0.00    -0.026 A 
ATOM     36  C   UNL     1      -1.554  -5.651   4.025  0.00  0.00    +0.005 A 
ATOM     37  C   UNL     1      -2.797  -5.207   3.613  0.00  0.00    +0.000 A 
ENDBRANCH  31  35
ENDBRANCH  26  31
ENDBRANCH  25  28
ENDBRANCH  21  25
ENDBRANCH   1  22
TORSDOF 6
