REMARK  Name = ZINC23590903
REMARK  8 active torsions:
REMARK  status: ('A' for Active; 'I' for Inactive)
REMARK    1  A    between atoms: C_1  and  C_2
REMARK    2  A    between atoms: C_11  and  N_32
REMARK    3  A    between atoms: C_13  and  S_15
REMARK    4  A    between atoms: S_15  and  C_16
REMARK    5  A    between atoms: C_16  and  C_18
REMARK    6  A    between atoms: C_16  and  C_19
REMARK    7  A    between atoms: N_21  and  C_22
REMARK    8  A    between atoms: C_22  and  C_23
REMARK                            x       y       z     vdW  Elec       q    Type
REMARK                         _______ _______ _______ _____ _____    ______ ____
ROOT
ATOM      1  C   UNL     1       4.378   9.160  12.755  0.00  0.00    +0.008 C 
ATOM      2  C   UNL     1       4.053   8.686  11.337  0.00  0.00    -0.009 C 
ATOM      3  C   UNL     1       2.679   8.009  11.324  0.00  0.00    +0.008 C 
ATOM      4  C   UNL     1       2.454   7.318   9.979  0.00  0.00    +0.037 C 
ATOM      5  C   UNL     1       2.702   8.326   8.860  0.00  0.00    -0.025 A 
ATOM      6  C   UNL     1       3.402   9.454   9.091  0.00  0.00    -0.004 A 
ATOM      7  S   UNL     1       3.435  10.305   7.537  0.00  0.00    -0.073 S 
ATOM      8  C   UNL     1       2.506   9.141   6.574  0.00  0.00    +0.115 A 
ATOM      9  C   UNL     1       2.199   8.123   7.499  0.00  0.00    +0.051 A 
ATOM     10  C   UNL     1       1.441   7.034   6.984  0.00  0.00    +0.129 A 
ATOM     11  N   UNL     1       1.081   7.042   5.712  0.00  0.00    -0.207 NA
ATOM     12  C   UNL     1       1.404   8.036   4.893  0.00  0.00    +0.192 A 
ATOM     13  N   UNL     1       2.114   9.073   5.316  0.00  0.00    -0.214 NA
ATOM     14  C   UNL     1       4.017   9.891  10.386  0.00  0.00    +0.046 C 
ENDROOT
BRANCH  10  15
ATOM     15  N   UNL     1       1.085   5.980   7.806  0.00  0.00    -0.343 N 
ATOM     16  H   UNL     1       0.499   5.142   7.402  0.00  0.00    +0.144 HD
ATOM     17  H   UNL     1       1.387   5.981   8.864  0.00  0.00    +0.144 HD
ENDBRANCH  10  15
BRANCH  12  18
ATOM     18  S   UNL     1       0.886   7.972   3.210  0.00  0.00    -0.073 S 
BRANCH  18  19
ATOM     19  C   UNL     1       0.001   6.393   3.213  0.00  0.00    +0.137 C 
ATOM     20  C   UNL     1      -1.225   6.497   4.123  0.00  0.00    +0.029 C 
BRANCH  19  21
ATOM     21  C   UNL     1      -0.440   6.062   1.811  0.00  0.00    +0.226 C 
ATOM     22  O   UNL     1      -0.518   6.938   0.977  0.00  0.00    -0.275 OA
ATOM     23  N   UNL     1      -0.749   4.791   1.484  0.00  0.00    -0.310 N 
ATOM     24  H   UNL     1      -0.679   3.996   2.241  0.00  0.00    +0.149 HD
BRANCH  23  25
ATOM     25  C   UNL     1      -1.178   4.469   0.121  0.00  0.00    +0.139 C 
BRANCH  25  26
ATOM     26  C   UNL     1      -1.461   2.992   0.019  0.00  0.00    -0.027 A 
ATOM     27  C   UNL     1      -0.450   2.120  -0.339  0.00  0.00    +0.009 A 
ATOM     28  C   UNL     1      -0.705   0.764  -0.435  0.00  0.00    +0.050 A 
ATOM     29  C   UNL     1      -1.975   0.277  -0.171  0.00  0.00    +0.166 A 
ATOM     30  C   UNL     1      -2.993   1.156   0.191  0.00  0.00    +0.167 A 
ATOM     31  C   UNL     1      -2.730   2.513   0.284  0.00  0.00    +0.054 A 
ATOM     32  O   UNL     1      -4.136   0.439   0.396  0.00  0.00    -0.453 OA
ATOM     33  C   UNL     1      -3.911  -0.833  -0.239  0.00  0.00    +0.466 C 
ATOM     34  O   UNL     1      -2.480  -0.991  -0.193  0.00  0.00    -0.453 OA
ENDBRANCH  25  26
ENDBRANCH  23  25
ENDBRANCH  19  21
ENDBRANCH  18  19
ENDBRANCH  12  18
TORSDOF 6
