REMARK  Name = ZINC20708755
REMARK  6 active torsions:
REMARK  status: ('A' for Active; 'I' for Inactive)
REMARK    1  A    between atoms: C_3  and  O_36
REMARK    2  A    between atoms: C_4  and  C_10
REMARK    3  A    between atoms: C_6  and  N_7
REMARK    4  A    between atoms: C_21  and  S_26
REMARK    5  A    between atoms: S_26  and  N_29
REMARK    6  A    between atoms: N_29  and  C_30
REMARK                            x       y       z     vdW  Elec       q    Type
REMARK                         _______ _______ _______ _____ _____    ______ ____
ROOT
ATOM      1  C   UNL     1      -0.974   1.621   1.054  0.00  0.00    +0.108 C 
ATOM      2  C   UNL     1      -0.013   1.086   0.008  0.00  0.00    +0.029 C 
ATOM      3  C   UNL     1       1.407   1.668  -0.002  0.00  0.00    +0.033 C 
ATOM      4  C   UNL     1       1.796   1.505  -1.473  0.00  0.00    -0.030 C 
ATOM      5  C   UNL     1       0.706   1.488  -2.231  0.00  0.00    -0.023 C 
ATOM      6  C   UNL     1      -0.482   1.668  -1.359  0.00  0.00    +0.049 C 
ATOM      7  C   UNL     1      -1.791   1.060  -1.685  0.00  0.00    -0.018 A 
ATOM      8  C   UNL     1      -2.165   0.758  -2.976  0.00  0.00    +0.034 A 
ATOM      9  C   UNL     1      -3.405   0.201  -3.231  0.00  0.00    +0.106 A 
ATOM     10  C   UNL     1      -4.276  -0.053  -2.187  0.00  0.00    +0.030 A 
ATOM     11  C   UNL     1      -3.908   0.240  -0.890  0.00  0.00    +0.025 A 
ATOM     12  C   UNL     1      -2.661   0.793  -0.622  0.00  0.00    +0.031 A 
ATOM     13  N   UNL     1      -2.296   1.049   0.705  0.00  0.00    -0.336 N 
ATOM     14  H   UNL     1      -3.021   0.815   1.499  0.00  0.00    +0.147 HD
ENDROOT
BRANCH   1  18
ATOM     15  C   UNL     1       0.293   0.441   4.963  0.00  0.00    +0.036 A 
ATOM     16  C   UNL     1       0.823   1.577   4.383  0.00  0.00    +0.048 A 
ATOM     17  C   UNL     1       0.418   1.960   3.113  0.00  0.00    +0.122 A 
ATOM     18  C   UNL     1      -0.528   1.206   2.432  0.00  0.00    +0.017 A 
ATOM     19  C   UNL     1      -1.055   0.071   3.017  0.00  0.00    +0.041 A 
ATOM     20  C   UNL     1      -0.646  -0.311   4.281  0.00  0.00    +0.127 A 
BRANCH  20  21
ATOM     21  N   UNL     1      -1.213  -1.528   4.905  0.00  0.00    +0.056 N 
ATOM     22  O   UNL     1      -2.039  -2.191   4.305  0.00  0.00    -0.126 OA
ATOM     23  O   UNL     1      -0.853  -1.865   6.019  0.00  0.00    -0.126 OA
ENDBRANCH  20  21
BRANCH  17  24
ATOM     24  O   UNL     1       0.942   3.074   2.538  0.00  0.00    -0.506 OA
ATOM     25  H   UNL     1       0.620   3.376   1.530  0.00  0.00    +0.292 HD
ENDBRANCH  17  24
ENDBRANCH   1  18
BRANCH   9  26
ATOM     26  S   UNL     1      -3.876  -0.183  -4.885  0.00  0.00    +0.059 S 
ATOM     27  O   UNL     1      -5.297  -0.189  -4.911  0.00  0.00    -0.153 OA
ATOM     28  O   UNL     1      -3.102   0.655  -5.732  0.00  0.00    -0.153 OA
BRANCH  26  29
ATOM     29  N   UNL     1      -3.390  -1.737  -5.184  0.00  0.00    -0.187 NA
ATOM     30  H   UNL     1      -2.508  -1.912  -5.818  0.00  0.00    +0.148 HD
BRANCH  29  31
ATOM     31  C   UNL     1      -3.990  -2.848  -4.441  0.00  0.00    +0.077 C 
ATOM     32  C   UNL     1      -3.108  -3.192  -3.238  0.00  0.00    +0.020 C 
ATOM     33  C   UNL     1      -3.735  -4.352  -2.462  0.00  0.00    +0.002 C 
ATOM     34  C   UNL     1      -3.850  -5.574  -3.375  0.00  0.00    +0.000 C 
ATOM     35  C   UNL     1      -4.731  -5.230  -4.578  0.00  0.00    +0.002 C 
ATOM     36  C   UNL     1      -4.105  -4.070  -5.354  0.00  0.00    +0.020 C 
ENDBRANCH  29  31
ENDBRANCH  26  29
ENDBRANCH   9  26
TORSDOF 6
