REMARK  Name = ZINC09576901
REMARK  9 active torsions:
REMARK  status: ('A' for Active; 'I' for Inactive)
REMARK    1  A    between atoms: C_1  and  C_2
REMARK    2  A    between atoms: C_3  and  C_30
REMARK    3  A    between atoms: C_7  and  N_16
REMARK    4  A    between atoms: C_9  and  C_11
REMARK    5  A    between atoms: N_16  and  C_17
REMARK    6  A    between atoms: C_17  and  C_19
REMARK    7  A    between atoms: C_17  and  C_20
REMARK    8  A    between atoms: C_23  and  S_26
REMARK    9  A    between atoms: S_26  and  C_29
REMARK                            x       y       z     vdW  Elec       q    Type
REMARK                         _______ _______ _______ _____ _____    ______ ____
ROOT
ATOM      1  C   UNL     1       4.565   4.091   2.036  0.00  0.00    +0.045 C 
ATOM      2  C   UNL     1       5.593   3.106   2.530  0.00  0.00    -0.028 A 
ATOM      3  C   UNL     1       6.588   3.510   3.334  0.00  0.00    -0.008 A 
ATOM      4  S   UNL     1       7.514   2.017   3.634  0.00  0.00    -0.073 S 
ATOM      5  C   UNL     1       6.541   0.890   2.671  0.00  0.00    +0.114 A 
ATOM      6  C   UNL     1       5.522   1.710   2.136  0.00  0.00    +0.051 A 
ATOM      7  C   UNL     1       4.572   1.047   1.308  0.00  0.00    +0.132 A 
ATOM      8  N   UNL     1       4.699  -0.249   1.087  0.00  0.00    -0.212 NA
ATOM      9  C   UNL     1       5.688  -0.963   1.619  0.00  0.00    +0.169 A 
ATOM     10  N   UNL     1       6.600  -0.398   2.404  0.00  0.00    -0.219 NA
ATOM     11  C   UNL     1       6.857   4.897   3.860  0.00  0.00    +0.052 C 
ENDROOT
BRANCH   9  12
ATOM     12  C   UNL     1       5.773  -2.408   1.333  0.00  0.00    +0.056 A 
ATOM     13  C   UNL     1       6.697  -3.322   1.770  0.00  0.00    +0.019 A 
ATOM     14  C   UNL     1       6.573  -4.632   1.367  0.00  0.00    +0.008 A 
ATOM     15  C   UNL     1       5.543  -4.979   0.551  0.00  0.00    +0.046 A 
ATOM     16  S   UNL     1       4.697  -3.422   0.333  0.00  0.00    -0.094 S 
ENDBRANCH   9  12
BRANCH   7  17
ATOM     17  N   UNL     1       3.530   1.755   0.737  0.00  0.00    -0.322 N 
ATOM     18  H   UNL     1       3.493   2.720   0.825  0.00  0.00    +0.148 HD
BRANCH  17  19
ATOM     19  C   UNL     1       2.482   1.047  -0.003  0.00  0.00    +0.099 C 
ATOM     20  C   UNL     1       2.934   0.831  -1.448  0.00  0.00    +0.033 C 
BRANCH  19  21
ATOM     21  C   UNL     1       1.217   1.866   0.011  0.00  0.00    -0.027 A 
ATOM     22  C   UNL     1      -0.007   1.244   0.172  0.00  0.00    +0.007 A 
ATOM     23  C   UNL     1      -1.168   1.995   0.178  0.00  0.00    +0.027 A 
ATOM     24  C   UNL     1      -1.104   3.368   0.034  0.00  0.00    +0.088 A 
ATOM     25  C   UNL     1       0.120   3.990  -0.127  0.00  0.00    +0.027 A 
ATOM     26  C   UNL     1       1.281   3.239  -0.139  0.00  0.00    +0.007 A 
BRANCH  24  27
ATOM     27  S   UNL     1      -2.583   4.326   0.048  0.00  0.00    -0.006 S 
ATOM     28  O   UNL     1      -3.505   3.558   0.809  0.00  0.00    -0.170 OA
ATOM     29  O   UNL     1      -2.176   5.614   0.489  0.00  0.00    -0.170 OA
ATOM     30  C   UNL     1      -3.110   4.396  -1.686  0.00  0.00    +0.200 C 
ENDBRANCH  24  27
ENDBRANCH  19  21
ENDBRANCH  17  19
ENDBRANCH   7  17
TORSDOF 5
