REMARK  Name = ZINC35874067
REMARK  6 active torsions:
REMARK  status: ('A' for Active; 'I' for Inactive)
REMARK    1  A    between atoms: C_1  and  C_2
REMARK    2  A    between atoms: C_2  and  C_3
REMARK    3  A    between atoms: N_7  and  C_27
REMARK    4  A    between atoms: C_11  and  N_16
REMARK    5  A    between atoms: C_17  and  C_19
REMARK    6  A    between atoms: C_19  and  C_20
REMARK                            x       y       z     vdW  Elec       q    Type
REMARK                         _______ _______ _______ _____ _____    ______ ____
ROOT
ATOM      1  C   UNL     1       0.490  -0.082   1.671  0.00  0.00    +0.259 C 
ATOM      2  C   UNL     1       0.328  -1.550   1.914  0.00  0.00    +0.257 C 
ATOM      3  O   UNL     1      -0.437  -1.810   2.818  0.00  0.00    -0.272 OA
ATOM      4  N   UNL     1       0.831  -2.579   1.363  0.00  0.00    -0.287 N 
ATOM      5  C   UNL     1       1.918  -2.764   0.461  0.00  0.00    +0.147 C 
ATOM      6  C   UNL     1       2.738  -1.578   0.059  0.00  0.00    +0.013 A 
ATOM      7  C   UNL     1       3.730  -1.895  -0.884  0.00  0.00    +0.032 A 
ATOM      8  C   UNL     1       4.552  -0.923  -1.417  0.00  0.00    +0.034 A 
ATOM      9  C   UNL     1       4.380   0.395  -1.014  0.00  0.00    +0.027 A 
ATOM     10  C   UNL     1       3.424   0.691  -0.079  0.00  0.00    +0.048 A 
ATOM     11  C   UNL     1       2.604  -0.311   0.495  0.00  0.00    +0.126 A 
ATOM     12  O   UNL     1       1.854   0.245   1.492  0.00  0.00    -0.479 OA
ENDROOT
BRANCH   4  13
ATOM     13  C   UNL     1       0.156  -3.827   1.729  0.00  0.00    +0.107 C 
ATOM     14  C   UNL     1      -0.518  -4.416   0.492  0.00  0.00    +0.027 C 
ATOM     15  C   UNL     1      -1.029  -5.819   0.842  0.00  0.00    +0.007 C 
ATOM     16  C   UNL     1       0.177  -6.740   1.018  0.00  0.00    +0.035 C 
ATOM     17  C   UNL     1       1.174  -6.130   1.968  0.00  0.00    -0.042 A 
ATOM     18  C   UNL     1       1.167  -4.792   2.291  0.00  0.00    -0.024 A 
ATOM     19  C   UNL     1       2.120  -4.292   3.168  0.00  0.00    +0.006 A 
ATOM     20  C   UNL     1       3.071  -5.125   3.721  0.00  0.00    +0.000 A 
ATOM     21  C   UNL     1       3.075  -6.470   3.399  0.00  0.00    +0.000 A 
ATOM     22  C   UNL     1       2.130  -6.967   2.527  0.00  0.00    +0.004 A 
ENDBRANCH   4  13
BRANCH   8  23
ATOM     23  N   UNL     1       5.542  -1.260  -2.349  0.00  0.00    -0.285 N 
ATOM     24  C   UNL     1       6.713  -0.593  -2.360  0.00  0.00    +0.222 C 
ATOM     25  O   UNL     1       6.949   0.230  -1.501  0.00  0.00    -0.275 OA
ATOM     26  H   UNL     1       5.385  -1.974  -2.987  0.00  0.00    +0.155 HD
BRANCH  24  27
ATOM     27  C   UNL     1       7.729  -0.870  -3.438  0.00  0.00    +0.131 C 
BRANCH  27  28
ATOM     28  C   UNL     1       8.940   0.001  -3.223  0.00  0.00    -0.038 A 
ATOM     29  C   UNL     1       9.000   1.255  -3.801  0.00  0.00    +0.007 A 
ATOM     30  C   UNL     1      10.110   2.055  -3.604  0.00  0.00    +0.038 A 
ATOM     31  C   UNL     1      11.162   1.600  -2.827  0.00  0.00    +0.123 A 
ATOM     32  C   UNL     1      11.100   0.343  -2.248  0.00  0.00    +0.038 A 
ATOM     33  C   UNL     1       9.987  -0.452  -2.442  0.00  0.00    +0.007 A 
ATOM     34  F   UNL     1      12.247   2.380  -2.635  0.00  0.00    -0.205 F 
ENDBRANCH  27  28
ENDBRANCH  24  27
ENDBRANCH   8  23
BRANCH   1  36
ATOM     35  C   UNL     1      -0.243   1.830   0.239  0.00  0.00    +0.008 C 
ATOM     36  C   UNL     1      -0.291   0.311   0.415  0.00  0.00    +0.051 C 
ENDBRANCH   1  36
TORSDOF 5
