REMARK  Name = ZINC19913465
REMARK  4 active torsions:
REMARK  status: ('A' for Active; 'I' for Inactive)
REMARK    1  A    between atoms: C_4  and  C_7
REMARK    2  A    between atoms: C_10  and  C_34
REMARK    3  A    between atoms: N_12  and  C_13
REMARK    4  A    between atoms: C_16  and  C_19
REMARK                            x       y       z     vdW  Elec       q    Type
REMARK                         _______ _______ _______ _____ _____    ______ ____
ROOT
ATOM      1  C   UNL     1       3.368  -1.979   2.145  0.00  0.00    +0.052 A 
ATOM      2  C   UNL     1       3.150  -0.804   2.855  0.00  0.00    +0.025 A 
ATOM      3  C   UNL     1       2.890  -0.856   4.210  0.00  0.00    +0.009 A 
ATOM      4  C   UNL     1       2.848  -2.075   4.861  0.00  0.00    -0.007 A 
ATOM      5  C   UNL     1       3.064  -3.247   4.159  0.00  0.00    +0.009 A 
ATOM      6  C   UNL     1       3.318  -3.203   2.802  0.00  0.00    +0.025 A 
ENDROOT
BRANCH   4   7
ATOM      7  C   UNL     1       2.564  -2.128   6.341  0.00  0.00    +0.209 C 
ATOM      8  N   UNL     1       1.689  -3.276   6.641  0.00  0.00    -0.294 N 
ATOM      9  C   UNL     1       2.276  -4.529   6.742  0.00  0.00    +0.159 C 
ATOM     10  N   UNL     1       3.371  -4.634   7.601  0.00  0.00    -0.259 N 
ATOM     11  C   UNL     1       4.185  -3.506   7.661  0.00  0.00    +0.205 A 
ATOM     12  N   UNL     1       3.818  -2.312   7.080  0.00  0.00    -0.288 N 
ATOM     13  C   UNL     1       4.818  -1.415   7.330  0.00  0.00    +0.072 A 
ATOM     14  C   UNL     1       4.991  -0.077   7.001  0.00  0.00    +0.028 A 
ATOM     15  C   UNL     1       6.160   0.532   7.430  0.00  0.00    +0.002 A 
ATOM     16  C   UNL     1       7.120  -0.151   8.155  0.00  0.00    +0.002 A 
ATOM     17  C   UNL     1       6.971  -1.483   8.496  0.00  0.00    +0.030 A 
ATOM     18  C   UNL     1       5.799  -2.119   8.074  0.00  0.00    +0.091 A 
ATOM     19  N   UNL     1       5.351  -3.384   8.236  0.00  0.00    -0.214 NA
ATOM     20  N   UNL     1       1.827  -5.553   6.073  0.00  0.00    -0.375 N 
ATOM     21  H   UNL     1       3.552  -5.434   8.117  0.00  0.00    +0.158 HD
ATOM     22  H   UNL     1       1.064  -5.450   5.484  0.00  0.00    +0.158 HD
ATOM     23  H   UNL     1       0.734  -3.158   6.764  0.00  0.00    +0.151 HD
ATOM     24  H   UNL     1       2.257  -6.417   6.163  0.00  0.00    +0.158 HD
ENDBRANCH   4   7
BRANCH   1  29
ATOM     25  C   UNL     1       3.711  -0.707  -0.038  0.00  0.00    +0.134 C 
ATOM     26  C   UNL     1       4.022  -1.230  -1.454  0.00  0.00    +0.087 C 
ATOM     27  C   UNL     1       4.083  -2.731  -1.284  0.00  0.00    +0.069 C 
ATOM     28  N   UNL     1       3.860  -3.033  -0.051  0.00  0.00    -0.183 NA
ATOM     29  N   UNL     1       3.631  -1.931   0.776  0.00  0.00    -0.216 N 
BRANCH  25  33
ATOM     30  C   UNL     1      -0.017   1.378   0.010  0.00  0.00    +0.000 A 
ATOM     31  C   UNL     1       1.171   2.086   0.002  0.00  0.00    +0.000 A 
ATOM     32  C   UNL     1       2.377   1.411  -0.013  0.00  0.00    +0.005 A 
ATOM     33  C   UNL     1       2.396   0.029  -0.020  0.00  0.00    -0.025 A 
ATOM     34  C   UNL     1       1.208  -0.679  -0.012  0.00  0.00    +0.005 A 
ATOM     35  C   UNL     1       0.002  -0.004   0.002  0.00  0.00    +0.000 A 
ENDBRANCH  25  33
BRANCH  27  36
ATOM     36  C   UNL     1       4.354  -3.699  -2.362  0.00  0.00    -0.002 A 
ATOM     37  C   UNL     1       4.587  -3.252  -3.665  0.00  0.00    +0.010 A 
ATOM     38  C   UNL     1       4.841  -4.164  -4.668  0.00  0.00    +0.001 A 
ATOM     39  C   UNL     1       4.864  -5.519  -4.387  0.00  0.00    +0.000 A 
ATOM     40  C   UNL     1       4.635  -5.969  -3.098  0.00  0.00    +0.001 A 
ATOM     41  C   UNL     1       4.386  -5.068  -2.084  0.00  0.00    +0.010 A 
ENDBRANCH  27  36
ENDBRANCH   1  29
TORSDOF 4
