REMARK  Name = ZINC08843181
REMARK  8 active torsions:
REMARK  status: ('A' for Active; 'I' for Inactive)
REMARK    1  A    between atoms: C_1  and  S_2
REMARK    2  A    between atoms: S_2  and  N_5
REMARK    3  A    between atoms: N_5  and  C_6
REMARK    4  A    between atoms: N_5  and  C_23
REMARK    5  A    between atoms: C_6  and  C_7
REMARK    6  A    between atoms: N_9  and  N_10
REMARK    7  A    between atoms: C_11  and  C_12
REMARK    8  A    between atoms: C_21  and  O_22
REMARK                            x       y       z     vdW  Elec       q    Type
REMARK                         _______ _______ _______ _____ _____    ______ ____
ROOT
ATOM      1  C   UNL     1       2.056  -2.245  -1.662  0.00  0.00    +0.251 C 
ATOM      2  O   UNL     1       1.116  -2.951  -1.361  0.00  0.00    -0.272 OA
ATOM      3  N   UNL     1       3.271  -2.792  -1.867  0.00  0.00    -0.206 N 
ATOM      4  H   UNL     1       4.023  -2.228  -2.107  0.00  0.00    +0.177 HD
ENDROOT
BRANCH   3   5
ATOM      5  N   UNL     1       3.448  -4.176  -1.733  0.00  0.00    -0.188 NA
ATOM      6  C   UNL     1       4.619  -4.703  -1.931  0.00  0.00    +0.142 C 
BRANCH   6   7
ATOM      7  C   UNL     1       4.804  -6.154  -1.791  0.00  0.00    +0.044 A 
ATOM      8  C   UNL     1       6.116  -6.764  -2.004  0.00  0.00    -0.006 A 
ATOM      9  C   UNL     1       7.233  -5.992  -2.346  0.00  0.00    +0.009 A 
ATOM     10  C   UNL     1       8.439  -6.599  -2.536  0.00  0.00    +0.001 A 
ATOM     11  C   UNL     1       8.575  -7.978  -2.394  0.00  0.00    +0.001 A 
ATOM     12  C   UNL     1       7.510  -8.758  -2.062  0.00  0.00    +0.008 A 
ATOM     13  C   UNL     1       6.251  -8.166  -1.859  0.00  0.00    -0.017 A 
ATOM     14  C   UNL     1       5.128  -8.939  -1.514  0.00  0.00    +0.012 A 
ATOM     15  C   UNL     1       3.916  -8.356  -1.319  0.00  0.00    +0.046 A 
ATOM     16  C   UNL     1       3.734  -6.979  -1.446  0.00  0.00    +0.126 A 
BRANCH  16  17
ATOM     17  O   UNL     1       2.506  -6.439  -1.237  0.00  0.00    -0.506 OA
ATOM     18  H   UNL     1       1.958  -6.390  -2.032  0.00  0.00    +0.292 HD
ENDBRANCH  16  17
ENDBRANCH   6   7
ENDBRANCH   3   5
BRANCH   1  19
ATOM     19  C   UNL     1       1.866  -0.757  -1.805  0.00  0.00    +0.228 C 
BRANCH  19  20
ATOM     20  N   UNL     1       0.468  -0.415  -1.533  0.00  0.00    -0.198 N 
BRANCH  20  21
ATOM     21  C   UNL     1      -0.483  -0.500  -2.553  0.00  0.00    +0.065 A 
ATOM     22  C   UNL     1      -1.131  -1.703  -2.803  0.00  0.00    +0.026 A 
ATOM     23  C   UNL     1      -2.071  -1.784  -3.811  0.00  0.00    +0.002 A 
ATOM     24  C   UNL     1      -2.369  -0.668  -4.572  0.00  0.00    +0.001 A 
ATOM     25  C   UNL     1      -1.727   0.532  -4.327  0.00  0.00    +0.017 A 
ATOM     26  C   UNL     1      -0.789   0.621  -3.316  0.00  0.00    +0.040 A 
ATOM     27 BR   UNL     1       0.084   2.264  -2.976  0.00  0.00    -0.048 Br
ENDBRANCH  20  21
BRANCH  20  29
ATOM     28  C   UNL     1       0.412   1.841   0.042  0.00  0.00    +0.218 C 
ATOM     29  S   UNL     1       0.015   0.072  -0.017  0.00  0.00    +0.043 S 
ATOM     30  O   UNL     1       0.864  -0.649   0.865  0.00  0.00    -0.155 OA
ATOM     31  O   UNL     1      -1.393  -0.114   0.019  0.00  0.00    -0.155 OA
ENDBRANCH  20  29
ENDBRANCH  19  20
ENDBRANCH   1  19
TORSDOF 7
