REMARK  Name = ZINC02158869
REMARK  6 active torsions:
REMARK  status: ('A' for Active; 'I' for Inactive)
REMARK    1  A    between atoms: C_1  and  C_2
REMARK    2  A    between atoms: C_4  and  C_17
REMARK    3  A    between atoms: C_5  and  C_16
REMARK    4  A    between atoms: N_6  and  C_7
REMARK    5  A    between atoms: C_10  and  C_14
REMARK    6  A    between atoms: N_24  and  C_27
REMARK                            x       y       z     vdW  Elec       q    Type
REMARK                         _______ _______ _______ _____ _____    ______ ____
ROOT
ATOM      1  C   UNL     1       1.311  -4.971   2.283  0.00  0.00    +0.028 C 
ATOM      2  C   UNL     1       2.217  -4.256   1.517  0.00  0.00    +0.100 C 
ATOM      3  C   UNL     1       3.252  -4.936   0.715  0.00  0.00    +0.255 C 
ATOM      4  O   UNL     1       3.337  -6.149   0.704  0.00  0.00    -0.270 OA
ATOM      5  N   UNL     1       4.101  -4.175  -0.006  0.00  0.00    -0.263 N 
ATOM      6  C   UNL     1       4.014  -2.837  -0.007  0.00  0.00    +0.151 C 
ATOM      7  S   UNL     1       5.130  -1.954  -0.959  0.00  0.00    -0.018 S 
ATOM      8  N   UNL     1       3.104  -2.154   0.701  0.00  0.00    -0.215 N 
ATOM      9  C   UNL     1       2.191  -2.783   1.469  0.00  0.00    +0.262 C 
ATOM     10  O   UNL     1       1.366  -2.151   2.103  0.00  0.00    -0.269 OA
ATOM     11  H   UNL     1       4.787  -4.606  -0.540  0.00  0.00    +0.157 HD
ENDROOT
BRANCH   1  15
ATOM     12  C   UNL     1       1.119  -9.628   0.341  0.00  0.00    +0.064 C 
ATOM     13  C   UNL     1       1.154  -8.454   1.285  0.00  0.00    +0.022 A 
ATOM     14  C   UNL     1       1.228  -7.165   0.920  0.00  0.00    +0.031 A 
ATOM     15  C   UNL     1       1.240  -6.380   2.163  0.00  0.00    -0.003 A 
ATOM     16  C   UNL     1       1.160  -7.303   3.195  0.00  0.00    +0.028 A 
ATOM     17  N   UNL     1       1.110  -8.534   2.651  0.00  0.00    -0.317 N 
ATOM     18  C   UNL     1       1.133  -6.984   4.668  0.00  0.00    +0.064 C 
BRANCH  17  19
ATOM     19  C   UNL     1       1.024  -9.725   3.378  0.00  0.00    +0.048 A 
ATOM     20  C   UNL     1      -0.111 -10.523   3.271  0.00  0.00    +0.027 A 
ATOM     21  C   UNL     1      -0.200 -11.696   3.985  0.00  0.00    +0.018 A 
ATOM     22  C   UNL     1       0.852 -12.087   4.819  0.00  0.00    +0.082 A 
ATOM     23  C   UNL     1       1.992 -11.282   4.924  0.00  0.00    +0.057 A 
ATOM     24  C   UNL     1       2.075 -10.111   4.201  0.00  0.00    +0.047 A 
ATOM     25 CL   UNL     1       3.302 -11.762   5.957  0.00  0.00    -0.083 Cl
BRANCH  22  26
ATOM     26  C   UNL     1       0.761 -13.343   5.585  0.00  0.00    +0.388 C 
ATOM     27  O   UNL     1       1.676 -13.681   6.309  0.00  0.00    -0.241 OA
ATOM     28  O   UNL     1      -0.338 -14.117   5.482  0.00  0.00    -0.241 OA
ENDBRANCH  22  26
ENDBRANCH  17  19
ENDBRANCH   1  15
BRANCH   8  29
ATOM     29  C   UNL     1       3.099  -0.753   0.639  0.00  0.00    +0.078 A 
ATOM     30  C   UNL     1       3.849  -0.014   1.542  0.00  0.00    +0.027 A 
ATOM     31  C   UNL     1       3.842   1.366   1.479  0.00  0.00    +0.002 A 
ATOM     32  C   UNL     1       3.087   2.012   0.516  0.00  0.00    +0.003 A 
ATOM     33  C   UNL     1       2.338   1.280  -0.386  0.00  0.00    +0.040 A 
ATOM     34  C   UNL     1       2.341  -0.102  -0.328  0.00  0.00    +0.145 A 
ATOM     35  F   UNL     1       1.609  -0.818  -1.210  0.00  0.00    -0.204 F 
ENDBRANCH   8  29
TORSDOF 4
