REMARK  Name = ZINC39463991
REMARK  5 active torsions:
REMARK  status: ('A' for Active; 'I' for Inactive)
REMARK    1  A    between atoms: C_4  and  C_7
REMARK    2  A    between atoms: C_7  and  P_8
REMARK    3  A    between atoms: C_16  and  C_25
REMARK    4  A    between atoms: C_17  and  O_24
REMARK    5  A    between atoms: C_30  and  O_31
REMARK                            x       y       z     vdW  Elec       q    Type
REMARK                         _______ _______ _______ _____ _____    ______ ____
ROOT
ATOM      1  P   UNL     1       4.260  -1.012   1.674  0.00  0.00    +0.289 P 
ATOM      2  O   UNL     1       4.474   0.272   2.378  0.00  0.00    -0.271 OA
ATOM      3  N   UNL     1       5.649  -1.908   1.677  0.00  0.00    -0.179 NA
ATOM      4  N   UNL     1       5.508  -3.264   1.481  0.00  0.00    -0.226 NA
ATOM      5  C   UNL     1       6.827  -3.914   1.530  0.00  0.00    +0.108 C 
ATOM      6  C   UNL     1       6.695  -5.336   0.984  0.00  0.00    +0.052 C 
ATOM      7  C   UNL     1       5.572  -6.049   1.693  0.00  0.00    -0.041 A 
ATOM      8  C   UNL     1       5.533  -7.432   1.641  0.00  0.00    +0.016 A 
ATOM      9  C   UNL     1       4.514  -8.131   2.280  0.00  0.00    +0.027 A 
ATOM     10  C   UNL     1       3.528  -7.425   2.977  0.00  0.00    +0.125 A 
ATOM     11  C   UNL     1       3.578  -6.044   3.021  0.00  0.00    +0.051 A 
ATOM     12  C   UNL     1       4.598  -5.354   2.380  0.00  0.00    -0.020 A 
ATOM     13  C   UNL     1       4.599  -3.849   2.465  0.00  0.00    +0.129 C 
ATOM     14  C   UNL     1       3.169  -3.338   2.265  0.00  0.00    +0.194 C 
ATOM     15  O   UNL     1       3.158  -1.910   2.465  0.00  0.00    -0.314 OA
ATOM     16  H   UNL     1       6.519  -1.500   1.811  0.00  0.00    +0.151 HD
ENDROOT
BRANCH   9  17
ATOM     17  C   UNL     1       4.474  -9.612   2.223  0.00  0.00    +0.027 A 
ATOM     18  C   UNL     1       5.481 -10.363   2.827  0.00  0.00    +0.012 A 
ATOM     19  C   UNL     1       5.438 -11.741   2.771  0.00  0.00    +0.001 A 
ATOM     20  C   UNL     1       4.399 -12.381   2.118  0.00  0.00    +0.004 A 
ATOM     21  C   UNL     1       3.396 -11.646   1.517  0.00  0.00    +0.046 A 
ATOM     22  C   UNL     1       3.423 -10.261   1.569  0.00  0.00    +0.125 A 
BRANCH  22  23
ATOM     23  O   UNL     1       2.434  -9.537   0.983  0.00  0.00    -0.506 OA
ATOM     24  H   UNL     1       2.607  -9.312   0.059  0.00  0.00    +0.292 HD
ENDBRANCH  22  23
ENDBRANCH   9  17
BRANCH  10  25
ATOM     25  O   UNL     1       2.527  -8.093   3.607  0.00  0.00    -0.506 OA
ATOM     26  H   UNL     1       2.726  -8.327   4.523  0.00  0.00    +0.292 HD
ENDBRANCH  10  25
BRANCH   1  27
ATOM     27  C   UNL     1       3.711  -0.707  -0.038  0.00  0.00    +0.150 C 
BRANCH  27  31
ATOM     28  C   UNL     1      -0.017   1.378   0.010  0.00  0.00    +0.000 A 
ATOM     29  C   UNL     1       1.171   2.086   0.002  0.00  0.00    +0.000 A 
ATOM     30  C   UNL     1       2.377   1.411  -0.013  0.00  0.00    +0.004 A 
ATOM     31  C   UNL     1       2.396   0.029  -0.020  0.00  0.00    -0.037 A 
ATOM     32  C   UNL     1       1.208  -0.679  -0.012  0.00  0.00    +0.004 A 
ATOM     33  C   UNL     1       0.002  -0.004   0.002  0.00  0.00    +0.000 A 
ENDBRANCH  27  31
ENDBRANCH   1  27
TORSDOF 5
