REMARK  Name = ZINC12480517
REMARK  11 active torsions:
REMARK  status: ('A' for Active; 'I' for Inactive)
REMARK    1  A    between atoms: C_1  and  C_2
REMARK    2  A    between atoms: C_6  and  C_7
REMARK    3  A    between atoms: C_7  and  C_9
REMARK    4  A    between atoms: C_7  and  N_19
REMARK    5  A    between atoms: N_11  and  C_12
REMARK    6  A    between atoms: C_12  and  C_13
REMARK    7  A    between atoms: N_19  and  C_20
REMARK    8  A    between atoms: C_23  and  O_26
REMARK    9  A    between atoms: O_26  and  C_27
REMARK   10  A    between atoms: C_28  and  C_30
REMARK   11  A    between atoms: C_30  and  N_31
REMARK                            x       y       z     vdW  Elec       q    Type
REMARK                         _______ _______ _______ _____ _____    ______ ____
ROOT
ATOM      1  N   UNL     1      -0.136  -0.192   0.182  0.00  0.00    -0.253 N 
ATOM      2  C   UNL     1       0.182   1.113   0.079  0.00  0.00    +0.242 C 
ATOM      3  O   UNL     1      -0.674   1.927  -0.194  0.00  0.00    -0.273 OA
ENDROOT
BRANCH   1   4
ATOM      4  C   UNL     1       0.876  -1.153   0.307  0.00  0.00    +0.038 A 
ATOM      5  C   UNL     1       2.201  -0.754   0.422  0.00  0.00    +0.027 A 
ATOM      6  C   UNL     1       3.198  -1.702   0.551  0.00  0.00    +0.047 A 
ATOM      7  C   UNL     1       2.876  -3.051   0.554  0.00  0.00    +0.120 A 
ATOM      8  C   UNL     1       1.553  -3.450   0.434  0.00  0.00    +0.047 A 
ATOM      9  C   UNL     1       0.555  -2.503   0.311  0.00  0.00    +0.027 A 
BRANCH   7  10
ATOM     10  O   UNL     1       3.858  -3.983   0.675  0.00  0.00    -0.495 OA
ATOM     11  C   UNL     1       5.199  -3.502   0.795  0.00  0.00    +0.277 C 
ENDBRANCH   7  10
ENDBRANCH   1   4
BRANCH   1  12
ATOM     12  C   UNL     1      -1.541  -0.607   0.164  0.00  0.00    +0.204 C 
BRANCH  12  18
ATOM     13  C   UNL     1      -3.906  -0.154  -1.745  0.00  0.00    +0.044 C 
ATOM     14  C   UNL     1      -2.849  -1.202  -1.985  0.00  0.00    -0.038 A 
ATOM     15  C   UNL     1      -2.908  -2.014  -3.102  0.00  0.00    +0.011 A 
ATOM     16  C   UNL     1      -1.945  -2.951  -3.284  0.00  0.00    +0.046 A 
ATOM     17  S   UNL     1      -0.907  -2.698  -1.854  0.00  0.00    -0.099 S 
ATOM     18  C   UNL     1      -1.826  -1.360  -1.110  0.00  0.00    +0.022 A 
ENDBRANCH  12  18
BRANCH  12  19
ATOM     19  C   UNL     1      -1.818  -1.498   1.347  0.00  0.00    +0.239 C 
ATOM     20  O   UNL     1      -0.929  -1.760   2.129  0.00  0.00    -0.273 OA
ATOM     21  N   UNL     1      -3.053  -2.002   1.537  0.00  0.00    -0.311 N 
ATOM     22  H   UNL     1      -3.764  -1.792   0.911  0.00  0.00    +0.149 HD
BRANCH  21  23
ATOM     23  C   UNL     1      -3.322  -2.869   2.687  0.00  0.00    +0.135 C 
BRANCH  23  24
ATOM     24  C   UNL     1      -4.789  -3.301   2.668  0.00  0.00    +0.135 C 
ATOM     25  C   UNL     1      -5.082  -4.213   3.875  0.00  0.00    +0.035 C 
ATOM     26  C   UNL     1      -6.211  -3.480   4.639  0.00  0.00    +0.031 C 
ATOM     27  C   UNL     1      -6.801  -2.558   3.542  0.00  0.00    +0.160 C 
ATOM     28  O   UNL     1      -5.640  -2.149   2.787  0.00  0.00    -0.375 OA
ENDBRANCH  23  24
ENDBRANCH  21  23
ENDBRANCH  12  19
ENDBRANCH   1  12
BRANCH   2  29
ATOM     29  C   UNL     1       1.605   1.561   0.296  0.00  0.00    +0.242 C 
BRANCH  29  30
ATOM     30  N   UNL     1       1.660   3.025   0.307  0.00  0.00    -0.235 N 
ATOM     31  C   UNL     1       1.862   3.849  -0.774  0.00  0.00    +0.090 A 
ATOM     32  C   UNL     1       2.067   3.628  -2.132  0.00  0.00    +0.029 A 
ATOM     33  C   UNL     1       2.241   4.691  -2.974  0.00  0.00    +0.002 A 
ATOM     34  C   UNL     1       2.214   5.991  -2.487  0.00  0.00    +0.002 A 
ATOM     35  C   UNL     1       2.007   6.234  -1.160  0.00  0.00    +0.032 A 
ATOM     36  C   UNL     1       1.831   5.162  -0.275  0.00  0.00    +0.113 A 
ATOM     37  N   UNL     1       1.626   5.090   1.055  0.00  0.00    -0.129 NA
ATOM     38  N   UNL     1       1.522   3.862   1.425  0.00  0.00    -0.064 NA
ENDBRANCH  29  30
ENDBRANCH   2  29
TORSDOF 9
