REMARK  Name = ZINC19848377
REMARK  6 active torsions:
REMARK  status: ('A' for Active; 'I' for Inactive)
REMARK    1  A    between atoms: C_1  and  C_2
REMARK    2  A    between atoms: C_2  and  C_30
REMARK    3  A    between atoms: C_7  and  C_10
REMARK    4  A    between atoms: C_15  and  O_16
REMARK    5  A    between atoms: N_20  and  C_23
REMARK    6  A    between atoms: C_23  and  C_24
REMARK                            x       y       z     vdW  Elec       q    Type
REMARK                         _______ _______ _______ _____ _____    ______ ____
ROOT
ATOM      1  C   UNL     1      -1.298   1.968  -0.545  0.00  0.00    +0.002 C 
ATOM      2  C   UNL     1      -0.267   1.478   0.475  0.00  0.00    +0.045 C 
ATOM      3  C   UNL     1      -0.453   2.170   1.776  0.00  0.00    +0.086 C 
ATOM      4  C   UNL     1       1.007   2.086   2.375  0.00  0.00    +0.077 C 
ATOM      5  C   UNL     1       1.754   2.613   1.173  0.00  0.00    -0.023 C 
ATOM      6  N   UNL     1       1.118   1.856   0.041  0.00  0.00    +0.395 N 
ATOM      7  C   UNL     1       0.742   2.816   3.635  0.00  0.00    +0.225 C 
ATOM      8  O   UNL     1       1.488   3.573   4.218  0.00  0.00    -0.275 OA
ATOM      9  N   UNL     1      -0.527   2.453   4.003  0.00  0.00    -0.237 N 
ATOM     10  C   UNL     1      -1.225   1.864   2.978  0.00  0.00    +0.225 C 
ATOM     11  O   UNL     1      -2.255   1.230   3.054  0.00  0.00    -0.275 OA
ATOM     12  H   UNL     1       1.692   0.946  -0.184  0.00  0.00    -0.083 HD
ATOM     13  H   UNL     1       1.061   2.486  -0.859  0.00  0.00    -0.083 HD
ENDROOT
BRANCH   5  14
ATOM     14  C   UNL     1       1.537   4.096   1.015  0.00  0.00    -0.018 A 
ATOM     15  C   UNL     1       0.565   4.564   0.151  0.00  0.00    +0.020 A 
ATOM     16  C   UNL     1       0.366   5.925   0.005  0.00  0.00    +0.018 A 
ATOM     17  C   UNL     1       1.139   6.820   0.724  0.00  0.00    +0.019 A 
ATOM     18  C   UNL     1       2.111   6.356   1.589  0.00  0.00    +0.047 A 
ATOM     19  C   UNL     1       2.309   4.991   1.740  0.00  0.00    +0.119 A 
ATOM     20 BR   UNL     1      -0.965   6.563  -1.177  0.00  0.00    -0.050 Br
BRANCH  19  21
ATOM     21  O   UNL     1       3.261   4.532   2.595  0.00  0.00    -0.507 OA
ATOM     22  H   UNL     1       3.872   5.243   3.169  0.00  0.00    +0.292 HD
ENDBRANCH  19  21
ENDBRANCH   5  14
BRANCH   2  23
ATOM     23  C   UNL     1      -0.374  -0.014   0.652  0.00  0.00    +0.346 C 
ATOM     24  O   UNL     1      -1.054  -0.470   1.541  0.00  0.00    -0.248 OA
ATOM     25  O   UNL     1       0.286  -0.838  -0.177  0.00  0.00    -0.248 OA
ENDBRANCH   2  23
BRANCH   9  26
ATOM     26  C   UNL     1      -1.078   2.669   5.343  0.00  0.00    +0.151 C 
BRANCH  26  27
ATOM     27  C   UNL     1      -1.750   4.017   5.399  0.00  0.00    -0.030 A 
ATOM     28  C   UNL     1      -1.027   5.134   5.774  0.00  0.00    +0.005 A 
ATOM     29  C   UNL     1      -1.641   6.371   5.821  0.00  0.00    +0.000 A 
ATOM     30  C   UNL     1      -2.981   6.490   5.502  0.00  0.00    +0.000 A 
ATOM     31  C   UNL     1      -3.705   5.372   5.132  0.00  0.00    +0.000 A 
ATOM     32  C   UNL     1      -3.089   4.136   5.081  0.00  0.00    +0.005 A 
ENDBRANCH  26  27
ENDBRANCH   9  26
TORSDOF 5
