REMARK  Name = ZINC61639516
REMARK  6 active torsions:
REMARK  status: ('A' for Active; 'I' for Inactive)
REMARK    1  A    between atoms: C_3  and  N_18
REMARK    2  A    between atoms: C_5  and  O_7
REMARK    3  A    between atoms: O_7  and  C_8
REMARK    4  A    between atoms: C_8  and  C_9
REMARK    5  A    between atoms: C_13  and  N_15
REMARK    6  A    between atoms: N_15  and  N_16
REMARK                            x       y       z     vdW  Elec       q    Type
REMARK                         _______ _______ _______ _____ _____    ______ ____
ROOT
ATOM      1  C   UNL     1       0.192  -4.198  -0.025  0.00  0.00    +0.099 A 
ATOM      2  C   UNL     1       0.286  -4.865  -1.231  0.00  0.00    +0.066 A 
ATOM      3  C   UNL     1       0.489  -6.239  -1.235  0.00  0.00    +0.025 A 
ATOM      4  C   UNL     1       0.591  -6.894  -0.021  0.00  0.00    +0.046 A 
ATOM      5  C   UNL     1       0.488  -6.160   1.155  0.00  0.00    +0.133 A 
ATOM      6  N   UNL     1       0.299  -4.849   1.118  0.00  0.00    -0.231 NA
ATOM      7 CL   UNL     1       0.150  -3.994  -2.727  0.00  0.00    -0.082 Cl
ENDROOT
BRANCH   5   8
ATOM      8  N   UNL     1       0.588  -6.806   2.383  0.00  0.00    -0.268 N 
ATOM      9  H   UNL     1       0.730  -7.765   2.415  0.00  0.00    +0.167 HD
BRANCH   8  10
ATOM     10  N   UNL     1       0.487  -6.091   3.542  0.00  0.00    -0.255 NA
ATOM     11  H   UNL     1      -0.379  -5.574   3.574  0.00  0.00    +0.140 HD
ATOM     12  H   UNL     1       0.579  -6.692   4.347  0.00  0.00    +0.140 HD
ENDBRANCH   8  10
ENDBRANCH   5   8
BRANCH   1  13
ATOM     13  C   UNL     1      -0.028  -2.708  -0.014  0.00  0.00    +0.286 C 
BRANCH  13  14
ATOM     14  O   UNL     1       1.235  -2.039  -0.022  0.00  0.00    -0.486 OA
BRANCH  14  19
ATOM     15  C   UNL     1      -0.017   1.377   0.010  0.00  0.00    +0.006 A 
ATOM     16  C   UNL     1       1.171   2.086   0.002  0.00  0.00    +0.033 A 
ATOM     17  C   UNL     1       2.379   1.415  -0.013  0.00  0.00    +0.130 A 
ATOM     18  C   UNL     1       2.403   0.033  -0.021  0.00  0.00    +0.078 A 
ATOM     19  C   UNL     1       1.214  -0.680  -0.014  0.00  0.00    +0.123 A 
ATOM     20  C   UNL     1       0.002  -0.004   0.002  0.00  0.00    +0.046 A 
BRANCH  17  21
ATOM     21  N   UNL     1       3.648   2.176  -0.021  0.00  0.00    +0.057 N 
ATOM     22  O   UNL     1       3.628   3.385  -0.014  0.00  0.00    -0.126 OA
ATOM     23  O   UNL     1       4.705   1.590  -0.034  0.00  0.00    -0.126 OA
ENDBRANCH  17  21
ENDBRANCH  14  19
ENDBRANCH  13  14
ENDBRANCH   1  13
TORSDOF 6
