REMARK  Name = ZINC34954806
REMARK  10 active torsions:
REMARK  status: ('A' for Active; 'I' for Inactive)
REMARK    1  A    between atoms: C_1  and  C_2
REMARK    2  A    between atoms: C_2  and  C_3
REMARK    3  A    between atoms: C_2  and  N_4
REMARK    4  A    between atoms: C_11  and  C_23
REMARK    5  A    between atoms: C_13  and  C_19
REMARK    6  A    between atoms: C_13  and  C_21
REMARK    7  A    between atoms: C_14  and  N_18
REMARK    8  A    between atoms: C_15  and  C_16
REMARK    9  A    between atoms: C_23  and  C_24
REMARK   10  A    between atoms: C_24  and  C_25
REMARK                            x       y       z     vdW  Elec       q    Type
REMARK                         _______ _______ _______ _____ _____    ______ ____
ROOT
ATOM      1  N   UNL     1      -1.871  -0.826   0.454  0.00  0.00    -0.296 NA
ATOM      2  C   UNL     1      -2.783  -0.743   1.609  0.00  0.00    +0.112 C 
ATOM      3  C   UNL     1      -4.130  -1.256   1.164  0.00  0.00    -0.007 C 
ATOM      4  C   UNL     1      -4.204  -2.218   0.263  0.00  0.00    -0.027 C 
ATOM      5  C   UNL     1      -2.991  -2.885  -0.322  0.00  0.00    +0.040 C 
ATOM      6  C   UNL     1      -1.686  -2.224   0.056  0.00  0.00    +0.093 C 
ATOM      7  C   UNL     1      -3.179  -2.966  -1.838  0.00  0.00    +0.038 C 
ATOM      8  C   UNL     1      -4.390  -3.850  -2.140  0.00  0.00    +0.184 C 
ATOM      9  C   UNL     1      -5.594  -3.434  -1.350  0.00  0.00    +0.054 C 
ATOM     10  C   UNL     1      -5.528  -2.683  -0.220  0.00  0.00    +0.074 C 
ENDROOT
BRANCH   1  12
ATOM     11  C   UNL     1      -0.803   1.297   1.045  0.00  0.00    +0.024 C 
ATOM     12  C   UNL     1      -0.582  -0.189   0.755  0.00  0.00    +0.051 C 
ATOM     13  C   UNL     1       0.045  -0.860   1.978  0.00  0.00    +0.024 C 
ENDBRANCH   1  12
BRANCH   9  14
ATOM     14  N   UNL     1      -6.825  -3.831  -1.791  0.00  0.00    -0.358 N 
ATOM     15  H   UNL     1      -6.902  -4.368  -2.595  0.00  0.00    +0.142 HD
ATOM     16  H   UNL     1      -7.622  -3.577  -1.299  0.00  0.00    +0.142 HD
ENDBRANCH   9  14
BRANCH  10  17
ATOM     17  C   UNL     1      -6.721  -2.345   0.496  0.00  0.00    +0.101 C 
ATOM     18  N   UNL     1      -7.667  -2.077   1.065  0.00  0.00    -0.191 NA
ENDBRANCH  10  17
BRANCH   8  19
ATOM     19  C   UNL     1      -4.704  -3.759  -3.575  0.00  0.00    +0.091 C 
ATOM     20  N   UNL     1      -4.946  -3.689  -4.683  0.00  0.00    -0.195 NA
ENDBRANCH   8  19
BRANCH   8  21
ATOM     21  C   UNL     1      -4.059  -5.246  -1.811  0.00  0.00    +0.091 C 
ATOM     22  N   UNL     1      -3.804  -6.323  -1.557  0.00  0.00    -0.195 NA
ENDBRANCH   8  21
BRANCH   7  23
ATOM     23  C   UNL     1      -3.411  -1.563  -2.402  0.00  0.00    +0.012 C 
BRANCH  23  24
ATOM     24  C   UNL     1      -2.085  -0.802  -2.437  0.00  0.00    +0.035 C 
BRANCH  24  25
ATOM     25  C   UNL     1      -2.286   0.526  -3.120  0.00  0.00    -0.047 A 
ATOM     26  C   UNL     1      -2.122   0.631  -4.489  0.00  0.00    +0.003 A 
ATOM     27  C   UNL     1      -2.307   1.849  -5.115  0.00  0.00    +0.000 A 
ATOM     28  C   UNL     1      -2.655   2.963  -4.374  0.00  0.00    +0.000 A 
ATOM     29  C   UNL     1      -2.820   2.858  -3.005  0.00  0.00    +0.000 A 
ATOM     30  C   UNL     1      -2.639   1.639  -2.379  0.00  0.00    +0.003 A 
ENDBRANCH  24  25
ENDBRANCH  23  24
ENDBRANCH   7  23
TORSDOF 8
