REMARK  Name = ZINC20569064
REMARK  9 active torsions:
REMARK  status: ('A' for Active; 'I' for Inactive)
REMARK    1  A    between atoms: C_1  and  C_2
REMARK    2  A    between atoms: C_3  and  C_23
REMARK    3  A    between atoms: N_19  and  C_20
REMARK    4  A    between atoms: C_20  and  C_21
REMARK    5  A    between atoms: C_23  and  O_25
REMARK    6  A    between atoms: O_25  and  C_26
REMARK    7  A    between atoms: C_26  and  C_27
REMARK    8  A    between atoms: C_26  and  C_28
REMARK    9  A    between atoms: C_26  and  C_29
REMARK                            x       y       z     vdW  Elec       q    Type
REMARK                         _______ _______ _______ _____ _____    ______ ____
ROOT
ATOM      1  C   UNL     1      -1.770   4.453   0.043  0.00  0.00    +0.061 C 
ATOM      2  C   UNL     1      -0.765   3.331   0.027  0.00  0.00    +0.022 C 
ATOM      3  C   UNL     1       0.571   3.516   0.015  0.00  0.00    +0.079 C 
ATOM      4  C   UNL     1       1.175   2.135   0.002  0.00  0.00    +0.151 C 
ATOM      5  C   UNL     1       2.035   1.921  -1.210  0.00  0.00    -0.011 A 
ATOM      6  C   UNL     1       1.793   1.984  -2.564  0.00  0.00    +0.006 A 
ATOM      7  C   UNL     1       2.814   1.731  -3.463  0.00  0.00    +0.000 A 
ATOM      8  C   UNL     1       4.081   1.413  -3.006  0.00  0.00    +0.001 A 
ATOM      9  C   UNL     1       4.335   1.346  -1.653  0.00  0.00    +0.012 A 
ATOM     10  C   UNL     1       3.311   1.600  -0.736  0.00  0.00    +0.024 A 
ATOM     11  C   UNL     1       3.295   1.599   0.740  0.00  0.00    +0.162 A 
ATOM     12  C   UNL     1       2.056   1.909   1.198  0.00  0.00    +0.113 A 
ATOM     13  N   UNL     1       2.099   1.893   2.539  0.00  0.00    -0.198 NA
ATOM     14  C   UNL     1       3.317   1.586   2.920  0.00  0.00    +0.286 A 
ATOM     15  O   UNL     1       4.077   1.400   1.830  0.00  0.00    -0.424 OA
ATOM     16  N   UNL     1       3.744   1.473   4.226  0.00  0.00    -0.313 N 
ATOM     17  C   UNL     1      -0.014   1.208   0.009  0.00  0.00    +0.241 C 
ATOM     18  O   UNL     1       0.002  -0.004   0.002  0.00  0.00    -0.273 OA
ATOM     19  N   UNL     1      -1.101   2.008   0.017  0.00  0.00    -0.270 N 
ATOM     20  H   UNL     1       4.791   1.210   4.441  0.00  0.00    +0.147 HD
ATOM     21  H   UNL     1       3.039   1.646   5.053  0.00  0.00    +0.147 HD
ENDROOT
BRANCH   3  22
ATOM     22  C   UNL     1       1.262   4.752   0.016  0.00  0.00    +0.339 C 
ATOM     23  O   UNL     1       0.639   5.797   0.028  0.00  0.00    -0.245 OA
BRANCH  22  24
ATOM     24  O   UNL     1       2.611   4.770   0.004  0.00  0.00    -0.456 OA
BRANCH  24  25
ATOM     25  C   UNL     1       3.242   6.052   0.006  0.00  0.00    +0.106 C 
ATOM     26  C   UNL     1       2.832   6.821   1.263  0.00  0.00    +0.055 C 
ATOM     27  C   UNL     1       4.761   5.872  -0.009  0.00  0.00    +0.055 C 
ATOM     28  C   UNL     1       2.809   6.835  -1.235  0.00  0.00    +0.055 C 
ENDBRANCH  24  25
ENDBRANCH  22  24
ENDBRANCH   3  22
BRANCH  19  29
ATOM     29  C   UNL     1      -2.480   1.514   0.020  0.00  0.00    +0.140 C 
BRANCH  29  30
ATOM     30  C   UNL     1      -2.948   1.337   1.442  0.00  0.00    -0.015 C 
ATOM     31  C   UNL     1      -4.043   1.930   1.849  0.00  0.00    +0.005 C 
ENDBRANCH  29  30
ENDBRANCH  19  29
TORSDOF 5
