REMARK  Name = ZINC36841869
REMARK  13 active torsions:
REMARK  status: ('A' for Active; 'I' for Inactive)
REMARK    1  A    between atoms: C_1  and  C_2
REMARK    2  A    between atoms: C_2  and  C_3
REMARK    3  A    between atoms: C_3  and  C_4
REMARK    4  A    between atoms: C_4  and  N_5
REMARK    5  A    between atoms: C_6  and  N_36
REMARK    6  A    between atoms: C_7  and  N_14
REMARK    7  A    between atoms: N_14  and  C_15
REMARK    8  A    between atoms: C_15  and  C_16
REMARK    9  A    between atoms: C_22  and  C_24
REMARK   10  A    between atoms: C_24  and  C_26
REMARK   11  A    between atoms: C_24  and  O_27
REMARK   12  A    between atoms: O_27  and  C_28
REMARK   13  A    between atoms: C_33  and  C_34
REMARK                            x       y       z     vdW  Elec       q    Type
REMARK                         _______ _______ _______ _____ _____    ______ ____
ROOT
ATOM      1  N   UNL     1      -5.377  -3.585   2.435  0.00  0.00    -0.257 N 
ATOM      2  C   UNL     1      -4.782  -3.256   3.601  0.00  0.00    +0.261 C 
ATOM      3  O   UNL     1      -5.383  -3.386   4.647  0.00  0.00    -0.271 OA
ENDROOT
BRANCH   1   6
ATOM      4  N   UNL     1      -4.509  -2.156  -0.837  0.00  0.00    -0.280 N 
ATOM      5  C   UNL     1      -5.175  -2.370   0.348  0.00  0.00    +0.127 A 
ATOM      6  C   UNL     1      -4.716  -3.342   1.213  0.00  0.00    +0.140 A 
ATOM      7  C   UNL     1      -3.578  -4.088   0.854  0.00  0.00    +0.277 A 
ATOM      8  O   UNL     1      -3.151  -4.954   1.599  0.00  0.00    -0.266 OA
ATOM      9  N   UNL     1      -2.962  -3.840  -0.318  0.00  0.00    -0.273 N 
ATOM     10  H   UNL     1      -2.178  -4.353  -0.567  0.00  0.00    +0.173 HD
ATOM     11  C   UNL     1      -3.426  -2.891  -1.151  0.00  0.00    +0.331 A 
ATOM     12  O   UNL     1      -2.855  -2.691  -2.205  0.00  0.00    -0.246 OA
BRANCH   5  13
ATOM     13  N   UNL     1      -6.283  -1.622   0.667  0.00  0.00    -0.343 N 
ATOM     14  H   UNL     1      -6.559  -0.894   0.089  0.00  0.00    +0.144 HD
ATOM     15  H   UNL     1      -6.789  -1.824   1.469  0.00  0.00    +0.144 HD
ENDBRANCH   5  13
BRANCH   4  16
ATOM     16  C   UNL     1      -4.984  -1.127  -1.764  0.00  0.00    +0.128 C 
BRANCH  16  17
ATOM     17  C   UNL     1      -5.998  -1.741  -2.732  0.00  0.00    +0.021 C 
BRANCH  17  19
ATOM     18  C   UNL     1      -7.508  -1.280  -4.668  0.00  0.00    +0.004 C 
ATOM     19  C   UNL     1      -6.494  -0.666  -3.701  0.00  0.00    -0.002 C 
ENDBRANCH  17  19
ENDBRANCH  16  17
ENDBRANCH   4  16
ENDBRANCH   1   6
BRANCH   2  20
ATOM     20  C   UNL     1      -3.371  -2.727   3.603  0.00  0.00    +0.256 C 
ATOM     21  C   UNL     1      -3.351  -1.322   2.998  0.00  0.00    +0.062 C 
BRANCH  20  22
ATOM     22  O   UNL     1      -2.884  -2.675   4.946  0.00  0.00    -0.480 OA
BRANCH  22  23
ATOM     23  C   UNL     1      -1.537  -2.734   5.117  0.00  0.00    +0.125 A 
ATOM     24  C   UNL     1      -0.696  -2.725   4.013  0.00  0.00    +0.047 A 
ATOM     25  C   UNL     1       0.673  -2.786   4.189  0.00  0.00    +0.023 A 
ATOM     26  C   UNL     1       1.206  -2.856   5.464  0.00  0.00    +0.041 A 
ATOM     27  C   UNL     1       0.368  -2.866   6.566  0.00  0.00    +0.027 A 
ATOM     28  C   UNL     1      -1.001  -2.799   6.394  0.00  0.00    -0.007 A 
ATOM     29  C   UNL     1      -1.912  -2.802   7.595  0.00  0.00    +0.047 C 
ATOM     30 CL   UNL     1       2.926  -2.933   5.682  0.00  0.00    -0.084 Cl
ENDBRANCH  22  23
ENDBRANCH  20  22
ENDBRANCH   2  20
BRANCH   1  31
ATOM     31  C   UNL     1      -6.710  -4.193   2.440  0.00  0.00    +0.149 C 
BRANCH  31  32
ATOM     32  C   UNL     1      -6.581  -5.683   2.625  0.00  0.00    -0.030 A 
ATOM     33  C   UNL     1      -6.350  -6.498   1.532  0.00  0.00    +0.005 A 
ATOM     34  C   UNL     1      -6.231  -7.865   1.702  0.00  0.00    +0.000 A 
ATOM     35  C   UNL     1      -6.344  -8.417   2.965  0.00  0.00    +0.000 A 
ATOM     36  C   UNL     1      -6.574  -7.602   4.058  0.00  0.00    +0.000 A 
ATOM     37  C   UNL     1      -6.688  -6.235   3.888  0.00  0.00    +0.005 A 
ENDBRANCH  31  32
ENDBRANCH   1  31
TORSDOF 10
