REMARK  Name = ZINC39943995
REMARK  12 active torsions:
REMARK  status: ('A' for Active; 'I' for Inactive)
REMARK    1  A    between atoms: C_1  and  C_2
REMARK    2  A    between atoms: C_4  and  C_12
REMARK    3  A    between atoms: C_12  and  C_14
REMARK    4  A    between atoms: C_14  and  C_16
REMARK    5  A    between atoms: C_14  and  O_17
REMARK    6  A    between atoms: O_17  and  C_18
REMARK    7  A    between atoms: C_18  and  C_20
REMARK    8  A    between atoms: C_20  and  C_21
REMARK    9  A    between atoms: C_21  and  N_22
REMARK   10  A    between atoms: N_22  and  S_23
REMARK   11  A    between atoms: S_23  and  C_26
REMARK   12  A    between atoms: C_30  and  C_32
REMARK                            x       y       z     vdW  Elec       q    Type
REMARK                         _______ _______ _______ _____ _____    ______ ____
ROOT
ATOM      1  C   UNL     1       0.765  -1.771  -5.814  0.00  0.00    +0.309 C 
ATOM      2  O   UNL     1       1.581  -2.627  -5.567  0.00  0.00    -0.251 OA
ENDROOT
BRANCH   1   3
ATOM      3  O   UNL     1       0.502  -0.814  -4.910  0.00  0.00    -0.454 OA
BRANCH   3   4
ATOM      4  C   UNL     1       1.223  -0.869  -3.678  0.00  0.00    +0.244 C 
ATOM      5  C   UNL     1       2.518  -0.065  -3.809  0.00  0.00    +0.061 C 
BRANCH   4   6
ATOM      6  C   UNL     1       0.379  -0.286  -2.575  0.00  0.00    +0.202 C 
ATOM      7  O   UNL     1      -0.602   0.376  -2.847  0.00  0.00    -0.288 OA
BRANCH   6  10
ATOM      8  C   UNL     1      -0.019   1.526   0.010  0.00  0.00    +0.035 C 
ATOM      9  C   UNL     1       0.002  -0.004   0.002  0.00  0.00    +0.111 C 
ATOM     10  C   UNL     1       0.728  -0.508  -1.226  0.00  0.00    +0.030 C 
ATOM     11  C   UNL     1       1.805  -1.234  -0.750  0.00  0.00    +0.007 A 
ATOM     12  C   UNL     1       2.845  -1.946  -1.391  0.00  0.00    +0.010 A 
ATOM     13  C   UNL     1       3.789  -2.580  -0.660  0.00  0.00    +0.001 A 
ATOM     14  C   UNL     1       3.790  -2.566   0.744  0.00  0.00    +0.002 A 
ATOM     15  C   UNL     1       2.842  -1.915   1.453  0.00  0.00    +0.026 A 
ATOM     16  C   UNL     1       1.776  -1.199   0.733  0.00  0.00    +0.043 A 
ATOM     17  N   UNL     1       0.756  -0.505   1.155  0.00  0.00    -0.377 N 
ATOM     18  H   UNL     1       0.532  -0.344   2.085  0.00  0.00    +0.160 HD
ENDBRANCH   6  10
ENDBRANCH   4   6
ENDBRANCH   3   4
ENDBRANCH   1   3
BRANCH   1  19
ATOM     19  C   UNL     1       0.043  -1.778  -7.137  0.00  0.00    +0.137 C 
BRANCH  19  20
ATOM     20  C   UNL     1       0.525  -2.964  -7.975  0.00  0.00    +0.117 C 
BRANCH  20  21
ATOM     21  N   UNL     1      -0.177  -2.971  -9.260  0.00  0.00    -0.189 NA
ATOM     22  H   UNL     1      -0.974  -2.431  -9.381  0.00  0.00    +0.148 HD
BRANCH  21  23
ATOM     23  S   UNL     1       0.390  -3.900 -10.509  0.00  0.00    +0.058 S 
ATOM     24  O   UNL     1      -0.509  -3.714 -11.594  0.00  0.00    -0.153 OA
ATOM     25  O   UNL     1       1.781  -3.629 -10.617  0.00  0.00    -0.153 OA
BRANCH  23  26
ATOM     26  C   UNL     1       0.242  -5.584 -10.014  0.00  0.00    +0.106 A 
ATOM     27  C   UNL     1       1.282  -6.202  -9.345  0.00  0.00    +0.028 A 
ATOM     28  C   UNL     1       1.166  -7.524  -8.957  0.00  0.00    +0.002 A 
ATOM     29  C   UNL     1       0.009  -8.227  -9.237  0.00  0.00    +0.012 A 
ATOM     30  C   UNL     1      -1.031  -7.609  -9.905  0.00  0.00    +0.057 A 
ATOM     31  C   UNL     1      -0.917  -6.286 -10.290  0.00  0.00    +0.041 A 
BRANCH  30  32
ATOM     32  C   UNL     1      -2.292  -8.376 -10.211  0.00  0.00    +0.417 C 
ATOM     33  F   UNL     1      -2.173  -9.682  -9.724  0.00  0.00    -0.166 F 
ATOM     34  F   UNL     1      -3.381  -7.747  -9.597  0.00  0.00    -0.166 F 
ATOM     35  F   UNL     1      -2.493  -8.411 -11.595  0.00  0.00    -0.166 F 
ENDBRANCH  30  32
ENDBRANCH  23  26
ENDBRANCH  21  23
ENDBRANCH  20  21
ENDBRANCH  19  20
ENDBRANCH   1  19
TORSDOF 10
