REMARK  Name = ZINC20406603
REMARK  4 active torsions:
REMARK  status: ('A' for Active; 'I' for Inactive)
REMARK    1  A    between atoms: C_1  and  C_2
REMARK    2  A    between atoms: C_9  and  N_20
REMARK    3  A    between atoms: C_10  and  C_18
REMARK    4  A    between atoms: C_15  and  C_17
REMARK                            x       y       z     vdW  Elec       q    Type
REMARK                         _______ _______ _______ _____ _____    ______ ____
ROOT
ATOM      1  C   UNL     1      -0.162   1.135   0.049  0.00  0.00    +0.068 C 
ATOM      2  C   UNL     1      -0.437  -0.318  -0.242  0.00  0.00    +0.068 A 
ATOM      3  C   UNL     1      -0.562  -0.886  -1.502  0.00  0.00    +0.050 A 
ATOM      4  C   UNL     1      -0.808  -2.224  -1.340  0.00  0.00    +0.223 A 
ATOM      5  N   UNL     1      -0.835  -2.474  -0.022  0.00  0.00    -0.246 N 
ATOM      6  H   UNL     1      -0.989  -3.337   0.393  0.00  0.00    +0.192 HD
ATOM      7  N   UNL     1      -0.595  -1.266   0.651  0.00  0.00    -0.176 NA
ATOM      8  O   UNL     1      -0.979  -3.066  -2.389  0.00  0.00    -0.423 OA
ATOM      9  C   UNL     1      -0.642  -2.626  -3.618  0.00  0.00    +0.200 C 
ATOM     10  C   UNL     1      -0.389  -1.327  -3.905  0.00  0.00    +0.099 C 
ATOM     11  C   UNL     1      -0.465  -0.253  -2.859  0.00  0.00    +0.070 C 
ATOM     12  C   UNL     1      -1.680   0.660  -3.115  0.00  0.00    +0.048 C 
ATOM     13  C   UNL     1      -1.102   2.063  -2.788  0.00  0.00    +0.161 C 
ATOM     14  O   UNL     1       0.258   1.990  -3.271  0.00  0.00    -0.376 OA
ATOM     15  C   UNL     1       0.751   0.678  -2.942  0.00  0.00    +0.131 C 
ATOM     16  C   UNL     1       1.707   0.192  -4.033  0.00  0.00    +0.039 C 
ENDROOT
BRANCH   9  17
ATOM     17  N   UNL     1      -0.551  -3.545  -4.634  0.00  0.00    -0.328 N 
ATOM     18  H   UNL     1      -0.727  -4.482  -4.457  0.00  0.00    +0.145 HD
ATOM     19  H   UNL     1      -0.310  -3.257  -5.528  0.00  0.00    +0.145 HD
ENDBRANCH   9  17
BRANCH  10  20
ATOM     20  C   UNL     1      -0.037  -0.967  -5.246  0.00  0.00    +0.101 C 
ATOM     21  N   UNL     1       0.242  -0.681  -6.310  0.00  0.00    -0.191 NA
ENDBRANCH  10  20
TORSDOF 2
