REMARK  Name = ZINC36599485
REMARK  13 active torsions:
REMARK  status: ('A' for Active; 'I' for Inactive)
REMARK    1  A    between atoms: C_1  and  C_2
REMARK    2  A    between atoms: C_5  and  C_7
REMARK    3  A    between atoms: C_7  and  N_8
REMARK    4  A    between atoms: N_8  and  C_9
REMARK    5  A    between atoms: C_9  and  C_11
REMARK    6  A    between atoms: C_9  and  C_16
REMARK    7  A    between atoms: N_18  and  C_19
REMARK    8  A    between atoms: C_19  and  C_20
REMARK    9  A    between atoms: C_19  and  C_21
REMARK   10  A    between atoms: C_19  and  C_22
REMARK   11  A    between atoms: C_23  and  C_25
REMARK   12  A    between atoms: C_26  and  C_27
REMARK   13  A    between atoms: C_26  and  C_28
REMARK                            x       y       z     vdW  Elec       q    Type
REMARK                         _______ _______ _______ _____ _____    ______ ____
ROOT
ATOM      1  N   UNL     1       1.983  -3.620  -1.407  0.00  0.00    -0.273 N 
ATOM      2  C   UNL     1       1.209  -4.521  -2.043  0.00  0.00    +0.241 C 
ATOM      3  O   UNL     1       1.457  -4.832  -3.192  0.00  0.00    -0.271 OA
ENDROOT
BRANCH   2   4
ATOM      4  C   UNL     1       0.065  -5.129  -1.347  0.00  0.00    +0.066 C 
ATOM      5  C   UNL     1      -0.699  -6.019  -1.975  0.00  0.00    -0.071 C 
ATOM      6  C   UNL     1      -0.392  -6.404  -3.399  0.00  0.00    +0.039 C 
ATOM      7  C   UNL     1      -1.872  -6.642  -1.262  0.00  0.00    +0.039 C 
ENDBRANCH   2   4
BRANCH   1   8
ATOM      8  C   UNL     1       1.684  -3.245  -0.023  0.00  0.00    +0.183 C 
BRANCH   8  13
ATOM      9  C   UNL     1      -0.018   1.503   0.010  0.00  0.00    +0.086 C 
ATOM     10  C   UNL     1       0.002  -0.004   0.002  0.00  0.00    +0.102 A 
ATOM     11  C   UNL     1      -1.078  -0.805   0.003  0.00  0.00    +0.045 A 
ATOM     12  C   UNL     1      -0.601  -2.136  -0.007  0.00  0.00    +0.046 A 
ATOM     13  C   UNL     1       0.742  -2.069  -0.013  0.00  0.00    +0.122 A 
ATOM     14  O   UNL     1       1.102  -0.775  -0.013  0.00  0.00    -0.463 OA
ENDBRANCH   8  13
ENDBRANCH   1   8
BRANCH   1  15
ATOM     15  C   UNL     1       3.123  -3.014  -2.100  0.00  0.00    +0.229 C 
BRANCH  15  16
ATOM     16  C   UNL     1       2.635  -2.278  -3.321  0.00  0.00    +0.134 A 
ATOM     17  C   UNL     1       3.092  -1.091  -3.759  0.00  0.00    +0.047 A 
ATOM     18  C   UNL     1       2.360  -0.776  -4.927  0.00  0.00    +0.041 A 
ATOM     19  C   UNL     1       1.499  -1.789  -5.132  0.00  0.00    +0.195 A 
ATOM     20  O   UNL     1       1.674  -2.699  -4.160  0.00  0.00    -0.465 OA
ENDBRANCH  15  16
BRANCH  15  21
ATOM     21  C   UNL     1       4.089  -4.093  -2.516  0.00  0.00    +0.242 C 
ATOM     22  O   UNL     1       3.848  -5.254  -2.260  0.00  0.00    -0.273 OA
ATOM     23  N   UNL     1       5.219  -3.769  -3.174  0.00  0.00    -0.309 N 
ATOM     24  H   UNL     1       5.411  -2.840  -3.379  0.00  0.00    +0.149 HD
BRANCH  23  25
ATOM     25  C   UNL     1       6.158  -4.818  -3.579  0.00  0.00    +0.026 C 
ATOM     26  C   UNL     1       5.453  -5.799  -4.518  0.00  0.00    +0.031 C 
ATOM     27  C   UNL     1       7.349  -4.185  -4.302  0.00  0.00    +0.031 C 
ATOM     28  C   UNL     1       6.653  -5.565  -2.339  0.00  0.00    +0.031 C 
ENDBRANCH  23  25
ENDBRANCH  15  21
ENDBRANCH   1  15
TORSDOF 7
