REMARK  Name = ZINC39859525
REMARK  11 active torsions:
REMARK  status: ('A' for Active; 'I' for Inactive)
REMARK    1  A    between atoms: C_1  and  C_2
REMARK    2  A    between atoms: C_7  and  C_8
REMARK    3  A    between atoms: N_10  and  C_11
REMARK    4  A    between atoms: C_11  and  C_12
REMARK    5  A    between atoms: C_11  and  N_22
REMARK    6  A    between atoms: C_15  and  O_18
REMARK    7  A    between atoms: O_18  and  C_19
REMARK    8  A    between atoms: C_19  and  C_20
REMARK    9  A    between atoms: C_19  and  C_21
REMARK   10  A    between atoms: C_23  and  C_25
REMARK   11  A    between atoms: C_30  and  C_31
REMARK                            x       y       z     vdW  Elec       q    Type
REMARK                         _______ _______ _______ _____ _____    ______ ____
ROOT
ATOM      1  C   UNL     1      -0.180   0.635   5.422  0.00  0.00    +0.192 C 
ENDROOT
BRANCH   1   2
ATOM      2  C   UNL     1      -0.472  -0.388   6.489  0.00  0.00    -0.009 A 
ATOM      3  C   UNL     1      -1.629  -1.142   6.425  0.00  0.00    +0.010 A 
ATOM      4  C   UNL     1      -1.899  -2.080   7.402  0.00  0.00    +0.046 A 
ATOM      5  C   UNL     1      -1.008  -2.266   8.449  0.00  0.00    +0.121 A 
ATOM      6  C   UNL     1       0.153  -1.508   8.511  0.00  0.00    +0.046 A 
ATOM      7  C   UNL     1       0.421  -0.575   7.528  0.00  0.00    +0.010 A 
BRANCH   5   8
ATOM      8  O   UNL     1      -1.271  -3.188   9.412  0.00  0.00    -0.489 OA
BRANCH   8   9
ATOM      9  C   UNL     1      -2.413  -4.024   9.214  0.00  0.00    +0.167 C 
ATOM     10  C   UNL     1      -2.256  -5.304  10.038  0.00  0.00    +0.051 C 
ATOM     11  C   UNL     1      -3.673  -3.281   9.661  0.00  0.00    +0.051 C 
ENDBRANCH   8   9
ENDBRANCH   5   8
ENDBRANCH   1   2
BRANCH   1  14
ATOM     12  C   UNL     1      -1.463   1.088   3.400  0.00  0.00    +0.246 C 
ATOM     13  O   UNL     1      -1.580   2.240   3.768  0.00  0.00    -0.270 OA
ATOM     14  N   UNL     1      -0.780   0.205   4.157  0.00  0.00    -0.289 N 
ATOM     15  H   UNL     1      -0.686  -0.714   3.863  0.00  0.00    +0.151 HD
BRANCH  12  22
ATOM     16  C   UNL     1      -3.030   2.962   1.850  0.00  0.00    +0.044 C 
ATOM     17  C   UNL     1      -2.826   1.549   1.367  0.00  0.00    -0.038 A 
ATOM     18  C   UNL     1      -3.384   1.139   0.173  0.00  0.00    +0.004 A 
ATOM     19  C   UNL     1      -3.198  -0.157  -0.272  0.00  0.00    +0.000 A 
ATOM     20  C   UNL     1      -2.451  -1.051   0.476  0.00  0.00    +0.001 A 
ATOM     21  C   UNL     1      -1.888  -0.654   1.671  0.00  0.00    +0.013 A 
ATOM     22  C   UNL     1      -2.068   0.654   2.123  0.00  0.00    +0.040 A 
ENDBRANCH  12  22
ENDBRANCH   1  14
BRANCH   1  23
ATOM     23  N   UNL     1       1.269   0.767   5.255  0.00  0.00    -0.289 N 
ATOM     24  C   UNL     1       1.828   1.990   5.164  0.00  0.00    +0.246 C 
ATOM     25  O   UNL     1       1.130   2.984   5.221  0.00  0.00    -0.270 OA
ATOM     26  H   UNL     1       1.826  -0.025   5.210  0.00  0.00    +0.151 HD
BRANCH  24  27
ATOM     27  C   UNL     1       3.291   2.124   4.996  0.00  0.00    +0.040 A 
ATOM     28  C   UNL     1       4.110   0.995   5.061  0.00  0.00    +0.013 A 
ATOM     29  C   UNL     1       5.474   1.127   4.903  0.00  0.00    +0.001 A 
ATOM     30  C   UNL     1       6.031   2.374   4.681  0.00  0.00    +0.000 A 
ATOM     31  C   UNL     1       5.225   3.496   4.616  0.00  0.00    +0.004 A 
ATOM     32  C   UNL     1       3.858   3.378   4.766  0.00  0.00    -0.038 A 
ATOM     33  C   UNL     1       2.982   4.601   4.688  0.00  0.00    +0.044 C 
ENDBRANCH  24  27
ENDBRANCH   1  23
TORSDOF 7
