REMARK  Name = ZINC08695562
REMARK  9 active torsions:
REMARK  status: ('A' for Active; 'I' for Inactive)
REMARK    1  A    between atoms: C_1  and  C_2
REMARK    2  A    between atoms: C_5  and  N_8
REMARK    3  A    between atoms: C_12  and  C_13
REMARK    4  A    between atoms: C_15  and  C_35
REMARK    5  A    between atoms: N_16  and  C_19
REMARK    6  A    between atoms: C_17  and  C_18
REMARK    7  A    between atoms: C_22  and  S_25
REMARK    8  A    between atoms: S_25  and  C_26
REMARK    9  A    between atoms: C_29  and  N_32
REMARK                            x       y       z     vdW  Elec       q    Type
REMARK                         _______ _______ _______ _____ _____    ______ ____
ROOT
ATOM      1  C   UNL     1       2.062   1.156   0.650  0.00  0.00    -0.003 A 
ATOM      2  C   UNL     1       1.395   0.311  -0.352  0.00  0.00    +0.031 A 
ATOM      3  C   UNL     1       0.077   0.528  -0.215  0.00  0.00    +0.022 A 
ATOM      4  N   UNL     1      -0.128   1.437   0.787  0.00  0.00    -0.317 N 
ATOM      5  C   UNL     1       1.046   1.825   1.317  0.00  0.00    +0.028 A 
ATOM      6  C   UNL     1       1.227   2.815   2.439  0.00  0.00    +0.064 C 
ATOM      7  C   UNL     1      -1.005  -0.125  -1.036  0.00  0.00    +0.064 C 
ENDROOT
BRANCH   1  12
ATOM      8  N   UNL     1       6.378  -0.964   1.251  0.00  0.00    -0.217 N 
ATOM      9  C   UNL     1       5.694   0.190   1.112  0.00  0.00    +0.262 C 
ATOM     10  O   UNL     1       6.274   1.258   1.057  0.00  0.00    -0.269 OA
ATOM     11  C   UNL     1       4.223   0.122   1.028  0.00  0.00    +0.100 C 
ATOM     12  C   UNL     1       3.454   1.265   0.884  0.00  0.00    +0.028 C 
ATOM     13  C   UNL     1       3.608  -1.216   1.109  0.00  0.00    +0.255 C 
ATOM     14  O   UNL     1       2.400  -1.352   1.053  0.00  0.00    -0.270 OA
ATOM     15  N   UNL     1       4.420  -2.284   1.243  0.00  0.00    -0.263 N 
ATOM     16  C   UNL     1       5.752  -2.147   1.313  0.00  0.00    +0.150 C 
ATOM     17  S   UNL     1       6.703  -3.559   1.490  0.00  0.00    -0.018 S 
ATOM     18  H   UNL     1       4.032  -3.171   1.294  0.00  0.00    +0.157 HD
BRANCH   8  23
ATOM     19  C   UNL     1      12.041  -0.803   1.586  0.00  0.00    +0.044 C 
ATOM     20  C   UNL     1      10.537  -0.846   1.497  0.00  0.00    -0.050 A 
ATOM     21  C   UNL     1       9.918  -0.811   0.262  0.00  0.00    +0.005 A 
ATOM     22  C   UNL     1       8.540  -0.850   0.177  0.00  0.00    +0.024 A 
ATOM     23  C   UNL     1       7.776  -0.924   1.334  0.00  0.00    +0.043 A 
ATOM     24  C   UNL     1       8.401  -0.954   2.574  0.00  0.00    +0.024 A 
ATOM     25  C   UNL     1       9.780  -0.920   2.652  0.00  0.00    +0.005 A 
ENDBRANCH   8  23
ENDBRANCH   1  12
BRANCH   4  26
ATOM     26  C   UNL     1      -1.385   1.903   1.198  0.00  0.00    +0.047 A 
ATOM     27  C   UNL     1      -1.717   3.242   1.032  0.00  0.00    +0.027 A 
ATOM     28  C   UNL     1      -2.956   3.700   1.432  0.00  0.00    +0.017 A 
ATOM     29  C   UNL     1      -3.867   2.824   2.012  0.00  0.00    +0.013 A 
ATOM     30  C   UNL     1      -3.531   1.486   2.183  0.00  0.00    +0.017 A 
ATOM     31  C   UNL     1      -2.294   1.028   1.777  0.00  0.00    +0.027 A 
BRANCH  29  32
ATOM     32  S   UNL     1      -5.445   3.410   2.531  0.00  0.00    -0.089 S 
BRANCH  32  33
ATOM     33  C   UNL     1      -5.361   5.150   2.268  0.00  0.00    +0.013 A 
ATOM     34  C   UNL     1      -4.823   5.977   3.247  0.00  0.00    +0.017 A 
ATOM     35  C   UNL     1      -4.754   7.340   3.035  0.00  0.00    +0.034 A 
ATOM     36  C   UNL     1      -5.230   7.884   1.856  0.00  0.00    +0.126 A 
ATOM     37  C   UNL     1      -5.771   7.064   0.882  0.00  0.00    +0.034 A 
ATOM     38  C   UNL     1      -5.838   5.700   1.084  0.00  0.00    +0.017 A 
BRANCH  36  39
ATOM     39  N   UNL     1      -5.160   9.345   1.636  0.00  0.00    +0.056 N 
ATOM     40  O   UNL     1      -5.578   9.826   0.598  0.00  0.00    -0.126 OA
ATOM     41  O   UNL     1      -4.683  10.068   2.493  0.00  0.00    -0.126 OA
ENDBRANCH  36  39
ENDBRANCH  32  33
ENDBRANCH  29  32
ENDBRANCH   4  26
TORSDOF 6
