REMARK  Name = ZINC03227221
REMARK  11 active torsions:
REMARK  status: ('A' for Active; 'I' for Inactive)
REMARK    1  A    between atoms: C_1  and  N_65
REMARK    2  A    between atoms: C_2  and  N_65
REMARK    3  A    between atoms: C_3  and  C_4
REMARK    4  A    between atoms: C_3  and  N_65
REMARK    5  A    between atoms: C_4  and  N_5
REMARK    6  A    between atoms: N_5  and  C_6
REMARK    7  A    between atoms: C_6  and  C_8
REMARK    8  A    between atoms: C_9  and  C_28
REMARK    9  A    between atoms: C_14  and  C_20
REMARK   10  A    between atoms: C_20  and  O_21
REMARK   11  A    between atoms: O_21  and  C_22
REMARK                            x       y       z     vdW  Elec       q    Type
REMARK                         _______ _______ _______ _____ _____    ______ ____
ROOT
ATOM      1  C   UNL     1       0.190   3.738  -0.067  0.00  0.00    +0.104 A 
ATOM      2  C   UNL     1       0.909   2.521   0.007  0.00  0.00    +0.017 A 
ATOM      3  C   UNL     1      -0.018   1.501   0.010  0.00  0.00    +0.005 A 
ATOM      4  C   UNL     1      -1.249   2.123   0.037  0.00  0.00    +0.141 A 
ATOM      5  N   UNL     1      -1.158   3.447  -0.141  0.00  0.00    -0.211 N 
ATOM      6  N   UNL     1      -2.487   3.850  -0.333  0.00  0.00    -0.148 NA
ATOM      7  C   UNL     1      -3.284   2.816  -0.207  0.00  0.00    +0.170 A 
ATOM      8  N   UNL     1      -2.550   1.719   0.103  0.00  0.00    -0.310 N 
ATOM      9  C   UNL     1      -2.911   0.360   0.558  0.00  0.00    +0.125 C 
ATOM     10  C   UNL     1      -1.945   0.028   1.703  0.00  0.00    +0.022 C 
ATOM     11  C   UNL     1      -0.572  -0.533   1.306  0.00  0.00    +0.006 C 
ATOM     12  C   UNL     1       0.002  -0.004   0.002  0.00  0.00    +0.039 C 
ENDROOT
BRANCH   2  13
ATOM     13  C   UNL     1       2.382   2.371   0.069  0.00  0.00    -0.015 A 
ATOM     14  C   UNL     1       2.984   1.841   1.210  0.00  0.00    +0.008 A 
ATOM     15  C   UNL     1       4.355   1.697   1.260  0.00  0.00    +0.001 A 
ATOM     16  C   UNL     1       5.134   2.091   0.186  0.00  0.00    +0.000 A 
ATOM     17  C   UNL     1       4.543   2.623  -0.946  0.00  0.00    +0.001 A 
ATOM     18  C   UNL     1       3.172   2.765  -1.010  0.00  0.00    +0.008 A 
ENDBRANCH   2  13
BRANCH   1  19
ATOM     19  C   UNL     1       0.755   5.030  -0.065  0.00  0.00    +0.099 C 
ATOM     20  S   UNL     1       2.454   5.221   0.034  0.00  0.00    -0.033 S 
BRANCH  19  21
ATOM     21  N   UNL     1      -0.041   6.115  -0.140  0.00  0.00    -0.338 N 
ATOM     22  H   UNL     1      -1.004   6.006  -0.196  0.00  0.00    +0.147 HD
BRANCH  21  23
ATOM     23  C   UNL     1       0.546   7.457  -0.137  0.00  0.00    +0.083 C 
BRANCH  23  24
ATOM     24  C   UNL     1      -0.569   8.501  -0.231  0.00  0.00    -0.061 C 
BRANCH  24  27
ATOM     25  C   UNL     1       0.816  10.076  -1.442  0.00  0.00    -0.097 C 
ATOM     26  C   UNL     1      -1.018  10.875  -0.078  0.00  0.00    -0.097 C 
ATOM     27  N   UNL     1       0.038   9.849  -0.206  0.00  0.00    +0.377 N 
ATOM     28  H   UNL     1       0.668   9.916   0.602  0.00  0.00    -0.083 HD
ENDBRANCH  24  27
ENDBRANCH  23  24
ENDBRANCH  21  23
ENDBRANCH  19  21
ENDBRANCH   1  19
BRANCH   7  29
ATOM     29  C   UNL     1      -4.780   2.842  -0.381  0.00  0.00    +0.305 C 
BRANCH  29  30
ATOM     30  O   UNL     1      -5.401   3.123   0.875  0.00  0.00    -0.484 OA
BRANCH  30  31
ATOM     31  C   UNL     1      -6.759   3.182   0.893  0.00  0.00    +0.121 A 
ATOM     32  C   UNL     1      -7.478   2.981  -0.276  0.00  0.00    +0.045 A 
ATOM     33  C   UNL     1      -8.858   3.035  -0.254  0.00  0.00    +0.004 A 
ATOM     34  C   UNL     1      -9.522   3.304   0.929  0.00  0.00    +0.000 A 
ATOM     35  C   UNL     1      -8.807   3.511   2.094  0.00  0.00    +0.004 A 
ATOM     36  C   UNL     1      -7.427   3.451   2.079  0.00  0.00    +0.045 A 
ENDBRANCH  30  31
ENDBRANCH  29  30
ENDBRANCH   7  29
TORSDOF 9
