REMARK  Name = ZINC41664729
REMARK  5 active torsions:
REMARK  status: ('A' for Active; 'I' for Inactive)
REMARK    1  A    between atoms: C_1  and  C_2
REMARK    2  A    between atoms: C_3  and  N_17
REMARK    3  A    between atoms: C_4  and  C_16
REMARK    4  A    between atoms: N_5  and  C_7
REMARK    5  A    between atoms: C_7  and  C_8
REMARK                            x       y       z     vdW  Elec       q    Type
REMARK                         _______ _______ _______ _____ _____    ______ ____
ROOT
ATOM      1  C   UNL     1      -2.300   0.094  -0.194  0.00  0.00    +0.069 C 
ATOM      2  C   UNL     1      -0.985  -0.634  -0.093  0.00  0.00    +0.081 A 
ATOM      3  C   UNL     1      -0.071  -0.827  -1.139  0.00  0.00    +0.076 A 
ATOM      4  C   UNL     1       0.984  -1.525  -0.647  0.00  0.00    +0.058 A 
ATOM      5  N   UNL     1       0.740  -1.764   0.669  0.00  0.00    -0.262 N 
ATOM      6  N   UNL     1      -0.497  -1.189   0.987  0.00  0.00    -0.174 NA
ATOM      7  C   UNL     1       2.204  -1.958  -1.419  0.00  0.00    +0.067 C 
ENDROOT
BRANCH   3   8
ATOM      8  N   UNL     1      -0.221  -0.377  -2.464  0.00  0.00    -0.291 N 
ATOM      9  C   UNL     1       0.143   0.925  -2.804  0.00  0.00    +0.208 A 
ATOM     10  C   UNL     1      -0.095   1.438  -4.163  0.00  0.00    +0.295 A 
ATOM     11  O   UNL     1      -0.613   0.731  -5.007  0.00  0.00    -0.264 OA
ATOM     12  N   UNL     1       0.269   2.703  -4.460  0.00  0.00    -0.271 N 
ATOM     13  H   UNL     1       0.118   3.054  -5.352  0.00  0.00    +0.174 HD
ATOM     14  C   UNL     1       0.841   3.478  -3.521  0.00  0.00    +0.343 A 
ATOM     15  O   UNL     1       1.163   4.617  -3.801  0.00  0.00    -0.245 OA
ATOM     16  N   UNL     1       1.061   3.016  -2.277  0.00  0.00    -0.226 N 
ATOM     17  H   UNL     1       1.474   3.596  -1.618  0.00  0.00    +0.194 HD
ATOM     18  N   UNL     1       0.697   1.713  -1.918  0.00  0.00    -0.149 NA
ATOM     19  H   UNL     1      -0.578  -0.974  -3.141  0.00  0.00    +0.154 HD
ENDBRANCH   3   8
BRANCH   5  20
ATOM     20  C   UNL     1       1.617  -2.488   1.591  0.00  0.00    +0.180 C 
BRANCH  20  21
ATOM     21  C   UNL     1       2.565  -1.518   2.249  0.00  0.00    -0.008 A 
ATOM     22  C   UNL     1       3.827  -1.319   1.719  0.00  0.00    +0.009 A 
ATOM     23  C   UNL     1       4.697  -0.430   2.321  0.00  0.00    +0.039 A 
ATOM     24  C   UNL     1       4.306   0.262   3.455  0.00  0.00    +0.125 A 
ATOM     25  C   UNL     1       3.043   0.062   3.985  0.00  0.00    +0.058 A 
ATOM     26  C   UNL     1       2.171  -0.824   3.378  0.00  0.00    +0.049 A 
ATOM     27 CL   UNL     1       0.585  -1.070   4.039  0.00  0.00    -0.083 Cl
ATOM     28  F   UNL     1       5.157   1.130   4.044  0.00  0.00    -0.205 F 
ENDBRANCH  20  21
ENDBRANCH   5  20
TORSDOF 3
