REMARK  Name = ZINC58848163
REMARK  9 active torsions:
REMARK  status: ('A' for Active; 'I' for Inactive)
REMARK    1  A    between atoms: C_1  and  C_2
REMARK    2  A    between atoms: C_7  and  N_8
REMARK    3  A    between atoms: N_8  and  S_9
REMARK    4  A    between atoms: S_9  and  C_12
REMARK    5  A    between atoms: C_25  and  C_28
REMARK    6  A    between atoms: C_32  and  O_36
REMARK    7  A    between atoms: C_33  and  O_34
REMARK    8  A    between atoms: O_34  and  C_35
REMARK    9  A    between atoms: O_36  and  C_37
REMARK                            x       y       z     vdW  Elec       q    Type
REMARK                         _______ _______ _______ _____ _____    ______ ____
ROOT
ATOM      1  C   UNL     1       2.797  -0.880   5.695  0.00  0.00    +0.109 A 
ATOM      2  C   UNL     1       3.222  -2.011   5.022  0.00  0.00    +0.030 A 
ATOM      3  C   UNL     1       4.461  -2.021   4.414  0.00  0.00    +0.025 A 
ATOM      4  C   UNL     1       5.278  -0.897   4.476  0.00  0.00    +0.031 A 
ATOM      5  C   UNL     1       4.849   0.242   5.139  0.00  0.00    -0.018 A 
ATOM      6  C   UNL     1       3.602   0.239   5.749  0.00  0.00    +0.034 A 
ATOM      7  C   UNL     1       5.680   1.478   5.193  0.00  0.00    +0.049 C 
ATOM      8  C   UNL     1       6.339   1.661   6.536  0.00  0.00    -0.023 C 
ATOM      9  C   UNL     1       7.532   2.182   6.388  0.00  0.00    -0.030 C 
ATOM     10  C   UNL     1       7.841   2.416   4.926  0.00  0.00    +0.033 C 
ATOM     11  C   UNL     1       6.826   1.516   4.184  0.00  0.00    +0.029 C 
ATOM     12  C   UNL     1       7.474   0.168   3.946  0.00  0.00    +0.109 C 
ATOM     13  N   UNL     1       6.531  -0.929   3.875  0.00  0.00    -0.336 N 
ATOM     14  H   UNL     1       6.796  -1.735   3.404  0.00  0.00    +0.147 HD
ENDROOT
BRANCH  12  15
ATOM     15  C   UNL     1       8.466  -0.088   5.051  0.00  0.00    +0.018 A 
ATOM     16  C   UNL     1       8.021  -0.404   6.321  0.00  0.00    +0.009 A 
ATOM     17  C   UNL     1       8.928  -0.639   7.337  0.00  0.00    +0.004 A 
ATOM     18  C   UNL     1      10.286  -0.559   7.087  0.00  0.00    +0.049 A 
ATOM     19  C   UNL     1      10.739  -0.242   5.817  0.00  0.00    +0.162 A 
ATOM     20  C   UNL     1       9.825  -0.011   4.793  0.00  0.00    +0.166 A 
BRANCH  20  21
ATOM     21  O   UNL     1      10.265   0.294   3.543  0.00  0.00    -0.491 OA
ATOM     22  C   UNL     1      10.598   1.661   3.288  0.00  0.00    +0.277 C 
ENDBRANCH  20  21
BRANCH  19  23
ATOM     23  O   UNL     1      12.074  -0.162   5.570  0.00  0.00    -0.491 OA
ATOM     24  C   UNL     1      12.953  -0.417   6.667  0.00  0.00    +0.277 C 
ENDBRANCH  19  23
ENDBRANCH  12  15
BRANCH   1  25
ATOM     25  S   UNL     1       1.219  -0.866   6.480  0.00  0.00    +0.072 S 
ATOM     26  O   UNL     1       1.282   0.121   7.501  0.00  0.00    -0.150 OA
ATOM     27  O   UNL     1       0.888  -2.221   6.750  0.00  0.00    -0.150 OA
BRANCH  25  28
ATOM     28  N   UNL     1       0.122  -0.323   5.365  0.00  0.00    -0.216 N 
ATOM     29  H   UNL     1      -0.376   0.492   5.532  0.00  0.00    +0.174 HD
BRANCH  28  36
ATOM     30  C   UNL     1      -0.429   1.140   2.988  0.00  0.00    +0.046 C 
ATOM     31  C   UNL     1      -0.357  -0.366   3.000  0.00  0.00    -0.028 A 
ATOM     32  C   UNL     1      -0.556  -1.076   1.832  0.00  0.00    +0.006 A 
ATOM     33  C   UNL     1      -0.490  -2.457   1.841  0.00  0.00    +0.020 A 
ATOM     34  C   UNL     1      -0.225  -3.132   3.020  0.00  0.00    +0.043 A 
ATOM     35  C   UNL     1      -0.026  -2.427   4.192  0.00  0.00    +0.044 A 
ATOM     36  C   UNL     1      -0.085  -1.039   4.184  0.00  0.00    +0.052 A 
ATOM     37 CL   UNL     1      -0.144  -4.866   3.026  0.00  0.00    -0.083 Cl
ENDBRANCH  28  36
ENDBRANCH  25  28
ENDBRANCH   1  25
TORSDOF 6
