REMARK  Name = ZINC09122837
REMARK  14 active torsions:
REMARK  status: ('A' for Active; 'I' for Inactive)
REMARK    1  A    between atoms: C_1  and  C_2
REMARK    2  A    between atoms: C_2  and  C_3
REMARK    3  A    between atoms: C_2  and  C_4
REMARK    4  A    between atoms: C_2  and  C_5
REMARK    5  A    between atoms: C_8  and  C_11
REMARK    6  A    between atoms: C_14  and  C_15
REMARK    7  A    between atoms: C_14  and  O_24
REMARK    8  A    between atoms: C_18  and  O_22
REMARK    9  A    between atoms: O_22  and  C_23
REMARK   10  A    between atoms: N_29  and  C_30
REMARK   11  A    between atoms: C_30  and  C_31
REMARK   12  A    between atoms: C_31  and  N_64
REMARK   13  A    between atoms: C_32  and  N_64
REMARK   14  A    between atoms: C_33  and  N_64
REMARK                            x       y       z     vdW  Elec       q    Type
REMARK                         _______ _______ _______ _____ _____    ______ ____
ROOT
ATOM      1  C   UNL     1       2.152   0.816  -0.369  0.00  0.00    +0.144 C 
ATOM      2  C   UNL     1       1.346  -0.463  -0.348  0.00  0.00    +0.071 C 
ATOM      3  C   UNL     1       1.802  -1.726  -0.024  0.00  0.00    +0.133 C 
ATOM      4  C   UNL     1       0.042  -0.108  -0.723  0.00  0.00    +0.249 C 
ATOM      5  O   UNL     1      -0.904  -0.869  -0.824  0.00  0.00    -0.282 OA
ATOM      6  C   UNL     1       0.014   1.358  -0.978  0.00  0.00    +0.288 C 
ATOM      7  O   UNL     1      -0.966   1.985  -1.325  0.00  0.00    -0.266 OA
ATOM      8  N   UNL     1       1.233   1.884  -0.772  0.00  0.00    -0.285 N 
ENDROOT
BRANCH   3   9
ATOM      9  C   UNL     1       0.853  -2.843   0.091  0.00  0.00    +0.019 A 
ATOM     10  C   UNL     1      -0.287  -2.718   0.895  0.00  0.00    +0.015 A 
ATOM     11  C   UNL     1      -1.175  -3.764   0.994  0.00  0.00    +0.048 A 
ATOM     12  C   UNL     1      -0.937  -4.949   0.307  0.00  0.00    +0.138 A 
ATOM     13  C   UNL     1       0.196  -5.082  -0.489  0.00  0.00    +0.083 A 
ATOM     14  C   UNL     1       1.088  -4.038  -0.600  0.00  0.00    +0.035 A 
ATOM     15 CL   UNL     1       0.486  -6.564  -1.344  0.00  0.00    -0.080 Cl
BRANCH  12  16
ATOM     16  O   UNL     1      -1.813  -5.980   0.414  0.00  0.00    -0.494 OA
ATOM     17  C   UNL     1      -2.956  -5.778   1.248  0.00  0.00    +0.277 C 
ENDBRANCH  12  16
ENDBRANCH   3   9
BRANCH   1  21
ATOM     18  C   UNL     1       5.343   0.487  -3.190  0.00  0.00    -0.042 A 
ATOM     19  C   UNL     1       5.596   0.334  -1.839  0.00  0.00    +0.004 A 
ATOM     20  C   UNL     1       4.563   0.441  -0.926  0.00  0.00    +0.006 A 
ATOM     21  C   UNL     1       3.277   0.700  -1.364  0.00  0.00    -0.022 A 
ATOM     22  C   UNL     1       3.024   0.847  -2.715  0.00  0.00    +0.006 A 
ATOM     23  C   UNL     1       4.058   0.745  -3.627  0.00  0.00    +0.004 A 
BRANCH  18  25
ATOM     24  C   UNL     1       7.099  -1.019  -4.082  0.00  0.00    +0.015 C 
ATOM     25  C   UNL     1       6.469   0.371  -4.185  0.00  0.00    -0.013 C 
ATOM     26  C   UNL     1       5.923   0.580  -5.599  0.00  0.00    +0.015 C 
ATOM     27  C   UNL     1       7.527   1.435  -3.884  0.00  0.00    +0.015 C 
ENDBRANCH  18  25
ENDBRANCH   1  21
BRANCH   3  28
ATOM     28  O   UNL     1       3.119  -1.934   0.188  0.00  0.00    -0.506 OA
ATOM     29  H   UNL     1       3.273  -2.897   0.411  0.00  0.00    +0.292 HD
ENDBRANCH   3  28
BRANCH   8  30
ATOM     30  C   UNL     1       1.586   3.298  -0.926  0.00  0.00    +0.090 C 
BRANCH  30  31
ATOM     31  C   UNL     1       1.375   4.024   0.404  0.00  0.00    -0.060 C 
BRANCH  31  34
ATOM     32  C   UNL     1       1.319   6.218   1.428  0.00  0.00    -0.097 C 
ATOM     33  C   UNL     1       3.166   5.599  -0.010  0.00  0.00    -0.097 C 
ATOM     34  N   UNL     1       1.715   5.451   0.228  0.00  0.00    +0.377 N 
ATOM     35  H   UNL     1       1.205   5.817  -0.585  0.00  0.00    -0.083 HD
ENDBRANCH  31  34
ENDBRANCH  30  31
ENDBRANCH   8  30
TORSDOF 8
