REMARK  Name = ZINC01510931
REMARK  7 active torsions:
REMARK  status: ('A' for Active; 'I' for Inactive)
REMARK    1  A    between atoms: C_1  and  C_2
REMARK    2  A    between atoms: C_5  and  O_26
REMARK    3  A    between atoms: C_6  and  N_8
REMARK    4  A    between atoms: C_9  and  C_10
REMARK    5  A    between atoms: C_13  and  C_16
REMARK    6  A    between atoms: C_16  and  O_18
REMARK    7  A    between atoms: O_18  and  C_19
REMARK                            x       y       z     vdW  Elec       q    Type
REMARK                         _______ _______ _______ _____ _____    ______ ____
ROOT
ATOM      1  C   UNL     1       1.185   1.778   0.045  0.00  0.00    -0.007 A 
ATOM      2  C   UNL     1      -0.018   1.066   0.008  0.00  0.00    +0.010 A 
ATOM      3  C   UNL     1      -1.217   1.741   0.017  0.00  0.00    +0.015 A 
ATOM      4  C   UNL     1      -1.232   3.138   0.074  0.00  0.00    +0.059 A 
ATOM      5  C   UNL     1      -0.030   3.849   0.110  0.00  0.00    +0.015 A 
ATOM      6  C   UNL     1       1.169   3.175   0.096  0.00  0.00    +0.010 A 
ENDROOT
BRANCH   1   8
ATOM      7  N   UNL     1       3.589   1.719   0.065  0.00  0.00    -0.251 NA
ATOM      8  C   UNL     1       2.469   1.056   0.030  0.00  0.00    +0.119 C 
BRANCH   7  14
ATOM      9  C   UNL     1       6.328  -1.955  -1.654  0.00  0.00    +0.044 C 
ATOM     10  C   UNL     1       6.150  -0.745  -0.773  0.00  0.00    -0.048 A 
ATOM     11  C   UNL     1       7.197  -0.312   0.024  0.00  0.00    +0.007 A 
ATOM     12  C   UNL     1       7.046   0.797   0.835  0.00  0.00    +0.048 A 
ATOM     13  C   UNL     1       5.843   1.483   0.857  0.00  0.00    +0.142 A 
ATOM     14  C   UNL     1       4.780   1.049   0.051  0.00  0.00    +0.105 A 
ATOM     15  C   UNL     1       4.944  -0.076  -0.760  0.00  0.00    +0.034 A 
BRANCH  13  16
ATOM     16  O   UNL     1       5.693   2.572   1.655  0.00  0.00    -0.505 OA
ATOM     17  H   UNL     1       5.365   2.368   2.541  0.00  0.00    +0.292 HD
ENDBRANCH  13  16
ENDBRANCH   7  14
ENDBRANCH   1   8
BRANCH   4  18
ATOM     18  C   UNL     1      -2.519   3.861   0.089  0.00  0.00    +0.344 C 
ATOM     19  O   UNL     1      -2.533   5.075   0.133  0.00  0.00    -0.245 OA
BRANCH  18  20
ATOM     20  O   UNL     1      -3.679   3.176   0.054  0.00  0.00    -0.422 OA
BRANCH  20  21
ATOM     21  C   UNL     1      -4.825   3.895   0.173  0.00  0.00    +0.133 A 
ATOM     22  C   UNL     1      -5.308   4.618  -0.908  0.00  0.00    +0.046 A 
ATOM     23  C   UNL     1      -6.474   5.349  -0.784  0.00  0.00    +0.005 A 
ATOM     24  C   UNL     1      -7.160   5.360   0.416  0.00  0.00    +0.015 A 
ATOM     25  C   UNL     1      -6.681   4.641   1.496  0.00  0.00    +0.021 A 
ATOM     26  C   UNL     1      -5.518   3.904   1.375  0.00  0.00    +0.061 A 
ATOM     27 BR   UNL     1      -7.622   4.659   3.136  0.00  0.00    -0.050 Br
ENDBRANCH  20  21
ENDBRANCH  18  20
ENDBRANCH   4  18
TORSDOF 6
