REMARK  Name = ZINC48150215
REMARK  5 active torsions:
REMARK  status: ('A' for Active; 'I' for Inactive)
REMARK    1  A    between atoms: C_1  and  C_2
REMARK    2  A    between atoms: C_2  and  C_4
REMARK    3  A    between atoms: C_2  and  N_12
REMARK    4  A    between atoms: N_15  and  C_16
REMARK    5  A    between atoms: C_21  and  N_22
REMARK                            x       y       z     vdW  Elec       q    Type
REMARK                         _______ _______ _______ _____ _____    ______ ____
ROOT
ATOM      1  N   UNL     1      -1.370  -0.546   0.018  0.00  0.00    -0.293 N 
ATOM      2  C   UNL     1      -2.052  -0.661  -1.140  0.00  0.00    +0.304 C 
ATOM      3  O   UNL     1      -1.524  -0.348  -2.189  0.00  0.00    -0.252 OA
ATOM      4  N   UNL     1      -3.318  -1.123  -1.133  0.00  0.00    -0.268 N 
ATOM      5  H   UNL     1      -1.791  -0.796   0.855  0.00  0.00    +0.151 HD
ATOM      6  H   UNL     1      -3.716  -1.434  -0.305  0.00  0.00    +0.156 HD
ENDROOT
BRANCH   4   7
ATOM      7  C   UNL     1      -4.058  -1.155  -2.321  0.00  0.00    +0.060 A 
ATOM      8  C   UNL     1      -3.428  -1.432  -3.526  0.00  0.00    +0.025 A 
ATOM      9  C   UNL     1      -4.160  -1.462  -4.698  0.00  0.00    +0.002 A 
ATOM     10  C   UNL     1      -5.521  -1.217  -4.674  0.00  0.00    +0.002 A 
ATOM     11  C   UNL     1      -6.156  -0.940  -3.478  0.00  0.00    +0.029 A 
ATOM     12  C   UNL     1      -5.430  -0.913  -2.297  0.00  0.00    +0.087 A 
BRANCH  12  13
ATOM     13  N   UNL     1      -6.074  -0.638  -1.082  0.00  0.00    -0.238 N 
ATOM     14  C   UNL     1      -7.407  -0.493  -0.902  0.00  0.00    +0.114 A 
ATOM     15  C   UNL     1      -7.620  -0.237   0.410  0.00  0.00    +0.041 A 
ATOM     16  C   UNL     1      -6.378  -0.226   1.054  0.00  0.00    +0.135 A 
ATOM     17  N   UNL     1      -5.452  -0.471   0.162  0.00  0.00    -0.175 NA
ENDBRANCH  12  13
ENDBRANCH   4   7
BRANCH   1  19
ATOM     18  C   UNL     1      -0.009   1.486   0.038  0.00  0.00    +0.033 C 
ATOM     19  C   UNL     1       0.006  -0.044   0.011  0.00  0.00    +0.102 C 
BRANCH  19  20
ATOM     20  C   UNL     1       0.735  -0.560   1.224  0.00  0.00    -0.025 A 
ATOM     21  C   UNL     1       0.086  -0.628   2.443  0.00  0.00    +0.008 A 
ATOM     22  C   UNL     1       0.753  -1.101   3.557  0.00  0.00    +0.041 A 
ATOM     23  C   UNL     1       2.072  -1.509   3.453  0.00  0.00    +0.158 A 
ATOM     24  C   UNL     1       2.722  -1.442   2.231  0.00  0.00    +0.159 A 
ATOM     25  C   UNL     1       2.050  -0.972   1.116  0.00  0.00    +0.046 A 
ATOM     26  F   UNL     1       4.010  -1.838   2.127  0.00  0.00    -0.202 F 
ATOM     27  F   UNL     1       2.725  -1.971   4.542  0.00  0.00    -0.202 F 
ENDBRANCH  19  20
ENDBRANCH   1  19
TORSDOF 4
