REMARK  Name = ZINC09607896
REMARK  8 active torsions:
REMARK  status: ('A' for Active; 'I' for Inactive)
REMARK    1  A    between atoms: C_1  and  C_2
REMARK    2  A    between atoms: C_6  and  N_9
REMARK    3  A    between atoms: C_7  and  C_8
REMARK    4  A    between atoms: C_10  and  C_12
REMARK    5  A    between atoms: C_15  and  C_18
REMARK    6  A    between atoms: C_18  and  N_19
REMARK    7  A    between atoms: N_19  and  S_20
REMARK    8  A    between atoms: S_20  and  C_23
REMARK                            x       y       z     vdW  Elec       q    Type
REMARK                         _______ _______ _______ _____ _____    ______ ____
ROOT
ATOM      1  C   UNL     1      -0.008   1.073   0.001  0.00  0.00    +0.075 C 
ATOM      2  C   UNL     1      -0.732   1.558   1.259  0.00  0.00    +0.013 C 
ATOM      3  C   UNL     1      -0.763   3.088   1.272  0.00  0.00    +0.005 C 
ATOM      4  C   UNL     1      -1.503   3.593   0.032  0.00  0.00    +0.005 C 
ATOM      5  C   UNL     1      -0.779   3.108  -1.226  0.00  0.00    +0.005 C 
ATOM      6  C   UNL     1      -0.748   1.579  -1.239  0.00  0.00    +0.013 C 
ENDROOT
BRANCH   1   8
ATOM      7  N   UNL     1       2.245   1.288   0.998  0.00  0.00    -0.285 N 
ATOM      8  C   UNL     1       1.402   1.605  -0.004  0.00  0.00    +0.220 C 
ATOM      9  O   UNL     1       1.778   2.317  -0.910  0.00  0.00    -0.275 OA
ATOM     10  H   UNL     1       1.922   0.785   1.763  0.00  0.00    +0.155 HD
BRANCH   7  16
ATOM     11  C   UNL     1       6.444   2.386   3.309  0.00  0.00    +0.044 C 
ATOM     12  C   UNL     1       5.644   2.224   2.041  0.00  0.00    -0.046 A 
ATOM     13  C   UNL     1       6.236   2.468   0.815  0.00  0.00    +0.004 A 
ATOM     14  C   UNL     1       5.506   2.321  -0.350  0.00  0.00    +0.002 A 
ATOM     15  C   UNL     1       4.184   1.924  -0.293  0.00  0.00    +0.023 A 
ATOM     16  C   UNL     1       3.586   1.684   0.937  0.00  0.00    +0.037 A 
ATOM     17  C   UNL     1       4.322   1.833   2.105  0.00  0.00    -0.026 A 
ATOM     18  C   UNL     1       3.677   1.568   3.442  0.00  0.00    +0.046 C 
ENDBRANCH   7  16
ENDBRANCH   1   8
BRANCH   4  19
ATOM     19  C   UNL     1      -1.534   5.123   0.045  0.00  0.00    +0.109 C 
BRANCH  19  20
ATOM     20  N   UNL     1      -2.328   5.585   1.185  0.00  0.00    -0.190 NA
ATOM     21  H   UNL     1      -2.908   4.966   1.655  0.00  0.00    +0.148 HD
BRANCH  20  22
ATOM     22  S   UNL     1      -2.236   7.166   1.672  0.00  0.00    +0.061 S 
ATOM     23  O   UNL     1      -3.130   7.306   2.768  0.00  0.00    -0.153 OA
ATOM     24  O   UNL     1      -0.854   7.480   1.771  0.00  0.00    -0.153 OA
BRANCH  22  25
ATOM     25  C   UNL     1      -2.884   8.152   0.364  0.00  0.00    +0.133 A 
ATOM     26  C   UNL     1      -4.020   8.866   0.553  0.00  0.00    +0.031 A 
ATOM     27  C   UNL     1      -4.561   9.658  -0.460  0.00  0.00    +0.004 A 
ATOM     28  C   UNL     1      -3.975   9.748  -1.678  0.00  0.00    +0.031 A 
ATOM     29  C   UNL     1      -2.783   9.028  -1.948  0.00  0.00    +0.102 A 
ATOM     30  C   UNL     1      -2.213   8.203  -0.886  0.00  0.00    +0.126 A 
ATOM     31  N   UNL     1      -1.102   7.582  -1.276  0.00  0.00    -0.189 NA
ATOM     32  S   UNL     1      -0.856   8.018  -2.761  0.00  0.00    +0.117 S 
ATOM     33  N   UNL     1      -2.057   8.978  -3.063  0.00  0.00    -0.191 NA
ENDBRANCH  22  25
ENDBRANCH  20  22
ENDBRANCH  19  20
ENDBRANCH   4  19
TORSDOF 6
