REMARK  Name = ZINC08952158
REMARK  10 active torsions:
REMARK  status: ('A' for Active; 'I' for Inactive)
REMARK    1  A    between atoms: C_1  and  C_2
REMARK    2  A    between atoms: C_2  and  O_3
REMARK    3  A    between atoms: O_3  and  C_4
REMARK    4  A    between atoms: C_4  and  C_6
REMARK    5  A    between atoms: C_6  and  S_7
REMARK    6  A    between atoms: S_7  and  C_8
REMARK    7  A    between atoms: C_18  and  C_19
REMARK    8  A    between atoms: C_18  and  N_62
REMARK    9  A    between atoms: C_19  and  C_20
REMARK   10  A    between atoms: N_28  and  C_29
REMARK                            x       y       z     vdW  Elec       q    Type
REMARK                         _______ _______ _______ _____ _____    ______ ____
ROOT
ATOM      1  C   UNL     1      -2.244  -0.047   0.522  0.00  0.00    +0.178 A 
ATOM      2  N   UNL     1      -1.060  -0.627   0.522  0.00  0.00    -0.215 NA
ATOM      3  C   UNL     1       0.006   0.004   0.045  0.00  0.00    +0.117 A 
ATOM      4  C   UNL     1      -0.066   1.306  -0.479  0.00  0.00    +0.076 A 
ATOM      5  C   UNL     1       1.193   1.867  -0.967  0.00  0.00    -0.026 A 
ATOM      6  C   UNL     1       2.291   1.088  -0.868  0.00  0.00    -0.021 A 
ATOM      7  S   UNL     1       1.722  -0.417  -0.129  0.00  0.00    -0.075 S 
ATOM      8  C   UNL     1       3.680   1.444  -1.300  0.00  0.00    -0.035 C 
ATOM      9  C   UNL     1       2.780   3.678  -1.548  0.00  0.00    -0.074 C 
ATOM     10  C   UNL     1       1.305   3.267  -1.565  0.00  0.00    +0.018 C 
ATOM     11  C   UNL     1      -1.364   1.909  -0.471  0.00  0.00    +0.268 A 
ATOM     12  O   UNL     1      -1.524   3.037  -0.906  0.00  0.00    -0.267 OA
ATOM     13  N   UNL     1      -2.404   1.218   0.030  0.00  0.00    -0.255 N 
ATOM     14  N   UNL     1       3.590   2.624  -2.193  0.00  0.00    +0.383 N 
ATOM     15  H   UNL     1       3.137   2.345  -3.071  0.00  0.00    -0.081 HD
ENDROOT
BRANCH  13  16
ATOM     16  C   UNL     1      -3.676   1.805   0.044  0.00  0.00    +0.052 A 
ATOM     17  C   UNL     1      -4.088   2.547   1.143  0.00  0.00    +0.026 A 
ATOM     18  C   UNL     1      -5.340   3.129   1.152  0.00  0.00    +0.002 A 
ATOM     19  C   UNL     1      -6.189   2.964   0.072  0.00  0.00    +0.000 A 
ATOM     20  C   UNL     1      -5.784   2.221  -1.021  0.00  0.00    +0.002 A 
ATOM     21  C   UNL     1      -4.530   1.641  -1.038  0.00  0.00    +0.026 A 
ENDBRANCH  13  16
BRANCH   1  22
ATOM     22  S   UNL     1      -3.637  -0.914   1.163  0.00  0.00    -0.076 S 
BRANCH  22  23
ATOM     23  C   UNL     1      -2.845  -2.469   1.646  0.00  0.00    +0.197 C 
BRANCH  23  24
ATOM     24  C   UNL     1      -3.876  -3.395   2.238  0.00  0.00    +0.317 C 
ATOM     25  O   UNL     1      -5.028  -3.040   2.325  0.00  0.00    -0.250 OA
BRANCH  24  26
ATOM     26  O   UNL     1      -3.515  -4.614   2.669  0.00  0.00    -0.464 OA
BRANCH  26  28
ATOM     27  C   UNL     1      -3.962  -6.792   3.661  0.00  0.00    +0.048 C 
ATOM     28  C   UNL     1      -4.560  -5.452   3.227  0.00  0.00    +0.229 C 
ENDBRANCH  26  28
ENDBRANCH  24  26
ENDBRANCH  23  24
ENDBRANCH  22  23
ENDBRANCH   1  22
BRANCH  14  29
ATOM     29  C   UNL     1       4.944   3.138  -2.492  0.00  0.00    -0.074 C 
BRANCH  29  30
ATOM     30  C   UNL     1       5.608   3.664  -1.218  0.00  0.00    +0.016 C 
BRANCH  30  31
ATOM     31  C   UNL     1       6.984   4.183  -1.547  0.00  0.00    -0.049 A 
ATOM     32  C   UNL     1       8.076   3.337  -1.484  0.00  0.00    +0.003 A 
ATOM     33  C   UNL     1       9.337   3.812  -1.791  0.00  0.00    +0.000 A 
ATOM     34  C   UNL     1       9.508   5.136  -2.150  0.00  0.00    +0.000 A 
ATOM     35  C   UNL     1       8.418   5.984  -2.207  0.00  0.00    +0.000 A 
ATOM     36  C   UNL     1       7.156   5.507  -1.906  0.00  0.00    +0.003 A 
ENDBRANCH  30  31
ENDBRANCH  29  30
ENDBRANCH  14  29
TORSDOF 9
