REMARK  Name = ZINC07022766
REMARK  6 active torsions:
REMARK  status: ('A' for Active; 'I' for Inactive)
REMARK    1  A    between atoms: C_1  and  C_2
REMARK    2  A    between atoms: C_8  and  N_10
REMARK    3  A    between atoms: C_14  and  C_16
REMARK    4  A    between atoms: C_16  and  O_17
REMARK    5  A    between atoms: O_17  and  C_18
REMARK    6  A    between atoms: C_23  and  C_24
REMARK                            x       y       z     vdW  Elec       q    Type
REMARK                         _______ _______ _______ _____ _____    ______ ____
ROOT
ATOM      1  N   UNL     1      -2.119  -0.061   1.218  0.00  0.00    -0.296 N 
ATOM      2  C   UNL     1      -3.462   0.049   1.230  0.00  0.00    +0.306 C 
ATOM      3  O   UNL     1      -4.105  -0.243   0.240  0.00  0.00    -0.252 OA
ATOM      4  N   UNL     1      -4.093   0.484   2.339  0.00  0.00    -0.237 N 
ATOM      5  C   UNL     1      -5.436   0.594   2.350  0.00  0.00    +0.258 C 
ATOM      6  O   UNL     1      -6.077   0.303   1.363  0.00  0.00    -0.272 OA
ATOM      7  H   UNL     1      -1.606   0.172   2.008  0.00  0.00    +0.151 HD
ATOM      8  H   UNL     1      -3.580   0.717   3.128  0.00  0.00    +0.159 HD
ENDROOT
BRANCH   1  15
ATOM      9  C   UNL     1      -0.019   1.526   0.010  0.00  0.00    +0.009 C 
ATOM     10  C   UNL     1       0.002  -0.004   0.002  0.00  0.00    +0.006 C 
ATOM     11  C   UNL     1       0.742  -0.511   1.242  0.00  0.00    +0.005 C 
ATOM     12  C   UNL     1       0.763  -2.041   1.233  0.00  0.00    +0.000 C 
ATOM     13  C   UNL     1      -0.673  -2.570   1.244  0.00  0.00    +0.002 C 
ATOM     14  C   UNL     1      -1.413  -2.063   0.004  0.00  0.00    +0.022 C 
ATOM     15  C   UNL     1      -1.433  -0.534   0.013  0.00  0.00    +0.077 C 
ENDBRANCH   1  15
BRANCH   5  16
ATOM     16  C   UNL     1      -6.142   1.080   3.590  0.00  0.00    +0.325 C 
BRANCH  16  17
ATOM     17  O   UNL     1      -7.551   1.111   3.356  0.00  0.00    -0.482 OA
BRANCH  17  18
ATOM     18  C   UNL     1      -8.337   1.528   4.380  0.00  0.00    +0.133 A 
ATOM     19  C   UNL     1      -7.767   1.897   5.589  0.00  0.00    +0.048 A 
ATOM     20  C   UNL     1      -8.568   2.327   6.629  0.00  0.00    +0.023 A 
ATOM     21  C   UNL     1      -9.944   2.383   6.477  0.00  0.00    +0.042 A 
ATOM     22  C   UNL     1     -10.527   2.015   5.283  0.00  0.00    +0.036 A 
ATOM     23  C   UNL     1      -9.728   1.583   4.221  0.00  0.00    +0.079 A 
ATOM     24 CL   UNL     1     -10.938   2.920   7.795  0.00  0.00    -0.084 Cl
BRANCH  23  25
ATOM     25  C   UNL     1     -10.345   1.188   2.941  0.00  0.00    +0.245 C 
ATOM     26  O   UNL     1      -9.646   0.812   2.019  0.00  0.00    -0.270 OA
ATOM     27  N   UNL     1     -11.684   1.242   2.793  0.00  0.00    -0.325 N 
ATOM     28  H   UNL     1     -12.241   1.542   3.528  0.00  0.00    +0.145 HD
ATOM     29  H   UNL     1     -12.089   0.982   1.951  0.00  0.00    +0.145 HD
ENDBRANCH  23  25
ENDBRANCH  17  18
ENDBRANCH  16  17
ENDBRANCH   5  16
TORSDOF 5
