REMARK  Name = ZINC04523684
REMARK  7 active torsions:
REMARK  status: ('A' for Active; 'I' for Inactive)
REMARK    1  A    between atoms: C_1  and  C_2
REMARK    2  A    between atoms: C_2  and  C_3
REMARK    3  A    between atoms: C_2  and  C_4
REMARK    4  A    between atoms: C_2  and  C_5
REMARK    5  A    between atoms: C_12  and  C_16
REMARK    6  A    between atoms: N_18  and  N_19
REMARK    7  A    between atoms: C_20  and  C_21
REMARK                            x       y       z     vdW  Elec       q    Type
REMARK                         _______ _______ _______ _____ _____    ______ ____
ROOT
ATOM      1  C   UNL     1       6.449  -0.644  -3.493  0.00  0.00    +0.276 C 
ATOM      2  O   UNL     1       6.471   0.543  -3.245  0.00  0.00    -0.270 OA
ATOM      3  N   UNL     1       7.303  -1.160  -4.398  0.00  0.00    -0.204 N 
ATOM      4  H   UNL     1       7.285  -2.110  -4.596  0.00  0.00    +0.177 HD
ENDROOT
BRANCH   1  12
ATOM      5  C   UNL     1       1.964  -1.462   0.440  0.00  0.00    -0.038 A 
ATOM      6  C   UNL     1       1.351  -2.519  -0.207  0.00  0.00    +0.008 A 
ATOM      7  C   UNL     1       1.875  -3.006  -1.389  0.00  0.00    +0.050 A 
ATOM      8  C   UNL     1       3.018  -2.436  -1.930  0.00  0.00    +0.162 A 
ATOM      9  C   UNL     1       3.634  -1.373  -1.280  0.00  0.00    +0.163 A 
ATOM     10  C   UNL     1       3.100  -0.885  -0.097  0.00  0.00    +0.053 A 
ATOM     11  O   UNL     1       4.752  -0.793  -1.797  0.00  0.00    -0.472 OA
ATOM     12  C   UNL     1       5.465  -1.542  -2.787  0.00  0.00    +0.297 C 
ATOM     13  C   UNL     1       4.450  -2.094  -3.797  0.00  0.00    +0.283 C 
ATOM     14  O   UNL     1       3.525  -2.929  -3.093  0.00  0.00    -0.484 OA
BRANCH   5  16
ATOM     15  C   UNL     1       1.011   0.537   1.555  0.00  0.00    +0.015 C 
ATOM     16  C   UNL     1       1.390  -0.935   1.730  0.00  0.00    -0.013 C 
ATOM     17  C   UNL     1       2.432  -1.064   2.842  0.00  0.00    +0.015 C 
ATOM     18  C   UNL     1       0.145  -1.742   2.101  0.00  0.00    +0.015 C 
ENDBRANCH   5  16
ENDBRANCH   1  12
BRANCH   3  19
ATOM     19  N   UNL     1       8.217  -0.325  -5.054  0.00  0.00    -0.188 NA
ATOM     20  C   UNL     1       8.964  -0.800  -6.005  0.00  0.00    +0.140 C 
BRANCH  20  21
ATOM     21  C   UNL     1       8.704  -2.146  -6.542  0.00  0.00    +0.020 A 
ATOM     22  C   UNL     1       7.538  -2.841  -6.464  0.00  0.00    +0.093 A 
ATOM     23  N   UNL     1       7.682  -4.050  -7.077  0.00  0.00    -0.360 N 
ATOM     24  H   UNL     1       6.986  -4.722  -7.150  0.00  0.00    +0.165 HD
ATOM     25  C   UNL     1       8.960  -4.182  -7.578  0.00  0.00    +0.047 A 
ATOM     26  C   UNL     1       9.655  -3.000  -7.275  0.00  0.00    +0.008 A 
ATOM     27  C   UNL     1      10.983  -2.850  -7.671  0.00  0.00    +0.010 A 
ATOM     28  C   UNL     1      11.607  -3.865  -8.364  0.00  0.00    +0.001 A 
ATOM     29  C   UNL     1      10.919  -5.031  -8.667  0.00  0.00    +0.002 A 
ATOM     30  C   UNL     1       9.609  -5.197  -8.274  0.00  0.00    +0.026 A 
ENDBRANCH  20  21
ENDBRANCH   3  19
TORSDOF 4
