REMARK  Name = ZINC00274455
REMARK  7 active torsions:
REMARK  status: ('A' for Active; 'I' for Inactive)
REMARK    1  A    between atoms: C_1  and  C_2
REMARK    2  A    between atoms: C_5  and  S_8
REMARK    3  A    between atoms: S_8  and  N_11
REMARK    4  A    between atoms: N_11  and  C_12
REMARK    5  A    between atoms: N_11  and  N_13
REMARK    6  A    between atoms: C_14  and  C_15
REMARK    7  A    between atoms: C_20  and  O_21
REMARK                            x       y       z     vdW  Elec       q    Type
REMARK                         _______ _______ _______ _____ _____    ______ ____
ROOT
ATOM      1  N   UNL     1       3.601   5.950  -0.000  0.00  0.00    -0.127 N 
ATOM      2  C   UNL     1       4.882   5.239  -0.015  0.00  0.00    +0.181 C 
ENDROOT
BRANCH   1   3
ATOM      3  S   UNL     1       3.575   7.606   0.008  0.00  0.00    +0.089 S 
ATOM      4  O   UNL     1       2.381   7.990   0.678  0.00  0.00    -0.149 OA
ATOM      5  O   UNL     1       4.860   8.031   0.439  0.00  0.00    -0.149 OA
BRANCH   3  10
ATOM      6  C   UNL     1       2.992   9.411  -5.720  0.00  0.00    +0.044 C 
ATOM      7  C   UNL     1       3.137   8.961  -4.289  0.00  0.00    -0.050 A 
ATOM      8  C   UNL     1       2.013   8.733  -3.518  0.00  0.00    +0.005 A 
ATOM      9  C   UNL     1       2.146   8.320  -2.206  0.00  0.00    +0.029 A 
ATOM     10  C   UNL     1       3.404   8.133  -1.665  0.00  0.00    +0.110 A 
ATOM     11  C   UNL     1       4.529   8.365  -2.434  0.00  0.00    +0.029 A 
ATOM     12  C   UNL     1       4.396   8.774  -3.748  0.00  0.00    +0.005 A 
ENDBRANCH   3  10
ENDBRANCH   1   3
BRANCH   1  13
ATOM     13  N   UNL     1       2.400   5.230   0.007  0.00  0.00    -0.171 NA
ATOM     14  C   UNL     1       2.421   3.933   0.000  0.00  0.00    +0.143 C 
BRANCH  14  15
ATOM     15  C   UNL     1       1.156   3.175   0.008  0.00  0.00    +0.036 A 
ATOM     16  C   UNL     1       1.174   1.779   0.000  0.00  0.00    +0.013 A 
ATOM     17  C   UNL     1      -0.013   1.076   0.008  0.00  0.00    +0.001 A 
ATOM     18  C   UNL     1      -1.222   1.749   0.017  0.00  0.00    +0.004 A 
ATOM     19  C   UNL     1      -1.253   3.131   0.030  0.00  0.00    +0.046 A 
ATOM     20  C   UNL     1      -0.071   3.852   0.022  0.00  0.00    +0.125 A 
BRANCH  20  21
ATOM     21  O   UNL     1      -0.100   5.210   0.030  0.00  0.00    -0.506 OA
ATOM     22  H   UNL     1      -0.117   5.608  -0.851  0.00  0.00    +0.292 HD
ENDBRANCH  20  21
ENDBRANCH  14  15
ENDBRANCH   1  13
TORSDOF 5
