REMARK  Name = ZINC10129833
REMARK  11 active torsions:
REMARK  status: ('A' for Active; 'I' for Inactive)
REMARK    1  A    between atoms: C_1  and  C_2
REMARK    2  A    between atoms: C_2  and  C_3
REMARK    3  A    between atoms: C_8  and  N_9
REMARK    4  A    between atoms: C_10  and  C_12
REMARK    5  A    between atoms: N_14  and  C_15
REMARK    6  A    between atoms: C_15  and  C_16
REMARK    7  A    between atoms: C_16  and  C_18
REMARK    8  A    between atoms: C_16  and  N_69
REMARK    9  A    between atoms: C_21  and  N_24
REMARK   10  A    between atoms: N_24  and  C_25
REMARK   11  A    between atoms: N_24  and  C_26
REMARK                            x       y       z     vdW  Elec       q    Type
REMARK                         _______ _______ _______ _____ _____    ______ ____
ROOT
ATOM      1  C   UNL     1      -1.101   2.597  -1.118  0.00  0.00    -0.020 C 
ENDROOT
BRANCH   1  11
ATOM      2  C   UNL     1      -0.775   0.412  -0.121  0.00  0.00    -0.073 C 
ATOM      3  C   UNL     1       0.300  -0.448   0.543  0.00  0.00    +0.017 C 
ATOM      4  C   UNL     1       0.754   0.196   1.828  0.00  0.00    -0.048 A 
ATOM      5  C   UNL     1       1.449  -0.577   2.746  0.00  0.00    +0.004 A 
ATOM      6  C   UNL     1       1.890  -0.024   3.931  0.00  0.00    +0.000 A 
ATOM      7  C   UNL     1       1.637   1.307   4.205  0.00  0.00    +0.000 A 
ATOM      8  C   UNL     1       0.943   2.077   3.293  0.00  0.00    +0.002 A 
ATOM      9  C   UNL     1       0.498   1.522   2.102  0.00  0.00    -0.061 A 
ATOM     10  C   UNL     1      -0.259   2.401   1.141  0.00  0.00    -0.042 C 
ATOM     11  N   UNL     1      -0.261   1.794  -0.201  0.00  0.00    +0.388 N 
ATOM     12  H   UNL     1       0.701   1.774  -0.561  0.00  0.00    -0.080 HD
ENDBRANCH   1  11
BRANCH   1  13
ATOM     13  C   UNL     1      -2.526   2.107  -1.080  0.00  0.00    -0.059 A 
ATOM     14  C   UNL     1      -3.188   2.006   0.130  0.00  0.00    +0.004 A 
ATOM     15  C   UNL     1      -4.496   1.563   0.168  0.00  0.00    +0.023 A 
ATOM     16  C   UNL     1      -5.142   1.209  -1.010  0.00  0.00    +0.029 A 
ATOM     17  C   UNL     1      -4.472   1.307  -2.223  0.00  0.00    +0.023 A 
ATOM     18  C   UNL     1      -3.167   1.756  -2.254  0.00  0.00    +0.004 A 
BRANCH  16  19
ATOM     19  N   UNL     1      -6.463   0.755  -0.974  0.00  0.00    -0.336 N 
ATOM     20  C   UNL     1      -7.143   0.382  -2.217  0.00  0.00    +0.129 C 
ATOM     21  C   UNL     1      -7.168   0.652   0.306  0.00  0.00    +0.129 C 
ENDBRANCH  16  19
ENDBRANCH   1  13
BRANCH   1  22
ATOM     22  C   UNL     1      -1.056   4.067  -0.698  0.00  0.00    +0.094 C 
BRANCH  22  25
ATOM     23  C   UNL     1       0.615   5.819  -0.422  0.00  0.00    +0.299 C 
ATOM     24  O   UNL     1      -0.286   6.606  -0.220  0.00  0.00    -0.265 OA
ATOM     25  N   UNL     1       0.336   4.524  -0.671  0.00  0.00    -0.309 N 
ATOM     26  H   UNL     1       1.056   3.895  -0.832  0.00  0.00    +0.149 HD
BRANCH  23  28
ATOM     27  N   UNL     1       2.313   7.580  -0.145  0.00  0.00    -0.278 N 
ATOM     28  C   UNL     1       2.034   6.285  -0.394  0.00  0.00    +0.303 C 
ATOM     29  O   UNL     1       2.936   5.497  -0.596  0.00  0.00    -0.265 OA
ATOM     30  H   UNL     1       1.599   8.194   0.086  0.00  0.00    +0.155 HD
BRANCH  27  36
ATOM     31  C   UNL     1       3.891   9.366  -0.530  0.00  0.00    -0.026 A 
ATOM     32  C   UNL     1       5.195   9.814  -0.603  0.00  0.00    +0.005 A 
ATOM     33  C   UNL     1       6.242   8.943  -0.367  0.00  0.00    +0.000 A 
ATOM     34  C   UNL     1       5.987   7.619  -0.057  0.00  0.00    +0.002 A 
ATOM     35  C   UNL     1       4.686   7.165   0.022  0.00  0.00    +0.023 A 
ATOM     36  C   UNL     1       3.632   8.037  -0.220  0.00  0.00    +0.037 A 
BRANCH  31  38
ATOM     37  C   UNL     1       2.246  10.879   0.543  0.00  0.00    +0.009 C 
ATOM     38  C   UNL     1       2.751  10.317  -0.787  0.00  0.00    +0.033 C 
ENDBRANCH  31  38
ENDBRANCH  27  36
ENDBRANCH  23  28
ENDBRANCH  22  25
ENDBRANCH   1  22
TORSDOF 8
