REMARK  Name = ZINC09027960
REMARK  7 active torsions:
REMARK  status: ('A' for Active; 'I' for Inactive)
REMARK    1  A    between atoms: C_6  and  C_7
REMARK    2  A    between atoms: C_7  and  S_8
REMARK    3  A    between atoms: S_8  and  C_11
REMARK    4  A    between atoms: C_14  and  C_16
REMARK    5  A    between atoms: C_16  and  N_17
REMARK    6  A    between atoms: N_17  and  S_18
REMARK    7  A    between atoms: S_18  and  C_21
REMARK                            x       y       z     vdW  Elec       q    Type
REMARK                         _______ _______ _______ _____ _____    ______ ____
ROOT
ATOM      1  C   UNL     1       3.205   6.163   5.106  0.00  0.00    +0.361 A 
ATOM      2  N   UNL     1       2.383   5.316   5.657  0.00  0.00    -0.090 NA
ATOM      3  N   UNL     1       2.085   4.396   4.809  0.00  0.00    -0.110 NA
ATOM      4  C   UNL     1       2.707   4.625   3.687  0.00  0.00    +0.234 A 
ATOM      5  O   UNL     1       3.433   5.744   3.850  0.00  0.00    -0.406 OA
ENDROOT
BRANCH   1   6
ATOM      6  S   UNL     1       3.896   7.593   5.870  0.00  0.00    +0.053 S 
ATOM      7  O   UNL     1       4.181   8.476   4.794  0.00  0.00    -0.165 OA
ATOM      8  O   UNL     1       2.960   7.955   6.876  0.00  0.00    -0.165 OA
BRANCH   6   9
ATOM      9  C   UNL     1       5.439   7.016   6.629  0.00  0.00    +0.212 C 
BRANCH   9  15
ATOM     10  C   UNL     1       7.030   8.947   6.626  0.00  0.00    +0.007 A 
ATOM     11  C   UNL     1       7.653  10.009   7.256  0.00  0.00    +0.022 A 
ATOM     12  C   UNL     1       7.375  10.286   8.582  0.00  0.00    +0.059 A 
ATOM     13  C   UNL     1       6.469   9.503   9.277  0.00  0.00    +0.060 A 
ATOM     14  C   UNL     1       5.842   8.445   8.644  0.00  0.00    +0.026 A 
ATOM     15  C   UNL     1       6.121   8.169   7.319  0.00  0.00    -0.024 A 
ATOM     16 CL   UNL     1       6.118   9.850  10.942  0.00  0.00    -0.082 Cl
ATOM     17 CL   UNL     1       8.162  11.615   9.375  0.00  0.00    -0.082 Cl
ENDBRANCH   9  15
ENDBRANCH   6   9
ENDBRANCH   1   6
BRANCH   4  18
ATOM     18  C   UNL     1       2.631   3.785   2.438  0.00  0.00    +0.203 C 
BRANCH  18  19
ATOM     19  N   UNL     1       1.535   4.266   1.592  0.00  0.00    -0.180 NA
ATOM     20  H   UNL     1       0.864   4.862   1.960  0.00  0.00    +0.149 HD
BRANCH  19  21
ATOM     21  S   UNL     1       1.442   3.791   0.009  0.00  0.00    +0.065 S 
ATOM     22  O   UNL     1       2.731   3.995  -0.553  0.00  0.00    -0.153 OA
ATOM     23  O   UNL     1       0.272   4.394  -0.528  0.00  0.00    -0.153 OA
BRANCH  21  24
ATOM     24  C   UNL     1       1.159   2.052   0.002  0.00  0.00    +0.144 A 
ATOM     25  C   UNL     1      -0.017   1.379   0.010  0.00  0.00    +0.038 A 
ATOM     26  C   UNL     1       0.002  -0.004   0.002  0.00  0.00    +0.030 A 
ATOM     27  C   UNL     1       1.198  -0.645  -0.013  0.00  0.00    +0.080 A 
ATOM     28  S   UNL     1       2.348   0.720  -0.017  0.00  0.00    -0.057 S 
ATOM     29 CL   UNL     1       1.524  -2.350  -0.026  0.00  0.00    -0.076 Cl
ENDBRANCH  21  24
ENDBRANCH  19  21
ENDBRANCH  18  19
ENDBRANCH   4  18
TORSDOF 7
