REMARK  Name = ZINC39608314
REMARK  9 active torsions:
REMARK  status: ('A' for Active; 'I' for Inactive)
REMARK    1  A    between atoms: C_1  and  C_2
REMARK    2  A    between atoms: C_5  and  C_12
REMARK    3  A    between atoms: N_9  and  C_11
REMARK    4  A    between atoms: C_16  and  C_25
REMARK    5  A    between atoms: N_27  and  C_28
REMARK    6  A    between atoms: C_28  and  C_30
REMARK    7  A    between atoms: C_28  and  C_31
REMARK    8  A    between atoms: C_31  and  C_32
REMARK    9  A    between atoms: C_31  and  C_33
REMARK                            x       y       z     vdW  Elec       q    Type
REMARK                         _______ _______ _______ _____ _____    ______ ____
ROOT
ATOM      1  C   UNL     1      -0.086  -1.413  -5.101  0.00  0.00    +0.250 C 
ATOM      2  O   UNL     1      -0.213  -0.333  -5.644  0.00  0.00    -0.270 OA
ATOM      3  N   UNL     1       0.058  -2.528  -5.844  0.00  0.00    -0.296 N 
ATOM      4  C   UNL     1       0.120  -3.932  -5.373  0.00  0.00    +0.121 C 
ATOM      5  C   UNL     1      -0.687  -4.731  -6.421  0.00  0.00    +0.100 C 
ATOM      6  C   UNL     1      -0.635  -3.871  -7.695  0.00  0.00    -0.004 C 
ATOM      7  C   UNL     1       0.184  -2.628  -7.318  0.00  0.00    +0.115 C 
ATOM      8  C   UNL     1       0.053  -4.636  -8.822  0.00  0.00    -0.010 C 
ATOM      9  C   UNL     1       0.040  -3.783 -10.093  0.00  0.00    -0.082 C 
ATOM     10  N   UNL     1      -1.346  -3.471 -10.462  0.00  0.00    +0.379 N 
ATOM     11  C   UNL     1      -1.971  -2.655  -9.414  0.00  0.00    -0.082 C 
ATOM     12  C   UNL     1      -2.044  -3.461  -8.113  0.00  0.00    -0.010 C 
ATOM     13  H   UNL     1      -1.354  -2.961 -11.333  0.00  0.00    -0.086 HD
ATOM     14  H   UNL     1      -1.865  -4.329 -10.573  0.00  0.00    -0.086 HD
ENDROOT
BRANCH   1  19
ATOM     15  C   UNL     1      -2.536   1.011  -0.495  0.00  0.00    +0.068 C 
ATOM     16  C   UNL     1      -1.534  -0.108  -0.373  0.00  0.00    +0.071 A 
ATOM     17  C   UNL     1      -0.860  -0.786  -1.476  0.00  0.00    +0.060 A 
ATOM     18  C   UNL     1      -0.898  -0.654  -2.868  0.00  0.00    +0.067 A 
ATOM     19  C   UNL     1      -0.088  -1.503  -3.627  0.00  0.00    +0.074 A 
ATOM     20  C   UNL     1       0.721  -2.442  -2.972  0.00  0.00    +0.127 A 
ATOM     21  N   UNL     1       0.733  -2.539  -1.664  0.00  0.00    -0.235 NA
ATOM     22  C   UNL     1      -0.018  -1.756  -0.895  0.00  0.00    +0.160 A 
ATOM     23  N   UNL     1      -0.186  -1.656   0.458  0.00  0.00    -0.249 N 
ATOM     24  N   UNL     1      -1.109  -0.643   0.735  0.00  0.00    -0.174 NA
ATOM     25  C   UNL     1       0.497  -2.478   1.459  0.00  0.00    +0.174 C 
ATOM     26 CL   UNL     1      -1.919   0.526  -3.628  0.00  0.00    -0.082 Cl
ENDBRANCH   1  19
BRANCH   5  27
ATOM     27  C   UNL     1      -2.111  -4.909  -5.963  0.00  0.00    +0.218 C 
ATOM     28  O   UNL     1      -2.635  -4.064  -5.269  0.00  0.00    -0.275 OA
ATOM     29  N   UNL     1      -2.803  -6.007  -6.325  0.00  0.00    -0.312 N 
ATOM     30  H   UNL     1      -2.384  -6.683  -6.880  0.00  0.00    +0.149 HD
BRANCH  29  31
ATOM     31  C   UNL     1      -4.188  -6.180  -5.879  0.00  0.00    +0.072 C 
ATOM     32  C   UNL     1      -4.201  -6.811  -4.485  0.00  0.00    +0.028 C 
BRANCH  31  33
ATOM     33  C   UNL     1      -4.929  -7.093  -6.859  0.00  0.00    +0.003 C 
ATOM     34  C   UNL     1      -6.375  -7.274  -6.394  0.00  0.00    +0.009 C 
ATOM     35  C   UNL     1      -4.916  -6.463  -8.253  0.00  0.00    +0.009 C 
ENDBRANCH  31  33
ENDBRANCH  29  31
ENDBRANCH   5  27
TORSDOF 4
