REMARK  Name = ZINC37400439
REMARK  3 active torsions:
REMARK  status: ('A' for Active; 'I' for Inactive)
REMARK    1  A    between atoms: C_13  and  C_16
REMARK    2  A    between atoms: C_16  and  C_17
REMARK    3  A    between atoms: C_17  and  C_18
REMARK                            x       y       z     vdW  Elec       q    Type
REMARK                         _______ _______ _______ _____ _____    ______ ____
ROOT
ATOM      1  C   UNL     1      -0.017   1.377   0.010  0.00  0.00    +0.077 A 
ATOM      2  C   UNL     1       1.181   2.080   0.002  0.00  0.00    +0.070 A 
ATOM      3  C   UNL     1       2.404   1.390  -0.015  0.00  0.00    +0.093 A 
ATOM      4  C   UNL     1       2.408  -0.009  -0.025  0.00  0.00    +0.079 A 
ATOM      5  C   UNL     1       1.212  -0.694  -0.016  0.00  0.00    +0.164 A 
ATOM      6  C   UNL     1       0.002  -0.004   0.002  0.00  0.00    +0.164 A 
ATOM      7  O   UNL     1      -1.171  -0.703   0.013  0.00  0.00    -0.488 OA
ATOM      8  C   UNL     1      -1.480  -1.426  -1.180  0.00  0.00    +0.232 C 
ATOM      9  C   UNL     1      -0.801  -2.787  -1.176  0.00  0.00    +0.082 C 
ATOM     10  C   UNL     1       0.715  -2.678  -1.212  0.00  0.00    +0.232 C 
ATOM     11  O   UNL     1       1.208  -2.060  -0.023  0.00  0.00    -0.488 OA
ATOM     12  N   UNL     1       3.388   2.326  -0.018  0.00  0.00    -0.232 NA
ATOM     13  C   UNL     1       2.861   3.515  -0.004  0.00  0.00    +0.108 A 
ATOM     14  N   UNL     1       1.503   3.425   0.008  0.00  0.00    -0.342 N 
ATOM     15  H   UNL     1       0.877   4.166   0.019  0.00  0.00    +0.167 HD
ENDROOT
BRANCH  13  16
ATOM     16  C   UNL     1       3.640   4.805  -0.002  0.00  0.00    +0.074 C 
BRANCH  16  17
ATOM     17  C   UNL     1       4.623   4.805   1.171  0.00  0.00    +0.011 C 
BRANCH  17  18
ATOM     18  C   UNL     1       5.415   6.114   1.173  0.00  0.00    -0.011 C 
ATOM     19  C   UNL     1       6.349   6.170  -0.053  0.00  0.00    +0.003 C 
ATOM     20  C   UNL     1       7.630   6.861   0.477  0.00  0.00    +0.000 C 
ATOM     21  C   UNL     1       7.769   6.276   1.904  0.00  0.00    +0.000 C 
ATOM     22  C   UNL     1       6.318   6.182   2.418  0.00  0.00    +0.003 C 
ENDBRANCH  17  18
ENDBRANCH  16  17
ENDBRANCH  13  16
TORSDOF 3
