REMARK  Name = ZINC36039815
REMARK  5 active torsions:
REMARK  status: ('A' for Active; 'I' for Inactive)
REMARK    1  A    between atoms: C_6  and  S_7
REMARK    2  A    between atoms: S_7  and  N_10
REMARK    3  A    between atoms: C_15  and  C_17
REMARK    4  A    between atoms: N_19  and  C_20
REMARK    5  A    between atoms: C_25  and  C_28
REMARK                            x       y       z     vdW  Elec       q    Type
REMARK                         _______ _______ _______ _____ _____    ______ ____
ROOT
ATOM      1  N   UNL     1      -2.473  -1.614  -1.565  0.00  0.00    -0.165 NA
ATOM      2  C   UNL     1      -3.460  -0.805  -2.293  0.00  0.00    +0.110 C 
ATOM      3  C   UNL     1      -4.084  -1.664  -3.397  0.00  0.00    +0.017 C 
ATOM      4  C   UNL     1      -2.974  -2.241  -4.277  0.00  0.00    +0.003 C 
ATOM      5  C   UNL     1      -2.061  -3.132  -3.431  0.00  0.00    +0.030 C 
ATOM      6  C   UNL     1      -1.410  -2.285  -2.326  0.00  0.00    +0.165 C 
ENDROOT
BRANCH   6   7
ATOM      7  C   UNL     1      -0.615  -3.175  -1.407  0.00  0.00    +0.232 C 
ATOM      8  O   UNL     1      -1.140  -4.140  -0.893  0.00  0.00    -0.274 OA
ATOM      9  N   UNL     1       0.680  -2.900  -1.155  0.00  0.00    -0.311 N 
ATOM     10  H   UNL     1       1.100  -2.128  -1.566  0.00  0.00    +0.149 HD
BRANCH   9  11
ATOM     11  C   UNL     1       1.453  -3.765  -0.261  0.00  0.00    +0.074 C 
ATOM     12  C   UNL     1       1.231  -3.329   1.188  0.00  0.00    +0.022 C 
ATOM     13  C   UNL     1       2.038  -4.234   2.122  0.00  0.00    +0.002 C 
ATOM     14  C   UNL     1       3.525  -4.123   1.779  0.00  0.00    +0.012 C 
ATOM     15  C   UNL     1       3.748  -4.559   0.329  0.00  0.00    +0.095 C 
ATOM     16  C   UNL     1       2.940  -3.655  -0.605  0.00  0.00    +0.034 C 
BRANCH  15  17
ATOM     17  C   UNL     1       5.234  -4.449  -0.015  0.00  0.00    +0.393 C 
ATOM     18  F   UNL     1       5.973  -5.275   0.839  0.00  0.00    -0.170 F 
ATOM     19  F   UNL     1       5.438  -4.847  -1.340  0.00  0.00    -0.170 F 
ATOM     20  F   UNL     1       5.652  -3.123   0.143  0.00  0.00    -0.170 F 
ENDBRANCH  15  17
ENDBRANCH   9  11
ENDBRANCH   6   7
BRANCH   1  21
ATOM     21  S   UNL     1      -2.553  -1.762   0.082  0.00  0.00    +0.062 S 
ATOM     22  O   UNL     1      -3.078  -0.537   0.575  0.00  0.00    -0.153 OA
ATOM     23  O   UNL     1      -1.298  -2.278   0.505  0.00  0.00    -0.153 OA
BRANCH  21  29
ATOM     24  C   UNL     1      -3.367  -4.327   0.542  0.00  0.00    +0.029 A 
ATOM     25  C   UNL     1      -4.308  -5.300   0.820  0.00  0.00    +0.017 A 
ATOM     26  C   UNL     1      -5.635  -4.950   0.992  0.00  0.00    +0.018 A 
ATOM     27  C   UNL     1      -6.020  -3.626   0.887  0.00  0.00    +0.017 A 
ATOM     28  C   UNL     1      -5.079  -2.653   0.609  0.00  0.00    +0.029 A 
ATOM     29  C   UNL     1      -3.752  -3.003   0.436  0.00  0.00    +0.106 A 
ATOM     30 BR   UNL     1      -6.923  -6.282   1.372  0.00  0.00    -0.050 Br
ENDBRANCH  21  29
ENDBRANCH   1  21
TORSDOF 5
