REMARK  Name = ZINC08413637
REMARK  7 active torsions:
REMARK  status: ('A' for Active; 'I' for Inactive)
REMARK    1  A    between atoms: C_1  and  C_2
REMARK    2  A    between atoms: C_4  and  N_38
REMARK    3  A    between atoms: C_7  and  N_8
REMARK    4  A    between atoms: C_11  and  C_24
REMARK    5  A    between atoms: C_13  and  C_16
REMARK    6  A    between atoms: C_14  and  N_15
REMARK    7  A    between atoms: C_16  and  C_18
REMARK                            x       y       z     vdW  Elec       q    Type
REMARK                         _______ _______ _______ _____ _____    ______ ____
ROOT
ATOM      1  N   UNL     1      -1.923  -1.681  -0.201  0.00  0.00    -0.260 N 
ATOM      2  C   UNL     1      -2.307  -0.860  -1.230  0.00  0.00    +0.024 C 
ATOM      3  C   UNL     1      -2.481   0.463  -1.029  0.00  0.00    +0.024 C 
ATOM      4  C   UNL     1      -2.259   1.080   0.329  0.00  0.00    +0.091 C 
ATOM      5  C   UNL     1      -2.271   0.037   1.407  0.00  0.00    +0.048 C 
ATOM      6  C   UNL     1      -2.099  -1.293   1.105  0.00  0.00    +0.100 C 
ATOM      7  C   UNL     1      -2.874   1.310  -2.081  0.00  0.00    +0.162 C 
ATOM      8  O   UNL     1      -3.037   2.495  -1.864  0.00  0.00    -0.292 OA
ATOM      9  C   UNL     1      -3.096   0.778  -3.470  0.00  0.00    +0.080 C 
ATOM     10  C   UNL     1      -2.208  -0.454  -3.679  0.00  0.00    +0.014 C 
ATOM     11  C   UNL     1      -2.535  -1.476  -2.588  0.00  0.00    +0.052 C 
ENDROOT
BRANCH   4  12
ATOM     12  C   UNL     1      -0.927   1.785   0.338  0.00  0.00    -0.032 A 
ATOM     13  C   UNL     1       0.240   1.055   0.468  0.00  0.00    +0.008 A 
ATOM     14  C   UNL     1       1.464   1.696   0.472  0.00  0.00    +0.050 A 
ATOM     15  C   UNL     1       1.524   3.075   0.350  0.00  0.00    +0.166 A 
ATOM     16  C   UNL     1       0.349   3.812   0.225  0.00  0.00    +0.167 A 
ATOM     17  C   UNL     1      -0.875   3.162   0.223  0.00  0.00    +0.054 A 
ATOM     18  O   UNL     1       0.672   5.134   0.122  0.00  0.00    -0.453 OA
ATOM     19  C   UNL     1       2.069   5.163  -0.226  0.00  0.00    +0.466 C 
ATOM     20  O   UNL     1       2.583   3.936   0.326  0.00  0.00    -0.453 OA
ENDBRANCH   4  12
BRANCH   1  27
ATOM     21  C   UNL     1       0.860  -1.769  -0.791  0.00  0.00    +0.046 C 
ATOM     22  C   UNL     1       0.008  -3.012  -0.776  0.00  0.00    -0.027 A 
ATOM     23  C   UNL     1       0.575  -4.241  -1.055  0.00  0.00    +0.038 A 
ATOM     24  C   UNL     1      -0.205  -5.383  -1.041  0.00  0.00    +0.127 A 
ATOM     25  C   UNL     1      -1.555  -5.298  -0.750  0.00  0.00    +0.034 A 
ATOM     26  C   UNL     1      -2.126  -4.074  -0.466  0.00  0.00    +0.026 A 
ATOM     27  C   UNL     1      -1.346  -2.924  -0.483  0.00  0.00    +0.043 A 
BRANCH  24  28
ATOM     28  N   UNL     1       0.405  -6.698  -1.339  0.00  0.00    +0.056 N 
ATOM     29  O   UNL     1       1.593  -6.774  -1.595  0.00  0.00    -0.126 OA
ATOM     30  O   UNL     1      -0.281  -7.704  -1.327  0.00  0.00    -0.126 OA
ENDBRANCH  24  28
ENDBRANCH   1  27
BRANCH   6  31
ATOM     31  N   UNL     1      -2.104  -2.230   2.104  0.00  0.00    -0.346 N 
ATOM     32  H   UNL     1      -2.311  -1.966   3.015  0.00  0.00    +0.143 HD
ATOM     33  H   UNL     1      -1.900  -3.156   1.902  0.00  0.00    +0.143 HD
ENDBRANCH   6  31
BRANCH   5  34
ATOM     34  C   UNL     1      -2.458   0.424   2.742  0.00  0.00    +0.193 C 
ATOM     35  O   UNL     1      -1.555   0.288   3.549  0.00  0.00    -0.287 OA
BRANCH  34  36
ATOM     36  C   UNL     1      -3.754   0.999   3.170  0.00  0.00    +0.022 A 
ATOM     37  C   UNL     1      -4.824   1.058   2.277  0.00  0.00    +0.012 A 
ATOM     38  C   UNL     1      -6.030   1.590   2.684  0.00  0.00    +0.001 A 
ATOM     39  C   UNL     1      -6.177   2.075   3.972  0.00  0.00    +0.000 A 
ATOM     40  C   UNL     1      -5.117   2.025   4.861  0.00  0.00    +0.001 A 
ATOM     41  C   UNL     1      -3.908   1.490   4.467  0.00  0.00    +0.012 A 
ENDBRANCH  34  36
ENDBRANCH   5  34
TORSDOF 6
