REMARK  Name = ZINC49443463
REMARK  6 active torsions:
REMARK  status: ('A' for Active; 'I' for Inactive)
REMARK    1  A    between atoms: C_1  and  C_2
REMARK    2  A    between atoms: C_2  and  C_3
REMARK    3  A    between atoms: C_2  and  C_4
REMARK    4  A    between atoms: C_2  and  N_5
REMARK    5  A    between atoms: C_11  and  O_14
REMARK    6  A    between atoms: O_14  and  C_15
REMARK                            x       y       z     vdW  Elec       q    Type
REMARK                         _______ _______ _______ _____ _____    ______ ____
ROOT
ATOM      1  N   UNL     1       0.688  -0.477  -1.203  0.00  0.00    -0.294 N 
ATOM      2  C   UNL     1       1.972  -0.132  -1.427  0.00  0.00    +0.303 C 
ATOM      3  O   UNL     1       2.532   0.644  -0.678  0.00  0.00    -0.253 OA
ATOM      4  N   UNL     1       2.633  -0.647  -2.482  0.00  0.00    -0.285 N 
ATOM      5  C   UNL     1       1.938  -1.494  -3.461  0.00  0.00    +0.113 C 
ATOM      6  C   UNL     1       2.703  -2.813  -3.604  0.00  0.00    +0.063 C 
ATOM      7  C   UNL     1       4.163  -2.516  -3.954  0.00  0.00    +0.179 C 
ATOM      8  C   UNL     1       4.805  -1.705  -2.827  0.00  0.00    +0.063 C 
ATOM      9  C   UNL     1       4.063  -0.369  -2.678  0.00  0.00    +0.113 C 
ATOM     10  H   UNL     1       0.218  -1.038  -1.839  0.00  0.00    +0.151 HD
ENDROOT
BRANCH   1  12
ATOM     11  C   UNL     1      -0.019   1.525   0.011  0.00  0.00    +0.031 C 
ATOM     12  C   UNL     1       0.003  -0.005   0.003  0.00  0.00    +0.028 C 
ATOM     13  C   UNL     1       0.743  -0.511   1.242  0.00  0.00    +0.031 C 
ATOM     14  C   UNL     1      -1.433  -0.535   0.014  0.00  0.00    +0.031 C 
ENDBRANCH   1  12
BRANCH   7  15
ATOM     15  O   UNL     1       4.872  -3.746  -4.120  0.00  0.00    -0.468 OA
BRANCH  15  16
ATOM     16  C   UNL     1       5.911  -3.744  -4.989  0.00  0.00    +0.258 A 
ATOM     17  N   UNL     1       6.375  -2.755  -5.713  0.00  0.00    -0.203 NA
ATOM     18  C   UNL     1       7.430  -2.897  -6.546  0.00  0.00    +0.117 A 
ATOM     19  C   UNL     1       8.026  -1.917  -7.377  0.00  0.00    +0.153 A 
ATOM     20  C   UNL     1       9.101  -2.231  -8.170  0.00  0.00    +0.079 A 
ATOM     21  C   UNL     1       9.641  -3.511  -8.188  0.00  0.00    +0.127 A 
ATOM     22  C   UNL     1       9.082  -4.492  -7.387  0.00  0.00    +0.055 A 
ATOM     23  C   UNL     1       8.006  -4.186  -6.590  0.00  0.00    +0.048 A 
ATOM     24  S   UNL     1       7.002  -5.087  -5.434  0.00  0.00    -0.029 S 
ATOM     25  F   UNL     1      10.699  -3.795  -8.977  0.00  0.00    -0.205 F 
ATOM     26  F   UNL     1       7.530  -0.661  -7.390  0.00  0.00    -0.203 F 
ENDBRANCH  15  16
ENDBRANCH   7  15
TORSDOF 3
