REMARK  Name = ZINC02708660
REMARK  9 active torsions:
REMARK  status: ('A' for Active; 'I' for Inactive)
REMARK    1  A    between atoms: C_1  and  C_2
REMARK    2  A    between atoms: C_7  and  N_8
REMARK    3  A    between atoms: C_13  and  C_14
REMARK    4  A    between atoms: C_13  and  N_63
REMARK    5  A    between atoms: C_14  and  C_16
REMARK    6  A    between atoms: C_14  and  O_34
REMARK    7  A    between atoms: C_16  and  N_17
REMARK    8  A    between atoms: C_26  and  C_32
REMARK    9  A    between atoms: C_27  and  C_31
REMARK                            x       y       z     vdW  Elec       q    Type
REMARK                         _______ _______ _______ _____ _____    ______ ____
ROOT
ATOM      1  C   UNL     1       3.044   2.779  -2.032  0.00  0.00    +0.118 C 
ENDROOT
BRANCH   1   2
ATOM      2  O   UNL     1       2.708   4.005  -2.684  0.00  0.00    -0.392 OA
ATOM      3  H   UNL     1       2.988   4.796  -2.203  0.00  0.00    +0.210 HD
ENDBRANCH   1   2
BRANCH   1   4
ATOM      4  C   UNL     1       4.562   2.690  -1.863  0.00  0.00    -0.045 C 
BRANCH   4  10
ATOM      5  N   UNL     1       6.950   1.817  -5.237  0.00  0.00    -0.333 N 
ATOM      6  C   UNL     1       7.282   3.012  -4.449  0.00  0.00    +0.086 C 
ATOM      7  C   UNL     1       6.660   2.890  -3.056  0.00  0.00    -0.060 C 
ATOM      8  C   UNL     1       4.873   1.539  -3.971  0.00  0.00    -0.060 C 
ATOM      9  C   UNL     1       5.494   1.661  -5.365  0.00  0.00    +0.086 C 
ATOM     10  N   UNL     1       5.195   2.756  -3.198  0.00  0.00    +0.383 N 
ATOM     11  H   UNL     1       4.832   3.576  -3.699  0.00  0.00    -0.082 HD
BRANCH   5  18
ATOM     12  C   UNL     1       8.896  -0.166  -5.849  0.00  0.00    +0.045 C 
ATOM     13  C   UNL     1       8.517   0.911  -6.833  0.00  0.00    -0.029 A 
ATOM     14  C   UNL     1       9.118   0.955  -8.076  0.00  0.00    +0.005 A 
ATOM     15  C   UNL     1       8.770   1.942  -8.980  0.00  0.00    +0.000 A 
ATOM     16  C   UNL     1       7.819   2.888  -8.643  0.00  0.00    +0.002 A 
ATOM     17  C   UNL     1       7.210   2.846  -7.404  0.00  0.00    +0.023 A 
ATOM     18  C   UNL     1       7.561   1.859  -6.492  0.00  0.00    +0.033 A 
ENDBRANCH   5  18
ENDBRANCH   4  10
ENDBRANCH   1   4
BRANCH   1  19
ATOM     19  C   UNL     1       2.374   2.732  -0.657  0.00  0.00    +0.153 C 
BRANCH  19  20
ATOM     20  N   UNL     1       0.919   2.697  -0.823  0.00  0.00    -0.322 N 
ATOM     21  C   UNL     1       0.142   1.552  -0.939  0.00  0.00    +0.068 A 
ATOM     22  C   UNL     1       0.445   0.197  -0.937  0.00  0.00    +0.028 A 
ATOM     23  C   UNL     1      -0.565  -0.734  -1.074  0.00  0.00    +0.002 A 
ATOM     24  C   UNL     1      -1.879  -0.322  -1.220  0.00  0.00    +0.002 A 
ATOM     25  C   UNL     1      -2.192   1.023  -1.217  0.00  0.00    +0.028 A 
ATOM     26  C   UNL     1      -1.183   1.966  -1.080  0.00  0.00    +0.075 A 
ATOM     27  N   UNL     1      -1.187   3.360  -1.047  0.00  0.00    -0.260 N 
ATOM     28  C   UNL     1       0.096   3.784  -0.891  0.00  0.00    +0.140 A 
ATOM     29  C   UNL     1       0.377   5.156  -0.825  0.00  0.00    +0.096 A 
ATOM     30  C   UNL     1      -0.678   6.083  -0.923  0.00  0.00    -0.024 A 
ATOM     31  C   UNL     1      -1.953   5.625  -1.079  0.00  0.00    +0.075 A 
ATOM     32  C   UNL     1      -2.197   4.247  -1.141  0.00  0.00    +0.258 A 
ATOM     33  O   UNL     1      -3.340   3.845  -1.280  0.00  0.00    -0.267 OA
ATOM     34  C   UNL     1      -0.402   7.563  -0.855  0.00  0.00    +0.045 C 
BRANCH  29  35
ATOM     35  C   UNL     1       1.725   5.610  -0.660  0.00  0.00    +0.103 C 
ATOM     36  N   UNL     1       2.795   5.970  -0.529  0.00  0.00    -0.191 NA
ENDBRANCH  29  35
ENDBRANCH  19  20
ENDBRANCH   1  19
TORSDOF 7
