REMARK  Name = ZINC13503376
REMARK  6 active torsions:
REMARK  status: ('A' for Active; 'I' for Inactive)
REMARK    1  A    between atoms: C_1  and  C_2
REMARK    2  A    between atoms: C_2  and  C_3
REMARK    3  A    between atoms: C_3  and  C_4
REMARK    4  A    between atoms: C_4  and  C_6
REMARK    5  A    between atoms: C_4  and  N_16
REMARK    6  A    between atoms: N_10  and  C_11
REMARK                            x       y       z     vdW  Elec       q    Type
REMARK                         _______ _______ _______ _____ _____    ______ ____
ROOT
ATOM      1  N   UNL     1       3.001  -1.790   0.845  0.00  0.00    -0.290 NA
ATOM      2  C   UNL     1       3.705  -3.078   0.785  0.00  0.00    +0.104 C 
ATOM      3  C   UNL     1       4.972  -3.004   1.640  0.00  0.00    +0.123 C 
ATOM      4  N   UNL     1       4.607  -2.671   3.024  0.00  0.00    -0.299 N 
ATOM      5  C   UNL     1       3.903  -1.383   3.084  0.00  0.00    +0.123 C 
ATOM      6  C   UNL     1       2.636  -1.457   2.229  0.00  0.00    +0.104 C 
ATOM      7  C   UNL     1       5.720  -2.666   3.841  0.00  0.00    +0.201 A 
ATOM      8  N   UNL     1       6.024  -1.578   4.542  0.00  0.00    -0.300 N 
ATOM      9  C   UNL     1       7.092  -1.574   5.333  0.00  0.00    +0.201 A 
ATOM     10  N   UNL     1       7.863  -2.654   5.414  0.00  0.00    -0.182 NA
ATOM     11  C   UNL     1       7.562  -3.740   4.709  0.00  0.00    +0.224 A 
ATOM     12  N   UNL     1       6.490  -3.746   3.922  0.00  0.00    -0.182 NA
ATOM     13  N   UNL     1       8.362  -4.862   4.793  0.00  0.00    -0.299 N 
ATOM     14  C   UNL     1       8.366  -5.410   6.174  0.00  0.00    +0.108 C 
ATOM     15  C   UNL     1       8.834  -6.873   5.973  0.00  0.00    +0.020 C 
ATOM     16  C   UNL     1       8.149  -7.276   4.647  0.00  0.00    +0.020 C 
ATOM     17  C   UNL     1       7.846  -5.947   3.930  0.00  0.00    +0.108 C 
ATOM     18  N   UNL     1       7.405  -0.447   6.066  0.00  0.00    -0.301 N 
ATOM     19  C   UNL     1       8.720   0.108   5.654  0.00  0.00    +0.108 C 
ATOM     20  C   UNL     1       8.658   1.573   6.153  0.00  0.00    +0.020 C 
ATOM     21  C   UNL     1       7.185   1.965   5.894  0.00  0.00    +0.020 C 
ATOM     22  C   UNL     1       6.420   0.630   5.826  0.00  0.00    +0.108 C 
ATOM     23  H   UNL     1       5.391  -0.681   4.468  0.00  0.00    +0.171 HD
ENDROOT
BRANCH   1  24
ATOM     24  C   UNL     1       1.817  -1.796  -0.025  0.00  0.00    +0.127 C 
BRANCH  24  25
ATOM     25  C   UNL     1       0.802  -2.771   0.515  0.00  0.00    +0.169 A 
ATOM     26  N   UNL     1       0.273  -2.766   1.714  0.00  0.00    -0.112 NA
ATOM     27  N   UNL     1      -0.548  -3.756   1.791  0.00  0.00    -0.023 NA
ATOM     28  N   UNL     1      -0.556  -4.393   0.672  0.00  0.00    -0.044 NA
ATOM     29  N   UNL     1       0.264  -3.816  -0.141  0.00  0.00    -0.225 N 
BRANCH  29  30
ATOM     30  C   UNL     1       0.553  -4.221  -1.518  0.00  0.00    +0.111 C 
ATOM     31  C   UNL     1      -0.746  -4.233  -2.350  0.00  0.00    +0.027 C 
ATOM     32  C   UNL     1      -0.583  -5.453  -3.291  0.00  0.00    +0.002 C 
ATOM     33  C   UNL     1       0.118  -6.494  -2.384  0.00  0.00    +0.002 C 
ATOM     34  C   UNL     1       1.103  -5.659  -1.540  0.00  0.00    +0.027 C 
ENDBRANCH  29  30
ENDBRANCH  24  25
BRANCH  24  35
ATOM     35  C   UNL     1       1.206  -0.394  -0.064  0.00  0.00    +0.026 C 
BRANCH  35  37
ATOM     36  C   UNL     1       1.558   1.958  -0.831  0.00  0.00    +0.004 C 
ATOM     37  C   UNL     1       2.212   0.584  -0.676  0.00  0.00    -0.001 C 
ENDBRANCH  35  37
ENDBRANCH  24  35
ENDBRANCH   1  24
TORSDOF 5
