REMARK  Name = ZINC10384388
REMARK  6 active torsions:
REMARK  status: ('A' for Active; 'I' for Inactive)
REMARK    1  A    between atoms: C_2  and  N_9
REMARK    2  A    between atoms: C_10  and  C_12
REMARK    3  A    between atoms: C_12  and  C_13
REMARK    4  A    between atoms: C_26  and  C_27
REMARK    5  A    between atoms: C_26  and  N_66
REMARK    6  A    between atoms: C_32  and  C_35
REMARK                            x       y       z     vdW  Elec       q    Type
REMARK                         _______ _______ _______ _____ _____    ______ ____
ROOT
ATOM      1  C   UNL     1       0.036   5.927  -1.885  0.00  0.00    +0.029 C 
ATOM      2  C   UNL     1      -0.648   6.915  -0.984  0.00  0.00    +0.200 C 
ATOM      3  O   UNL     1      -0.244   8.059  -0.972  0.00  0.00    -0.278 OA
ATOM      4  N   UNL     1      -1.678   6.597  -0.194  0.00  0.00    -0.315 N 
ATOM      5  C   UNL     1      -2.200   5.231  -0.095  0.00  0.00    +0.059 C 
ATOM      6  C   UNL     1      -1.613   4.576   1.158  0.00  0.00    +0.021 C 
ATOM      7  C   UNL     1      -2.082   3.125   1.257  0.00  0.00    +0.002 C 
ATOM      8  C   UNL     1      -1.599   2.354   0.026  0.00  0.00    -0.001 C 
ATOM      9  C   UNL     1      -2.203   2.987  -1.229  0.00  0.00    -0.013 C 
ATOM     10  C   UNL     1      -1.779   4.446  -1.336  0.00  0.00    -0.046 C 
ATOM     11  H   UNL     1      -2.096   7.296   0.333  0.00  0.00    +0.149 HD
ATOM     12  N   UNL     1      -0.316   4.554  -1.479  0.00  0.00    +0.396 N 
ATOM     13  H   UNL     1       0.126   4.346  -0.576  0.00  0.00    -0.080 HD
ENDROOT
BRANCH   1  14
ATOM     14  C   UNL     1       1.552   6.104  -1.773  0.00  0.00    +0.090 C 
BRANCH  14  16
ATOM     15  N   UNL     1       3.249   6.197   0.024  0.00  0.00    -0.285 N 
ATOM     16  C   UNL     1       1.968   5.973  -0.331  0.00  0.00    +0.216 C 
ATOM     17  O   UNL     1       1.151   5.665   0.511  0.00  0.00    -0.276 OA
ATOM     18  H   UNL     1       3.880   6.541  -0.628  0.00  0.00    +0.155 HD
BRANCH  15  20
ATOM     19  C   UNL     1       4.662   6.712   1.913  0.00  0.00    +0.043 A 
ATOM     20  C   UNL     1       3.668   5.935   1.333  0.00  0.00    +0.036 A 
ATOM     21  C   UNL     1       3.088   4.901   2.055  0.00  0.00    +0.043 A 
ATOM     22  C   UNL     1       3.509   4.640   3.346  0.00  0.00    +0.044 A 
ATOM     23  C   UNL     1       4.499   5.416   3.922  0.00  0.00    +0.040 A 
ATOM     24  C   UNL     1       5.075   6.450   3.207  0.00  0.00    +0.044 A 
ATOM     25 CL   UNL     1       6.317   7.421   3.933  0.00  0.00    -0.083 Cl
ATOM     26 CL   UNL     1       2.788   3.342   4.247  0.00  0.00    -0.083 Cl
ENDBRANCH  15  20
ENDBRANCH  14  16
ENDBRANCH   1  14
BRANCH  12  27
ATOM     27  C   UNL     1       0.169   3.585  -2.487  0.00  0.00    +0.020 C 
BRANCH  27  28
ATOM     28  C   UNL     1      -0.524   3.814  -3.806  0.00  0.00    +0.199 C 
ATOM     29  O   UNL     1      -1.282   4.752  -3.937  0.00  0.00    -0.278 OA
ATOM     30  N   UNL     1      -0.302   2.977  -4.838  0.00  0.00    -0.303 N 
ATOM     31  C   UNL     1       0.521   1.773  -4.662  0.00  0.00    +0.108 C 
ATOM     32  C   UNL     1      -0.284   0.556  -5.144  0.00  0.00    +0.032 C 
ATOM     33  C   UNL     1      -0.747   0.796  -6.583  0.00  0.00    +0.078 C 
ATOM     34  C   UNL     1      -1.658   2.025  -6.630  0.00  0.00    +0.032 C 
ATOM     35  C   UNL     1      -0.873   3.255  -6.163  0.00  0.00    +0.108 C 
BRANCH  33  36
ATOM     36  C   UNL     1      -1.506  -0.410  -7.074  0.00  0.00    +0.214 C 
ATOM     37  O   UNL     1      -2.700  -0.335  -7.275  0.00  0.00    -0.276 OA
ATOM     38  N   UNL     1      -0.858  -1.572  -7.289  0.00  0.00    -0.329 N 
ATOM     39  H   UNL     1       0.081  -1.653  -7.061  0.00  0.00    +0.145 HD
ATOM     40  H   UNL     1      -1.331  -2.327  -7.673  0.00  0.00    +0.145 HD
ENDBRANCH  33  36
ENDBRANCH  27  28
ENDBRANCH  12  27
TORSDOF 6
