REMARK  Name = ZINC12758604
REMARK  11 active torsions:
REMARK  status: ('A' for Active; 'I' for Inactive)
REMARK    1  A    between atoms: C_1  and  C_2
REMARK    2  A    between atoms: C_2  and  C_4
REMARK    3  A    between atoms: C_2  and  S_17
REMARK    4  A    between atoms: N_6  and  C_7
REMARK    5  A    between atoms: N_10  and  C_13
REMARK    6  A    between atoms: C_13  and  C_14
REMARK    7  A    between atoms: C_14  and  C_15
REMARK    8  A    between atoms: C_14  and  C_16
REMARK    9  A    between atoms: S_17  and  C_18
REMARK   10  A    between atoms: C_18  and  C_19
REMARK   11  A    between atoms: C_25  and  C_30
REMARK                            x       y       z     vdW  Elec       q    Type
REMARK                         _______ _______ _______ _____ _____    ______ ____
ROOT
ATOM      1  S   UNL     1      -1.450  -0.257  -0.401  0.00  0.00    -0.141 S 
ENDROOT
BRANCH   1   3
ATOM      2  C   UNL     1       0.193   1.900  -0.037  0.00  0.00    +0.029 C 
ATOM      3  C   UNL     1       0.239   0.383  -0.232  0.00  0.00    +0.129 C 
BRANCH   3   4
ATOM      4  C   UNL     1       0.902  -0.257   0.960  0.00  0.00    +0.226 C 
ATOM      5  O   UNL     1       0.226  -0.767   1.829  0.00  0.00    -0.275 OA
ATOM      6  N   UNL     1       2.246  -0.263   1.062  0.00  0.00    -0.312 N 
ATOM      7  H   UNL     1       2.787   0.145   0.367  0.00  0.00    +0.149 HD
BRANCH   6   8
ATOM      8  C   UNL     1       2.890  -0.885   2.221  0.00  0.00    +0.069 C 
ATOM      9  C   UNL     1       2.964   0.125   3.370  0.00  0.00    +0.003 C 
ATOM     10  C   UNL     1       3.708  -0.505   4.549  0.00  0.00    -0.077 C 
ATOM     11  N   UNL     1       5.066  -0.876   4.133  0.00  0.00    +0.380 N 
ATOM     12  C   UNL     1       5.004  -1.897   3.082  0.00  0.00    -0.077 C 
ATOM     13  C   UNL     1       4.309  -1.321   1.846  0.00  0.00    +0.003 C 
ATOM     14  H   UNL     1       5.543  -0.060   3.780  0.00  0.00    -0.082 HD
BRANCH  11  15
ATOM     15  C   UNL     1       5.802  -1.408   5.288  0.00  0.00    -0.076 C 
BRANCH  15  16
ATOM     16  C   UNL     1       7.260  -1.653   4.895  0.00  0.00    -0.034 C 
ATOM     17  C   UNL     1       7.924  -0.320   4.542  0.00  0.00    +0.005 C 
ATOM     18  C   UNL     1       8.003  -2.298   6.067  0.00  0.00    +0.005 C 
ENDBRANCH  15  16
ENDBRANCH  11  15
ENDBRANCH   6   8
ENDBRANCH   3   4
ENDBRANCH   1   3
BRANCH   1  19
ATOM     19  C   UNL     1      -2.047   0.484  -1.946  0.00  0.00    +0.144 C 
BRANCH  19  20
ATOM     20  C   UNL     1      -3.459   0.028  -2.208  0.00  0.00    +0.121 A 
ATOM     21  N   UNL     1      -4.104   0.460  -3.322  0.00  0.00    -0.310 N 
ATOM     22  H   UNL     1      -3.646   1.057  -3.934  0.00  0.00    +0.170 HD
ATOM     23  C   UNL     1      -5.365   0.076  -3.594  0.00  0.00    +0.260 A 
ATOM     24  O   UNL     1      -5.930   0.473  -4.598  0.00  0.00    -0.267 OA
ATOM     25  C   UNL     1      -6.033  -0.805  -2.684  0.00  0.00    +0.080 A 
ATOM     26  C   UNL     1      -7.381  -1.356  -2.756  0.00  0.00    +0.004 A 
ATOM     27  C   UNL     1      -7.801  -2.180  -1.766  0.00  0.00    +0.056 A 
ATOM     28  S   UNL     1      -6.396  -2.262  -0.673  0.00  0.00    -0.076 S 
ATOM     29  C   UNL     1      -5.288  -1.198  -1.561  0.00  0.00    +0.116 A 
ATOM     30  N   UNL     1      -4.040  -0.781  -1.363  0.00  0.00    -0.226 NA
BRANCH  26  31
ATOM     31  C   UNL     1      -8.274  -1.021  -3.891  0.00  0.00    -0.017 A 
ATOM     32  C   UNL     1      -8.458   0.308  -4.268  0.00  0.00    +0.008 A 
ATOM     33  C   UNL     1      -9.291   0.614  -5.325  0.00  0.00    +0.001 A 
ATOM     34  C   UNL     1      -9.942  -0.396  -6.010  0.00  0.00    +0.000 A 
ATOM     35  C   UNL     1      -9.764  -1.717  -5.640  0.00  0.00    +0.001 A 
ATOM     36  C   UNL     1      -8.929  -2.035  -4.588  0.00  0.00    +0.008 A 
ENDBRANCH  26  31
ENDBRANCH  19  20
ENDBRANCH   1  19
TORSDOF 8
