REMARK  Name = ZINC28911120
REMARK  9 active torsions:
REMARK  status: ('A' for Active; 'I' for Inactive)
REMARK    1  A    between atoms: C_1  and  O_2
REMARK    2  A    between atoms: O_2  and  C_3
REMARK    3  A    between atoms: C_6  and  N_11
REMARK    4  A    between atoms: C_7  and  O_9
REMARK    5  A    between atoms: O_9  and  C_10
REMARK    6  A    between atoms: C_12  and  C_23
REMARK    7  A    between atoms: C_26  and  O_30
REMARK    8  A    between atoms: C_27  and  O_29
REMARK    9  A    between atoms: O_30  and  C_31
REMARK                            x       y       z     vdW  Elec       q    Type
REMARK                         _______ _______ _______ _____ _____    ______ ____
ROOT
ATOM      1  N   UNL     1      -3.577   1.814  -0.535  0.00  0.00    -0.241 N 
ATOM      2  C   UNL     1      -2.465   1.037   0.011  0.00  0.00    +0.198 C 
ATOM      3  N   UNL     1      -2.284  -0.202  -0.755  0.00  0.00    -0.321 N 
ATOM      4  C   UNL     1      -2.354  -0.148  -2.143  0.00  0.00    +0.041 A 
ATOM      5  C   UNL     1      -1.659  -1.040  -2.942  0.00  0.00    +0.024 A 
ATOM      6  C   UNL     1      -1.768  -0.953  -4.317  0.00  0.00    +0.002 A 
ATOM      7  C   UNL     1      -2.566   0.018  -4.901  0.00  0.00    +0.001 A 
ATOM      8  C   UNL     1      -3.261   0.917  -4.119  0.00  0.00    +0.015 A 
ATOM      9  C   UNL     1      -3.157   0.844  -2.731  0.00  0.00    +0.058 A 
ATOM     10  C   UNL     1      -3.861   1.796  -1.853  0.00  0.00    +0.254 C 
ATOM     11  O   UNL     1      -4.689   2.558  -2.313  0.00  0.00    -0.270 OA
ATOM     12  H   UNL     1      -2.098  -1.151  -0.230  0.00  0.00    +0.148 HD
ENDROOT
BRANCH   1  16
ATOM     13  C   UNL     1      -5.918   4.128   2.032  0.00  0.00    +0.124 A 
ATOM     14  C   UNL     1      -4.810   4.685   1.409  0.00  0.00    +0.047 A 
ATOM     15  C   UNL     1      -4.036   3.919   0.559  0.00  0.00    +0.031 A 
ATOM     16  C   UNL     1      -4.364   2.591   0.327  0.00  0.00    +0.081 A 
ATOM     17  C   UNL     1      -5.478   2.032   0.948  0.00  0.00    +0.145 A 
ATOM     18  C   UNL     1      -6.250   2.801   1.804  0.00  0.00    +0.093 A 
BRANCH  13  20
ATOM     19  C   UNL     1      -6.278   6.243   3.058  0.00  0.00    +0.277 C 
ATOM     20  O   UNL     1      -6.678   4.885   2.868  0.00  0.00    -0.495 OA
ENDBRANCH  13  20
BRANCH  17  21
ATOM     21  O   UNL     1      -5.806   0.733   0.719  0.00  0.00    -0.493 OA
ATOM     22  C   UNL     1      -6.961   0.227   1.390  0.00  0.00    +0.277 C 
ENDBRANCH  17  21
ENDBRANCH   1  16
BRANCH   2  23
ATOM     23  C   UNL     1      -1.202   1.856  -0.061  0.00  0.00    -0.005 A 
ATOM     24  C   UNL     1      -0.453   2.071   1.081  0.00  0.00    +0.011 A 
ATOM     25  C   UNL     1       0.704   2.826   1.021  0.00  0.00    +0.050 A 
ATOM     26  C   UNL     1       1.118   3.364  -0.187  0.00  0.00    +0.161 A 
ATOM     27  C   UNL     1       0.367   3.143  -1.337  0.00  0.00    +0.159 A 
ATOM     28  C   UNL     1      -0.791   2.386  -1.270  0.00  0.00    +0.056 A 
BRANCH  27  29
ATOM     29  O   UNL     1       0.769   3.670  -2.525  0.00  0.00    -0.503 OA
ATOM     30  H   UNL     1       0.175   3.494  -3.434  0.00  0.00    +0.292 HD
ENDBRANCH  27  29
BRANCH  26  31
ATOM     31  O   UNL     1       2.255   4.108  -0.247  0.00  0.00    -0.491 OA
ATOM     32  C   UNL     1       2.974   4.293   0.973  0.00  0.00    +0.277 C 
ENDBRANCH  26  31
ENDBRANCH   2  23
TORSDOF 6
