REMARK  Name = ZINC64104263
REMARK  2 active torsions:
REMARK  status: ('A' for Active; 'I' for Inactive)
REMARK    1  A    between atoms: C_1  and  C_2
REMARK    2  A    between atoms: C_16  and  C_18
REMARK                            x       y       z     vdW  Elec       q    Type
REMARK                         _______ _______ _______ _____ _____    ______ ____
ROOT
ATOM      1  C   UNL     1      -1.475   1.002  -0.565  0.00  0.00    +0.044 C 
ATOM      2  C   UNL     1      -1.302  -0.490  -0.448  0.00  0.00    -0.050 A 
ATOM      3  C   UNL     1      -1.419  -1.287  -1.579  0.00  0.00    +0.005 A 
ATOM      4  C   UNL     1      -1.264  -2.653  -1.494  0.00  0.00    +0.026 A 
ATOM      5  C   UNL     1      -0.989  -3.243  -0.264  0.00  0.00    +0.047 A 
ATOM      6  C   UNL     1      -0.871  -2.431   0.880  0.00  0.00    +0.005 A 
ATOM      7  C   UNL     1      -1.027  -1.047   0.768  0.00  0.00    +0.013 A 
ATOM      8  C   UNL     1      -0.587  -3.340   1.985  0.00  0.00    -0.002 A 
ATOM      9  C   UNL     1      -0.550  -4.589   1.483  0.00  0.00    +0.023 A 
ATOM     10  N   UNL     1      -0.785  -4.546   0.137  0.00  0.00    -0.358 N 
ATOM     11  H   UNL     1      -0.806  -5.318  -0.450  0.00  0.00    +0.166 HD
ATOM     12  C   UNL     1      -0.292  -5.826   2.311  0.00  0.00    +0.072 C 
ATOM     13  C   UNL     1       0.355  -5.410   3.638  0.00  0.00    +0.114 C 
ATOM     14  N   UNL     1      -0.377  -4.262   4.193  0.00  0.00    -0.292 N 
ATOM     15  C   UNL     1      -0.364  -2.997   3.437  0.00  0.00    +0.145 C 
ATOM     16  C   UNL     1      -1.042  -4.364   5.361  0.00  0.00    +0.261 C 
ATOM     17  O   UNL     1      -1.133  -5.442   5.917  0.00  0.00    -0.269 OA
ENDROOT
BRANCH  16  18
ATOM     18  C   UNL     1      -1.659  -3.171   5.963  0.00  0.00    +0.109 C 
ATOM     19  N   UNL     1      -1.551  -1.943   5.549  0.00  0.00    -0.234 NA
ATOM     20  C   UNL     1      -2.225  -1.065   6.297  0.00  0.00    +0.140 C 
ATOM     21  C   UNL     1      -2.868  -1.648   7.317  0.00  0.00    +0.038 C 
ATOM     22  C   UNL     1      -2.553  -3.128   7.187  0.00  0.00    +0.106 C 
ATOM     23 BR   UNL     1      -3.941  -0.812   8.631  0.00  0.00    -0.051 Br
ATOM     24 CL   UNL     1      -2.263   0.642   5.983  0.00  0.00    -0.061 Cl
ENDBRANCH  16  18
TORSDOF 1
