REMARK  Name = ZINC24833341
REMARK  8 active torsions:
REMARK  status: ('A' for Active; 'I' for Inactive)
REMARK    1  A    between atoms: C_1  and  C_2
REMARK    2  A    between atoms: C_9  and  C_11
REMARK    3  A    between atoms: N_13  and  N_14
REMARK    4  A    between atoms: C_20  and  C_23
REMARK    5  A    between atoms: N_25  and  C_26
REMARK    6  A    between atoms: C_26  and  C_27
REMARK    7  A    between atoms: C_27  and  C_28
REMARK    8  A    between atoms: C_27  and  C_29
REMARK                            x       y       z     vdW  Elec       q    Type
REMARK                         _______ _______ _______ _____ _____    ______ ____
ROOT
ATOM      1  N   UNL     1      -1.150  -0.694   0.111  0.00  0.00    -0.218 N 
ATOM      2  C   UNL     1       0.002  -0.004   0.002  0.00  0.00    +0.319 C 
ATOM      3  O   UNL     1       1.058  -0.597  -0.103  0.00  0.00    -0.251 OA
ATOM      4  N   UNL     1      -0.016   1.343   0.009  0.00  0.00    -0.284 N 
ATOM      5  C   UNL     1      -1.290   2.075   0.013  0.00  0.00    +0.110 C 
ATOM      6  C   UNL     1      -1.296   3.072  -1.144  0.00  0.00    +0.032 C 
ATOM      7  C   UNL     1      -0.057   3.966  -1.050  0.00  0.00    +0.078 C 
ATOM      8  C   UNL     1       1.204   3.106  -1.157  0.00  0.00    +0.032 C 
ATOM      9  C   UNL     1       1.238   2.109   0.006  0.00  0.00    +0.110 C 
ATOM     10  H   UNL     1      -2.112  -0.161   0.123  0.00  0.00    +0.174 HD
ENDROOT
BRANCH   1  13
ATOM     11  C   UNL     1      -2.277  -2.789   0.216  0.00  0.00    +0.267 C 
ATOM     12  O   UNL     1      -3.342  -2.205   0.138  0.00  0.00    -0.268 OA
ATOM     13  N   UNL     1      -1.123  -2.092   0.209  0.00  0.00    -0.229 N 
ATOM     14  H   UNL     1      -0.161  -2.620   0.280  0.00  0.00    +0.173 HD
BRANCH  11  22
ATOM     15  C   UNL     1      -4.498 -10.030   0.338  0.00  0.00    +0.008 C 
ATOM     16  C   UNL     1      -3.467  -8.918   0.136  0.00  0.00    -0.009 C 
ATOM     17  C   UNL     1      -2.258  -9.176   1.040  0.00  0.00    +0.009 C 
ATOM     18  C   UNL     1      -1.127  -8.219   0.636  0.00  0.00    +0.043 C 
ATOM     19  C   UNL     1      -1.696  -6.838   0.519  0.00  0.00    -0.006 A 
ATOM     20  C   UNL     1      -3.016  -6.495   0.448  0.00  0.00    -0.036 A 
ATOM     21  C   UNL     1      -3.304  -5.143   0.349  0.00  0.00    +0.024 A 
ATOM     22  C   UNL     1      -2.249  -4.251   0.319  0.00  0.00    +0.076 A 
ATOM     23  S   UNL     1      -0.843  -5.344   0.445  0.00  0.00    -0.088 S 
ATOM     24  C   UNL     1      -4.099  -7.570   0.483  0.00  0.00    +0.039 C 
ENDBRANCH  11  22
ENDBRANCH   1  13
BRANCH   7  25
ATOM     25  C   UNL     1      -0.077   4.971  -2.173  0.00  0.00    +0.216 C 
ATOM     26  O   UNL     1       0.829   4.997  -2.979  0.00  0.00    -0.276 OA
ATOM     27  N   UNL     1      -1.101   5.841  -2.281  0.00  0.00    -0.315 N 
ATOM     28  H   UNL     1      -1.922   5.817  -1.549  0.00  0.00    +0.149 HD
BRANCH  27  29
ATOM     29  C   UNL     1      -1.119   6.818  -3.373  0.00  0.00    +0.107 C 
BRANCH  29  30
ATOM     30  C   UNL     1      -2.380   7.678  -3.266  0.00  0.00    -0.000 C 
ATOM     31  C   UNL     1      -2.325   8.507  -1.981  0.00  0.00    +0.009 C 
ATOM     32  C   UNL     1      -2.464   8.613  -4.474  0.00  0.00    +0.009 C 
ENDBRANCH  29  30
ENDBRANCH  27  29
ENDBRANCH   7  25
TORSDOF 5
