REMARK  Name = ZINC20113107
REMARK  7 active torsions:
REMARK  status: ('A' for Active; 'I' for Inactive)
REMARK    1  A    between atoms: C_9  and  C_11
REMARK    2  A    between atoms: C_16  and  O_32
REMARK    3  A    between atoms: C_17  and  C_22
REMARK    4  A    between atoms: C_22  and  N_23
REMARK    5  A    between atoms: N_26  and  C_29
REMARK    6  A    between atoms: C_29  and  C_30
REMARK    7  A    between atoms: C_30  and  O_31
REMARK                            x       y       z     vdW  Elec       q    Type
REMARK                         _______ _______ _______ _____ _____    ______ ____
ROOT
ATOM      1  C   UNL     1       1.944   1.078  -0.346  0.00  0.00    +0.085 A 
ATOM      2  C   UNL     1       3.134   1.778  -0.366  0.00  0.00    +0.028 A 
ATOM      3  C   UNL     1       4.351   1.059  -0.252  0.00  0.00    +0.019 A 
ATOM      4  C   UNL     1       5.577   1.742  -0.264  0.00  0.00    +0.015 A 
ATOM      5  C   UNL     1       6.745   1.047  -0.158  0.00  0.00    +0.046 A 
ATOM      6  C   UNL     1       6.730  -0.342  -0.038  0.00  0.00    +0.122 A 
ATOM      7  C   UNL     1       5.530  -1.033  -0.024  0.00  0.00    +0.020 A 
ATOM      8  C   UNL     1       4.331  -0.343  -0.130  0.00  0.00    +0.144 A 
ATOM      9  O   UNL     1       3.162  -1.019  -0.117  0.00  0.00    -0.421 OA
ATOM     10  C   UNL     1       1.984  -0.382  -0.218  0.00  0.00    +0.347 A 
ATOM     11  O   UNL     1       0.946  -1.018  -0.203  0.00  0.00    -0.244 OA
ENDROOT
BRANCH   1  20
ATOM     12  C   UNL     1      -4.110   2.966  -0.868  0.00  0.00    +0.001 A 
ATOM     13  C   UNL     1      -4.035   1.575  -0.858  0.00  0.00    +0.002 A 
ATOM     14  C   UNL     1      -2.837   0.937  -0.754  0.00  0.00    +0.028 A 
ATOM     15  C   UNL     1      -1.652   1.689  -0.655  0.00  0.00    +0.072 A 
ATOM     16  C   UNL     1      -1.732   3.104  -0.665  0.00  0.00    +0.000 A 
ATOM     17  C   UNL     1      -2.984   3.728  -0.774  0.00  0.00    +0.010 A 
ATOM     18  C   UNL     1      -0.546   3.860  -0.561  0.00  0.00    +0.012 A 
ATOM     19  C   UNL     1       0.638   3.193  -0.463  0.00  0.00    +0.029 A 
ATOM     20  C   UNL     1       0.652   1.788  -0.458  0.00  0.00    +0.079 A 
ATOM     21  N   UNL     1      -0.464   1.088  -0.552  0.00  0.00    -0.246 NA
ENDBRANCH   1  20
BRANCH   6  22
ATOM     22  O   UNL     1       7.900  -1.021   0.067  0.00  0.00    -0.506 OA
ATOM     23  H   UNL     1       7.894  -2.117   0.163  0.00  0.00    +0.292 HD
ENDBRANCH   6  22
BRANCH   7  24
ATOM     24  C   UNL     1       5.527  -2.535   0.107  0.00  0.00    -0.035 C 
BRANCH  24  25
ATOM     25  N   UNL     1       5.579  -3.143  -1.229  0.00  0.00    +0.384 N 
ATOM     26  C   UNL     1       4.352  -2.858  -1.986  0.00  0.00    -0.063 C 
ATOM     27  C   UNL     1       4.479  -3.438  -3.396  0.00  0.00    +0.066 C 
ATOM     28  N   UNL     1       4.715  -4.886  -3.308  0.00  0.00    -0.304 NA
ATOM     29  C   UNL     1       5.942  -5.171  -2.551  0.00  0.00    +0.066 C 
ATOM     30  C   UNL     1       5.815  -4.590  -1.141  0.00  0.00    -0.063 C 
ATOM     31  H   UNL     1       6.424  -2.693  -1.771  0.00  0.00    -0.081 HD
BRANCH  28  32
ATOM     32  C   UNL     1       4.767  -5.494  -4.644  0.00  0.00    +0.112 C 
BRANCH  32  33
ATOM     33  C   UNL     1       4.524  -7.000  -4.529  0.00  0.00    +0.171 C 
BRANCH  33  34
ATOM     34  O   UNL     1       3.199  -7.233  -4.047  0.00  0.00    -0.394 OA
ATOM     35  H   UNL     1       2.841  -8.263  -3.899  0.00  0.00    +0.209 HD
ENDBRANCH  33  34
ENDBRANCH  32  33
ENDBRANCH  28  32
ENDBRANCH  24  25
ENDBRANCH   7  24
TORSDOF 7
