REMARK  Name = ZINC37425151
REMARK  10 active torsions:
REMARK  status: ('A' for Active; 'I' for Inactive)
REMARK    1  A    between atoms: C_1  and  C_2
REMARK    2  A    between atoms: C_2  and  C_3
REMARK    3  A    between atoms: C_2  and  C_4
REMARK    4  A    between atoms: C_2  and  C_5
REMARK    5  A    between atoms: N_8  and  C_10
REMARK    6  A    between atoms: N_11  and  C_26
REMARK    7  A    between atoms: C_16  and  C_18
REMARK    8  A    between atoms: C_26  and  C_27
REMARK    9  A    between atoms: N_29  and  C_30
REMARK   10  A    between atoms: C_30  and  C_31
REMARK                            x       y       z     vdW  Elec       q    Type
REMARK                         _______ _______ _______ _____ _____    ______ ____
ROOT
ATOM      1  C   UNL     1       0.699   0.460  -1.100  0.00  0.00    +0.075 A 
ATOM      2  C   UNL     1       1.993  -0.024  -1.292  0.00  0.00    +0.033 A 
ATOM      3  C   UNL     1       2.479   0.530  -2.427  0.00  0.00    +0.131 A 
ATOM      4  N   UNL     1       1.534   1.339  -2.938  0.00  0.00    -0.253 N 
ATOM      5  N   UNL     1       0.418   1.273  -2.089  0.00  0.00    -0.174 NA
ATOM      6  C   UNL     1       1.646   2.139  -4.161  0.00  0.00    +0.174 C 
ATOM      7  N   UNL     1       3.759   0.264  -2.940  0.00  0.00    -0.246 N 
ATOM      8  C   UNL     1       4.152  -1.009  -3.043  0.00  0.00    +0.231 C 
ATOM      9  O   UNL     1       5.329  -1.268  -3.185  0.00  0.00    -0.274 OA
ATOM     10  C   UNL     1       3.146  -2.118  -2.983  0.00  0.00    +0.166 C 
ATOM     11  S   UNL     1       2.827  -2.608  -1.255  0.00  0.00    -0.138 S 
ATOM     12  C   UNL     1       2.748  -0.987  -0.412  0.00  0.00    +0.115 C 
ENDROOT
BRANCH  12  13
ATOM     13  C   UNL     1       2.033  -1.136   0.906  0.00  0.00    +0.005 A 
ATOM     14  C   UNL     1       1.169  -2.196   1.107  0.00  0.00    +0.010 A 
ATOM     15  C   UNL     1       0.512  -2.334   2.314  0.00  0.00    +0.039 A 
ATOM     16  C   UNL     1       0.719  -1.410   3.325  0.00  0.00    +0.126 A 
ATOM     17  C   UNL     1       1.584  -0.348   3.125  0.00  0.00    +0.077 A 
ATOM     18  C   UNL     1       2.245  -0.214   1.917  0.00  0.00    +0.131 A 
ATOM     19  F   UNL     1       3.094   0.819   1.722  0.00  0.00    -0.205 F 
ATOM     20  F   UNL     1       0.076  -1.545   4.506  0.00  0.00    -0.205 F 
ENDBRANCH  12  13
BRANCH   1  22
ATOM     21  C   UNL     1      -1.595   0.729  -0.198  0.00  0.00    +0.017 C 
ATOM     22  C   UNL     1      -0.219   0.103   0.041  0.00  0.00    +0.007 C 
ATOM     23  C   UNL     1       0.364   0.638   1.350  0.00  0.00    +0.017 C 
ATOM     24  C   UNL     1      -0.358  -1.418   0.128  0.00  0.00    +0.017 C 
ENDBRANCH   1  22
BRANCH   7  25
ATOM     25  C   UNL     1       4.642   1.357  -3.353  0.00  0.00    +0.210 C 
BRANCH  25  26
ATOM     26  C   UNL     1       5.588   1.691  -2.228  0.00  0.00    +0.231 C 
ATOM     27  O   UNL     1       5.530   1.077  -1.184  0.00  0.00    -0.274 OA
ATOM     28  N   UNL     1       6.498   2.673  -2.382  0.00  0.00    -0.307 N 
ATOM     29  H   UNL     1       6.545   3.164  -3.217  0.00  0.00    +0.149 HD
BRANCH  28  30
ATOM     30  C   UNL     1       7.418   2.998  -1.289  0.00  0.00    +0.178 C 
BRANCH  30  31
ATOM     31  C   UNL     1       8.327   4.122  -1.714  0.00  0.00    +0.122 A 
ATOM     32  C   UNL     1       8.087   5.435  -1.544  0.00  0.00    +0.046 A 
ATOM     33  C   UNL     1       9.194   6.127  -2.086  0.00  0.00    +0.041 A 
ATOM     34  C   UNL     1      10.044   5.196  -2.555  0.00  0.00    +0.195 A 
ATOM     35  O   UNL     1       9.516   3.983  -2.322  0.00  0.00    -0.466 OA
ENDBRANCH  30  31
ENDBRANCH  28  30
ENDBRANCH  25  26
ENDBRANCH   7  25
TORSDOF 6
