REMARK  Name = ZINC03116666
REMARK  10 active torsions:
REMARK  status: ('A' for Active; 'I' for Inactive)
REMARK    1  A    between atoms: C_1  and  C_2
REMARK    2  A    between atoms: C_3  and  C_13
REMARK    3  A    between atoms: C_4  and  C_7
REMARK    4  A    between atoms: N_15  and  C_16
REMARK    5  A    between atoms: N_15  and  C_29
REMARK    6  A    between atoms: C_16  and  C_17
REMARK    7  A    between atoms: C_17  and  N_18
REMARK    8  A    between atoms: N_18  and  C_19
REMARK    9  A    between atoms: C_22  and  C_24
REMARK   10  A    between atoms: C_29  and  C_30
REMARK                            x       y       z     vdW  Elec       q    Type
REMARK                         _______ _______ _______ _____ _____    ______ ____
ROOT
ATOM      1  C   UNL     1       4.312   1.787  -1.165  0.00  0.00    +0.252 C 
ATOM      2  O   UNL     1       3.933   1.370  -2.244  0.00  0.00    -0.270 OA
ATOM      3  N   UNL     1       3.547   1.614  -0.070  0.00  0.00    -0.292 N 
ENDROOT
BRANCH   1   6
ATOM      4  C   UNL     1       7.201   0.477  -0.807  0.00  0.00    +0.090 C 
ATOM      5  C   UNL     1       6.857   1.942  -0.904  0.00  0.00    +0.147 A 
ATOM      6  C   UNL     1       5.606   2.482  -1.058  0.00  0.00    +0.106 A 
ATOM      7  C   UNL     1       5.877   3.935  -1.082  0.00  0.00    +0.126 A 
ATOM      8  N   UNL     1       7.174   4.043  -0.953  0.00  0.00    -0.077 NA
ATOM      9  O   UNL     1       7.712   2.966  -0.858  0.00  0.00    -0.359 OA
BRANCH   7  10
ATOM     10  C   UNL     1       4.890   5.034  -1.223  0.00  0.00    +0.004 A 
ATOM     11  C   UNL     1       3.768   4.867  -2.032  0.00  0.00    +0.010 A 
ATOM     12  C   UNL     1       2.851   5.891  -2.155  0.00  0.00    +0.001 A 
ATOM     13  C   UNL     1       3.050   7.085  -1.485  0.00  0.00    +0.000 A 
ATOM     14  C   UNL     1       4.165   7.258  -0.685  0.00  0.00    +0.001 A 
ATOM     15  C   UNL     1       5.086   6.239  -0.551  0.00  0.00    +0.010 A 
ENDBRANCH   7  10
ENDBRANCH   1   6
BRANCH   3  16
ATOM     16  C   UNL     1       2.303   0.844  -0.159  0.00  0.00    +0.127 C 
BRANCH  16  17
ATOM     17  C   UNL     1       1.146   1.783  -0.504  0.00  0.00    +0.122 C 
BRANCH  17  18
ATOM     18  N   UNL     1      -0.097   1.014  -0.593  0.00  0.00    -0.328 N 
ATOM     19  H   UNL     1      -0.087   0.056  -0.439  0.00  0.00    +0.147 HD
BRANCH  18  20
ATOM     20  C   UNL     1      -1.292   1.655  -0.903  0.00  0.00    +0.115 A 
ATOM     21  C   UNL     1      -2.468   0.916  -0.998  0.00  0.00    +0.079 A 
ATOM     22  C   UNL     1      -3.650   1.569  -1.302  0.00  0.00    +0.037 A 
ATOM     23  C   UNL     1      -3.613   2.942  -1.513  0.00  0.00    +0.072 A 
ATOM     24  C   UNL     1      -2.410   3.610  -1.409  0.00  0.00    +0.096 A 
ATOM     25 CL   UNL     1      -2.453  -0.799  -0.731  0.00  0.00    -0.080 Cl
ATOM     26  N   UNL     1      -1.231   3.003  -1.106  0.00  0.00    -0.348 N 
ATOM     27  H   UNL     1      -0.351   3.526  -1.036  0.00  0.00    +0.167 HD
BRANCH  23  28
ATOM     28  C   UNL     1      -4.875   3.693  -1.852  0.00  0.00    +0.419 C 
ATOM     29  F   UNL     1      -4.579   5.051  -2.015  0.00  0.00    -0.166 F 
ATOM     30  F   UNL     1      -5.414   3.187  -3.040  0.00  0.00    -0.166 F 
ATOM     31  F   UNL     1      -5.802   3.539  -0.816  0.00  0.00    -0.166 F 
ENDBRANCH  23  28
ENDBRANCH  18  20
ENDBRANCH  17  18
ENDBRANCH  16  17
ENDBRANCH   3  16
BRANCH   3  32
ATOM     32  C   UNL     1       3.959   2.195   1.211  0.00  0.00    +0.143 C 
BRANCH  32  33
ATOM     33  C   UNL     1       4.696   1.158   2.018  0.00  0.00    -0.030 A 
ATOM     34  C   UNL     1       3.993   0.272   2.813  0.00  0.00    +0.006 A 
ATOM     35  C   UNL     1       4.669  -0.683   3.550  0.00  0.00    +0.020 A 
ATOM     36  C   UNL     1       6.050  -0.744   3.500  0.00  0.00    +0.041 A 
ATOM     37  C   UNL     1       6.754   0.146   2.709  0.00  0.00    +0.020 A 
ATOM     38  C   UNL     1       6.077   1.097   1.969  0.00  0.00    +0.006 A 
ATOM     39 CL   UNL     1       6.900  -1.939   4.430  0.00  0.00    -0.084 Cl
ENDBRANCH  32  33
ENDBRANCH   3  32
TORSDOF 9
