REMARK  Name = ZINC12850117
REMARK  11 active torsions:
REMARK  status: ('A' for Active; 'I' for Inactive)
REMARK    1  A    between atoms: C_1  and  C_2
REMARK    2  A    between atoms: C_2  and  O_3
REMARK    3  A    between atoms: O_3  and  C_4
REMARK    4  A    between atoms: C_9  and  C_10
REMARK    5  A    between atoms: N_12  and  C_13
REMARK    6  A    between atoms: N_12  and  C_21
REMARK    7  A    between atoms: C_13  and  C_14
REMARK    8  A    between atoms: C_14  and  C_15
REMARK    9  A    between atoms: C_22  and  N_37
REMARK   10  A    between atoms: N_23  and  C_30
REMARK   11  A    between atoms: C_30  and  C_31
REMARK                            x       y       z     vdW  Elec       q    Type
REMARK                         _______ _______ _______ _____ _____    ______ ____
ROOT
ATOM      1  C   UNL     1      -4.185  -1.227  -1.456  0.00  0.00    +0.255 C 
ATOM      2  O   UNL     1      -4.147  -0.012  -1.409  0.00  0.00    -0.270 OA
ATOM      3  N   UNL     1      -3.084  -1.923  -1.801  0.00  0.00    -0.260 N 
ENDROOT
BRANCH   3   4
ATOM      4  C   UNL     1      -3.137  -3.330  -1.887  0.00  0.00    +0.140 A 
ATOM      5  C   UNL     1      -3.954  -3.946  -2.813  0.00  0.00    +0.128 A 
ATOM      6  N   UNL     1      -3.981  -5.320  -2.877  0.00  0.00    -0.276 N 
ATOM      7  C   UNL     1      -3.227  -6.055  -2.038  0.00  0.00    +0.331 A 
ATOM      8  O   UNL     1      -3.268  -7.268  -2.107  0.00  0.00    -0.246 OA
ATOM      9  N   UNL     1      -2.429  -5.472  -1.126  0.00  0.00    -0.273 N 
ATOM     10  H   UNL     1      -1.879  -6.041  -0.515  0.00  0.00    +0.173 HD
ATOM     11  C   UNL     1      -2.362  -4.130  -1.026  0.00  0.00    +0.277 A 
ATOM     12  O   UNL     1      -1.636  -3.612  -0.195  0.00  0.00    -0.266 OA
BRANCH   5  13
ATOM     13  N   UNL     1      -4.728  -3.196  -3.666  0.00  0.00    -0.343 N 
ATOM     14  H   UNL     1      -4.649  -2.229  -3.668  0.00  0.00    +0.144 HD
ATOM     15  H   UNL     1      -5.353  -3.633  -4.265  0.00  0.00    +0.144 HD
ENDBRANCH   5  13
BRANCH   6  16
ATOM     16  C   UNL     1      -4.839  -5.987  -3.858  0.00  0.00    +0.163 C 
BRANCH  16  17
ATOM     17  C   UNL     1      -6.197  -6.233  -3.253  0.00  0.00    -0.028 A 
ATOM     18  C   UNL     1      -6.451  -7.414  -2.580  0.00  0.00    +0.005 A 
ATOM     19  C   UNL     1      -7.695  -7.637  -2.021  0.00  0.00    +0.000 A 
ATOM     20  C   UNL     1      -8.689  -6.684  -2.143  0.00  0.00    +0.000 A 
ATOM     21  C   UNL     1      -8.437  -5.505  -2.820  0.00  0.00    +0.000 A 
ATOM     22  C   UNL     1      -7.191  -5.280  -3.375  0.00  0.00    +0.005 A 
ENDBRANCH  16  17
ENDBRANCH   6  16
ENDBRANCH   3   4
BRANCH   1  28
ATOM     23  C   UNL     1      -6.673  -1.293  -1.288  0.00  0.00    +0.133 A 
ATOM     24  C   UNL     1      -7.844  -1.972  -0.985  0.00  0.00    +0.046 A 
ATOM     25  C   UNL     1      -7.792  -3.276  -0.537  0.00  0.00    +0.004 A 
ATOM     26  C   UNL     1      -6.573  -3.917  -0.386  0.00  0.00    +0.001 A 
ATOM     27  C   UNL     1      -5.400  -3.260  -0.687  0.00  0.00    +0.017 A 
ATOM     28  C   UNL     1      -5.438  -1.938  -1.137  0.00  0.00    +0.079 A 
BRANCH  23  29
ATOM     29  O   UNL     1      -6.722  -0.011  -1.729  0.00  0.00    -0.491 OA
BRANCH  29  31
ATOM     30  C   UNL     1      -7.872   2.017  -2.365  0.00  0.00    +0.048 C 
ATOM     31  C   UNL     1      -8.017   0.581  -1.859  0.00  0.00    +0.226 C 
ENDBRANCH  29  31
ENDBRANCH  23  29
ENDBRANCH   1  28
BRANCH   3  32
ATOM     32  C   UNL     1      -1.831  -1.219  -2.086  0.00  0.00    +0.118 C 
BRANCH  32  33
ATOM     33  C   UNL     1      -1.099  -0.929  -0.774  0.00  0.00    +0.050 C 
BRANCH  33  34
ATOM     34  C   UNL     1       0.196  -0.216  -1.069  0.00  0.00    -0.072 C 
ATOM     35  C   UNL     1       0.203   1.077  -1.012  0.00  0.00    -0.028 C 
ATOM     36  C   UNL     1       1.410   1.924  -1.290  0.00  0.00    +0.027 C 
ATOM     37  C   UNL     1       2.679   1.071  -1.221  0.00  0.00    +0.004 C 
ATOM     38  C   UNL     1       2.467  -0.184  -2.077  0.00  0.00    +0.005 C 
ATOM     39  C   UNL     1       1.396  -1.050  -1.409  0.00  0.00    +0.030 C 
ENDBRANCH  33  34
ENDBRANCH  32  33
ENDBRANCH   3  32
TORSDOF 10
