REMARK  Name = ZINC39915385
REMARK  8 active torsions:
REMARK  status: ('A' for Active; 'I' for Inactive)
REMARK    1  A    between atoms: C_1  and  C_2
REMARK    2  A    between atoms: C_2  and  C_3
REMARK    3  A    between atoms: C_9  and  C_33
REMARK    4  A    between atoms: C_10  and  C_12
REMARK    5  A    between atoms: N_14  and  C_15
REMARK    6  A    between atoms: C_16  and  C_23
REMARK    7  A    between atoms: N_25  and  C_26
REMARK    8  A    between atoms: C_26  and  C_27
REMARK                            x       y       z     vdW  Elec       q    Type
REMARK                         _______ _______ _______ _____ _____    ______ ____
ROOT
ATOM      1  C   UNL     1       2.749  -3.180   8.761  0.00  0.00    +0.085 A 
ATOM      2  C   UNL     1       3.865  -3.577   9.475  0.00  0.00    +0.069 A 
ATOM      3  C   UNL     1       3.662  -3.979  10.866  0.00  0.00    -0.023 A 
ATOM      4  C   UNL     1       2.383  -3.908  11.277  0.00  0.00    -0.004 A 
ATOM      5  S   UNL     1       1.490  -3.318   9.861  0.00  0.00    -0.077 S 
ATOM      6  C   UNL     1       2.230  -4.336  12.711  0.00  0.00    +0.043 C 
ATOM      7  C   UNL     1       3.534  -5.100  13.032  0.00  0.00    +0.010 C 
ATOM      8  C   UNL     1       4.522  -4.471  12.028  0.00  0.00    +0.037 C 
ENDROOT
BRANCH   1  11
ATOM      9  C   UNL     1       1.504  -2.400   6.906  0.00  0.00    +0.284 C 
ATOM     10  O   UNL     1       0.491  -2.446   7.579  0.00  0.00    -0.266 OA
ATOM     11  N   UNL     1       2.687  -2.759   7.443  0.00  0.00    -0.273 N 
ATOM     12  H   UNL     1       3.494  -2.723   6.907  0.00  0.00    +0.156 HD
BRANCH   9  20
ATOM     13  C   UNL     1       0.731  -0.503   1.223  0.00  0.00    -0.047 A 
ATOM     14  C   UNL     1       2.103  -0.709   1.171  0.00  0.00    +0.007 A 
ATOM     15  C   UNL     1       2.789  -1.164   2.275  0.00  0.00    +0.047 A 
ATOM     16  C   UNL     1       2.105  -1.423   3.458  0.00  0.00    +0.136 A 
ATOM     17  C   UNL     1       0.714  -1.212   3.505  0.00  0.00    +0.024 A 
ATOM     18  C   UNL     1       0.038  -0.745   2.375  0.00  0.00    +0.015 A 
ATOM     19  C   UNL     1       0.305  -1.570   4.862  0.00  0.00    +0.008 A 
ATOM     20  C   UNL     1       1.438  -1.954   5.508  0.00  0.00    +0.194 A 
ATOM     21  O   UNL     1       2.492  -1.863   4.670  0.00  0.00    -0.450 OA
ATOM     22  C   UNL     1      -1.089  -1.521   5.431  0.00  0.00    +0.048 C 
BRANCH  13  24
ATOM     23  C   UNL     1      -0.019   1.526   0.010  0.00  0.00    +0.009 C 
ATOM     24  C   UNL     1       0.002  -0.004   0.002  0.00  0.00    +0.032 C 
ENDBRANCH  13  24
ENDBRANCH   9  20
ENDBRANCH   1  11
BRANCH   2  25
ATOM     25  C   UNL     1       5.197  -3.595   8.862  0.00  0.00    +0.247 C 
ATOM     26  O   UNL     1       5.906  -2.607   8.918  0.00  0.00    -0.270 OA
ATOM     27  N   UNL     1       5.636  -4.705   8.237  0.00  0.00    -0.307 N 
ATOM     28  H   UNL     1       5.071  -5.492   8.193  0.00  0.00    +0.149 HD
BRANCH  27  29
ATOM     29  C   UNL     1       6.967  -4.723   7.625  0.00  0.00    +0.141 C 
BRANCH  29  30
ATOM     30  C   UNL     1       7.213  -6.070   6.996  0.00  0.00    -0.012 A 
ATOM     31  C   UNL     1       7.790  -7.093   7.733  0.00  0.00    +0.008 A 
ATOM     32  C   UNL     1       7.997  -8.316   7.114  0.00  0.00    +0.020 A 
ATOM     33  C   UNL     1       7.625  -8.474   5.792  0.00  0.00    +0.111 A 
ATOM     34  N   UNL     1       7.078  -7.478   5.122  0.00  0.00    -0.263 NA
ATOM     35  C   UNL     1       6.861  -6.303   5.681  0.00  0.00    +0.115 A 
ENDBRANCH  29  30
ENDBRANCH  27  29
ENDBRANCH   2  25
TORSDOF 6
