REMARK  Name = ZINC02312599
REMARK  7 active torsions:
REMARK  status: ('A' for Active; 'I' for Inactive)
REMARK    1  A    between atoms: C_1  and  C_2
REMARK    2  A    between atoms: C_5  and  C_7
REMARK    3  A    between atoms: C_9  and  C_31
REMARK    4  A    between atoms: C_10  and  S_19
REMARK    5  A    between atoms: S_19  and  C_20
REMARK    6  A    between atoms: C_20  and  C_21
REMARK    7  A    between atoms: N_23  and  C_24
REMARK                            x       y       z     vdW  Elec       q    Type
REMARK                         _______ _______ _______ _____ _____    ______ ____
ROOT
ATOM      1  C   UNL     1       1.680  -3.266  -0.020  0.00  0.00    +0.132 C 
ATOM      2  C   UNL     1       2.535  -3.215   1.212  0.00  0.00    +0.072 C 
ATOM      3  C   UNL     1       3.864  -3.498   1.157  0.00  0.00    +0.080 C 
ATOM      4  N   UNL     1       4.449  -3.831  -0.043  0.00  0.00    -0.311 N 
ATOM      5  C   UNL     1       3.842  -3.507  -1.227  0.00  0.00    +0.016 C 
ATOM      6  C   UNL     1       2.524  -3.221  -1.268  0.00  0.00    +0.027 C 
ATOM      7  C   UNL     1       1.898  -2.871  -2.477  0.00  0.00    +0.162 C 
ATOM      8  O   UNL     1       0.708  -2.626  -2.483  0.00  0.00    -0.292 OA
ATOM      9  C   UNL     1       2.673  -2.793  -3.764  0.00  0.00    +0.080 C 
ATOM     10  C   UNL     1       4.130  -2.438  -3.448  0.00  0.00    +0.014 C 
ATOM     11  C   UNL     1       4.683  -3.483  -2.479  0.00  0.00    +0.051 C 
ATOM     12  H   UNL     1       5.298  -4.298  -0.051  0.00  0.00    +0.152 HD
ENDROOT
BRANCH   1  17
ATOM     13  C   UNL     1      -0.021   1.483  -0.019  0.00  0.00    +0.086 C 
ATOM     14  C   UNL     1      -0.001  -0.024  -0.017  0.00  0.00    +0.102 A 
ATOM     15  C   UNL     1      -1.081  -0.825  -0.009  0.00  0.00    +0.044 A 
ATOM     16  C   UNL     1      -0.605  -2.156  -0.009  0.00  0.00    +0.046 A 
ATOM     17  C   UNL     1       0.739  -2.089  -0.017  0.00  0.00    +0.118 A 
ATOM     18  O   UNL     1       1.099  -0.795  -0.028  0.00  0.00    -0.464 OA
ENDBRANCH   1  17
BRANCH   2  19
ATOM     19  C   UNL     1       1.942  -2.862   2.467  0.00  0.00    +0.098 C 
ATOM     20  N   UNL     1       1.471  -2.583   3.462  0.00  0.00    -0.191 NA
ENDBRANCH   2  19
BRANCH   3  21
ATOM     21  S   UNL     1       4.838  -3.438   2.623  0.00  0.00    -0.100 S 
BRANCH  21  22
ATOM     22  C   UNL     1       6.505  -3.880   2.061  0.00  0.00    +0.171 C 
BRANCH  22  23
ATOM     23  C   UNL     1       7.451  -3.866   3.234  0.00  0.00    +0.227 C 
ATOM     24  O   UNL     1       7.041  -3.585   4.341  0.00  0.00    -0.275 OA
ATOM     25  N   UNL     1       8.753  -4.166   3.054  0.00  0.00    -0.285 N 
ATOM     26  H   UNL     1       9.068  -4.455   2.183  0.00  0.00    +0.155 HD
BRANCH  25  27
ATOM     27  C   UNL     1       9.650  -4.059   4.123  0.00  0.00    +0.033 A 
ATOM     28  C   UNL     1      10.954  -3.639   3.897  0.00  0.00    +0.024 A 
ATOM     29  C   UNL     1      11.838  -3.534   4.953  0.00  0.00    +0.017 A 
ATOM     30  C   UNL     1      11.424  -3.847   6.236  0.00  0.00    +0.018 A 
ATOM     31  C   UNL     1      10.125  -4.266   6.464  0.00  0.00    +0.017 A 
ATOM     32  C   UNL     1       9.236  -4.367   5.412  0.00  0.00    +0.024 A 
ATOM     33 BR   UNL     1      12.636  -3.703   7.680  0.00  0.00    -0.050 Br
ENDBRANCH  25  27
ENDBRANCH  22  23
ENDBRANCH  21  22
ENDBRANCH   3  21
TORSDOF 6
