REMARK  Name = ZINC12912245
REMARK  11 active torsions:
REMARK  status: ('A' for Active; 'I' for Inactive)
REMARK    1  A    between atoms: C_1  and  C_2
REMARK    2  A    between atoms: N_5  and  S_11
REMARK    3  A    between atoms: C_7  and  C_10
REMARK    4  A    between atoms: S_11  and  C_14
REMARK    5  A    between atoms: C_17  and  C_20
REMARK    6  A    between atoms: N_22  and  C_23
REMARK    7  A    between atoms: C_23  and  C_24
REMARK    8  A    between atoms: C_24  and  C_26
REMARK    9  A    between atoms: C_24  and  N_34
REMARK   10  A    between atoms: N_34  and  C_35
REMARK   11  A    between atoms: N_34  and  C_36
REMARK                            x       y       z     vdW  Elec       q    Type
REMARK                         _______ _______ _______ _____ _____    ______ ____
ROOT
ATOM      1  C   UNL     1       1.346  -4.499  -5.351  0.00  0.00    +0.244 C 
ATOM      2  O   UNL     1       1.400  -3.738  -6.298  0.00  0.00    -0.270 OA
ATOM      3  N   UNL     1       2.174  -5.561  -5.292  0.00  0.00    -0.313 N 
ATOM      4  H   UNL     1       2.131  -6.168  -4.537  0.00  0.00    +0.149 HD
ENDROOT
BRANCH   1   8
ATOM      5  C   UNL     1      -1.449  -3.808  -2.228  0.00  0.00    +0.106 A 
ATOM      6  C   UNL     1      -1.391  -2.941  -3.304  0.00  0.00    +0.029 A 
ATOM      7  C   UNL     1      -0.485  -3.159  -4.322  0.00  0.00    +0.015 A 
ATOM      8  C   UNL     1       0.373  -4.258  -4.264  0.00  0.00    +0.037 A 
ATOM      9  C   UNL     1       0.309  -5.130  -3.176  0.00  0.00    +0.015 A 
ATOM     10  C   UNL     1      -0.597  -4.897  -2.162  0.00  0.00    +0.029 A 
BRANCH   5  11
ATOM     11  S   UNL     1      -2.609  -3.522  -0.933  0.00  0.00    +0.061 S 
ATOM     12  O   UNL     1      -2.835  -4.777  -0.305  0.00  0.00    -0.153 OA
ATOM     13  O   UNL     1      -3.662  -2.751  -1.494  0.00  0.00    -0.153 OA
BRANCH  11  17
ATOM     14  C   UNL     1      -0.584   0.999   0.312  0.00  0.00    +0.039 C 
ATOM     15  C   UNL     1      -0.519  -0.526   0.207  0.00  0.00    +0.131 C 
ATOM     16  C   UNL     1      -1.940  -1.093   0.100  0.00  0.00    +0.140 C 
ATOM     17  N   UNL     1      -1.862  -2.560   0.189  0.00  0.00    -0.172 NA
ATOM     18  C   UNL     1      -1.102  -3.146   1.304  0.00  0.00    +0.140 C 
ATOM     19  C   UNL     1       0.278  -2.479   1.352  0.00  0.00    +0.131 C 
ATOM     20  O   UNL     1       0.115  -1.059   1.372  0.00  0.00    -0.371 OA
ATOM     21  C   UNL     1       1.018  -2.928   2.614  0.00  0.00    +0.039 C 
ENDBRANCH  11  17
ENDBRANCH   5  11
ENDBRANCH   1   8
BRANCH   3  22
ATOM     22  C   UNL     1       3.138  -5.799  -6.370  0.00  0.00    +0.094 C 
BRANCH  22  23
ATOM     23  C   UNL     1       4.029  -6.987  -6.003  0.00  0.00    -0.017 C 
BRANCH  23  24
ATOM     24  C   UNL     1       3.191  -8.237  -5.919  0.00  0.00    -0.006 A 
ATOM     25  C   UNL     1       2.749  -8.854  -7.077  0.00  0.00    +0.126 A 
ATOM     26  C   UNL     1       1.980 -10.002  -6.999  0.00  0.00    +0.038 A 
ATOM     27  C   UNL     1       1.653 -10.532  -5.765  0.00  0.00    +0.004 A 
ATOM     28  C   UNL     1       2.094  -9.916  -4.609  0.00  0.00    +0.020 A 
ATOM     29  C   UNL     1       2.868  -8.772  -4.685  0.00  0.00    +0.045 A 
ATOM     30 CL   UNL     1       3.428  -8.004  -3.232  0.00  0.00    -0.083 Cl
ATOM     31  F   UNL     1       3.069  -8.335  -8.283  0.00  0.00    -0.205 F 
ENDBRANCH  23  24
BRANCH  23  32
ATOM     32  N   UNL     1       5.064  -7.159  -7.031  0.00  0.00    +0.382 N 
ATOM     33  C   UNL     1       5.955  -5.992  -7.030  0.00  0.00    -0.096 C 
ATOM     34  C   UNL     1       5.843  -8.371  -6.744  0.00  0.00    -0.096 C 
ATOM     35  H   UNL     1       4.626  -7.247  -7.936  0.00  0.00    -0.082 HD
ENDBRANCH  23  32
ENDBRANCH  22  23
ENDBRANCH   3  22
TORSDOF 7
