REMARK  Name = ZINC24839727
REMARK  7 active torsions:
REMARK  status: ('A' for Active; 'I' for Inactive)
REMARK    1  A    between atoms: C_1  and  C_2
REMARK    2  A    between atoms: C_9  and  C_16
REMARK    3  A    between atoms: C_11  and  O_12
REMARK    4  A    between atoms: C_16  and  O_17
REMARK    5  A    between atoms: O_17  and  C_18
REMARK    6  A    between atoms: C_18  and  C_20
REMARK    7  A    between atoms: N_28  and  C_31
REMARK                            x       y       z     vdW  Elec       q    Type
REMARK                         _______ _______ _______ _____ _____    ______ ____
ROOT
ATOM      1  O   UNL     1       0.255  -8.445   0.505  0.00  0.00    -0.456 OA
ENDROOT
BRANCH   1   2
ATOM      2  C   UNL     1       1.346  -9.231   0.591  0.00  0.00    +0.340 C 
ATOM      3  O   UNL     1       2.453  -8.732   0.602  0.00  0.00    -0.245 OA
BRANCH   2   4
ATOM      4  C   UNL     1       1.195 -10.700   0.670  0.00  0.00    +0.060 A 
ATOM      5  C   UNL     1      -0.078 -11.271   0.657  0.00  0.00    +0.016 A 
ATOM      6  C   UNL     1      -0.228 -12.645   0.731  0.00  0.00    +0.014 A 
ATOM      7  C   UNL     1       0.891 -13.458   0.818  0.00  0.00    +0.049 A 
ATOM      8  C   UNL     1       2.180 -12.888   0.832  0.00  0.00    +0.050 A 
ATOM      9  C   UNL     1       2.329 -11.514   0.753  0.00  0.00    +0.028 A 
ATOM     10  C   UNL     1       3.123 -14.022   0.931  0.00  0.00    +0.254 C 
ATOM     11  O   UNL     1       4.334 -13.935   0.969  0.00  0.00    -0.270 OA
ATOM     12  N   UNL     1       2.417 -15.166   0.971  0.00  0.00    -0.231 N 
ATOM     13  C   UNL     1       1.096 -14.922   0.910  0.00  0.00    +0.254 C 
ATOM     14  O   UNL     1       0.218 -15.761   0.926  0.00  0.00    -0.270 OA
BRANCH  12  15
ATOM     15  C   UNL     1       3.010 -16.502   1.069  0.00  0.00    +0.085 C 
ATOM     16  C   UNL     1       2.602 -17.332  -0.150  0.00  0.00    +0.023 C 
ATOM     17  C   UNL     1       3.220 -18.727  -0.047  0.00  0.00    +0.002 C 
ATOM     18  C   UNL     1       2.722 -19.413   1.227  0.00  0.00    +0.000 C 
ATOM     19  C   UNL     1       3.130 -18.584   2.446  0.00  0.00    +0.002 C 
ATOM     20  C   UNL     1       2.511 -17.188   2.343  0.00  0.00    +0.023 C 
ENDBRANCH  12  15
ENDBRANCH   2   4
ENDBRANCH   1   2
BRANCH   1  21
ATOM     21  C   UNL     1       0.478  -7.013   0.430  0.00  0.00    +0.269 C 
BRANCH  21  30
ATOM     22  C   UNL     1      -2.193   1.470   0.609  0.00  0.00    +0.109 C 
ATOM     23  C   UNL     1      -2.168  -0.036   0.609  0.00  0.00    +0.214 C 
ATOM     24  O   UNL     1      -3.058  -0.658   1.150  0.00  0.00    -0.276 OA
ATOM     25  N   UNL     1      -1.156  -0.694   0.009  0.00  0.00    -0.286 N 
ATOM     26  C   UNL     1      -1.081  -2.085   0.091  0.00  0.00    +0.037 A 
ATOM     27  C   UNL     1       0.164  -2.708   0.166  0.00  0.00    +0.024 A 
ATOM     28  C   UNL     1       0.253  -4.066   0.253  0.00  0.00    +0.014 A 
ATOM     29  C   UNL     1      -0.913  -4.841   0.254  0.00  0.00    +0.024 A 
ATOM     30  C   UNL     1      -0.848  -6.301   0.341  0.00  0.00    +0.007 A 
ATOM     31  C   UNL     1      -2.014  -6.998   0.339  0.00  0.00    +0.095 A 
ATOM     32  C   UNL     1      -3.242  -6.309   0.254  0.00  0.00    +0.285 A 
ATOM     33  O   UNL     1      -3.295  -4.971   0.176  0.00  0.00    -0.425 OA
ATOM     34  C   UNL     1      -2.173  -4.219   0.173  0.00  0.00    +0.141 A 
ATOM     35  C   UNL     1      -2.246  -2.837   0.092  0.00  0.00    +0.070 A 
ATOM     36  H   UNL     1      -0.388  -0.134  -0.545  0.00  0.00    +0.155 HD
BRANCH  32  37
ATOM     37  O   UNL     1      -4.280  -6.946   0.253  0.00  0.00    -0.480 OA
ATOM     38  H   UNL     1      -5.246  -6.423   0.188  0.00  0.00    +0.295 HD
ENDBRANCH  32  37
ENDBRANCH  21  30
ENDBRANCH   1  21
TORSDOF 6
