REMARK  Name = ZINC05568276
REMARK  6 active torsions:
REMARK  status: ('A' for Active; 'I' for Inactive)
REMARK    1  A    between atoms: C_3  and  O_23
REMARK    2  A    between atoms: C_4  and  O_22
REMARK    3  A    between atoms: C_6  and  C_7
REMARK    4  A    between atoms: C_12  and  O_21
REMARK    5  A    between atoms: C_16  and  N_20
REMARK    6  A    between atoms: C_17  and  C_18
REMARK                            x       y       z     vdW  Elec       q    Type
REMARK                         _______ _______ _______ _____ _____    ______ ____
ROOT
ATOM      1  C   UNL     1      -1.333   2.113   0.020  0.00  0.00    +0.098 C 
ATOM      2  C   UNL     1      -1.425   2.955   1.265  0.00  0.00    +0.008 A 
ATOM      3  C   UNL     1      -1.706   2.349   2.477  0.00  0.00    +0.012 A 
ATOM      4  C   UNL     1      -1.794   3.105   3.629  0.00  0.00    +0.046 A 
ATOM      5  C   UNL     1      -1.600   4.478   3.574  0.00  0.00    +0.120 A 
ATOM      6  C   UNL     1      -1.318   5.088   2.362  0.00  0.00    +0.092 A 
ATOM      7  C   UNL     1      -1.230   4.325   1.204  0.00  0.00    +0.138 A 
ATOM      8  O   UNL     1      -0.953   4.937   0.026  0.00  0.00    -0.441 OA
ATOM      9  C   UNL     1      -1.236   4.319  -1.133  0.00  0.00    +0.199 C 
ATOM     10  C   UNL     1      -1.428   2.981  -1.203  0.00  0.00    +0.098 C 
ENDROOT
BRANCH   1  16
ATOM     11  C   UNL     1       1.169   2.089   0.002  0.00  0.00    +0.008 A 
ATOM     12  C   UNL     1       2.379   1.420  -0.013  0.00  0.00    +0.049 A 
ATOM     13  C   UNL     1       2.405   0.035  -0.021  0.00  0.00    +0.158 A 
ATOM     14  C   UNL     1       1.211  -0.680  -0.013  0.00  0.00    +0.159 A 
ATOM     15  C   UNL     1       0.002  -0.004   0.002  0.00  0.00    +0.053 A 
ATOM     16  C   UNL     1      -0.017   1.379   0.010  0.00  0.00    -0.031 A 
BRANCH  14  17
ATOM     17  O   UNL     1       1.231  -2.040  -0.020  0.00  0.00    -0.503 OA
ATOM     18  H   UNL     1       1.228  -2.429  -0.906  0.00  0.00    +0.292 HD
ENDBRANCH  14  17
BRANCH  13  19
ATOM     19  O   UNL     1       3.594  -0.624  -0.036  0.00  0.00    -0.503 OA
ATOM     20  H   UNL     1       3.930  -0.810  -0.924  0.00  0.00    +0.292 HD
ENDBRANCH  13  19
ENDBRANCH   1  16
BRANCH   9  21
ATOM     21  N   UNL     1      -1.334   5.067  -2.280  0.00  0.00    -0.328 N 
ATOM     22  H   UNL     1      -1.538   4.636  -3.124  0.00  0.00    +0.145 HD
ATOM     23  H   UNL     1      -1.199   6.027  -2.245  0.00  0.00    +0.145 HD
ENDBRANCH   9  21
BRANCH  10  24
ATOM     24  C   UNL     1      -1.727   2.381  -2.468  0.00  0.00    +0.101 C 
ATOM     25  N   UNL     1      -1.965   1.904  -3.472  0.00  0.00    -0.191 NA
ENDBRANCH  10  24
BRANCH   5  26
ATOM     26  O   UNL     1      -1.686   5.224   4.707  0.00  0.00    -0.507 OA
ATOM     27  H   UNL     1      -0.847   5.323   5.177  0.00  0.00    +0.292 HD
ENDBRANCH   5  26
TORSDOF 6
