REMARK  Name = ZINC63376022
REMARK  4 active torsions:
REMARK  status: ('A' for Active; 'I' for Inactive)
REMARK    1  A    between atoms: C_1  and  C_2
REMARK    2  A    between atoms: C_5  and  N_9
REMARK    3  A    between atoms: C_12  and  C_19
REMARK    4  A    between atoms: N_33  and  C_34
REMARK                            x       y       z     vdW  Elec       q    Type
REMARK                         _______ _______ _______ _____ _____    ______ ____
ROOT
ATOM      1  N   UNL     1       0.057  -4.173  -0.022  0.00  0.00    -0.229 N 
ATOM      2  C   UNL     1       0.168  -4.847   1.139  0.00  0.00    +0.270 A 
ATOM      3  O   UNL     1       0.253  -4.243   2.195  0.00  0.00    -0.267 OA
ATOM      4  C   UNL     1       0.186  -6.253   1.126  0.00  0.00    +0.101 A 
ATOM      5  H   UNL     1      -0.090  -6.639  -2.078  0.00  0.00    +0.173 HD
ATOM      6  C   UNL     1       0.090  -6.905  -0.068  0.00  0.00    +0.263 A 
ATOM      7  N   UNL     1      -0.022  -6.179  -1.227  0.00  0.00    -0.274 N 
ATOM      8  C   UNL     1      -0.042  -4.834  -1.189  0.00  0.00    +0.337 A 
ATOM      9  O   UNL     1      -0.147  -4.208  -2.226  0.00  0.00    -0.246 OA
ATOM     10  O   UNL     1       0.105  -8.254  -0.109  0.00  0.00    -0.267 OA
ENDROOT
BRANCH   4  11
ATOM     11  C   UNL     1       0.310  -7.028   2.412  0.00  0.00    +0.124 C 
ATOM     12  C   UNL     1      -0.922  -6.778   3.286  0.00  0.00    +0.128 C 
ATOM     13  C   UNL     1      -0.639  -7.453   4.623  0.00  0.00    -0.035 C 
ATOM     14  C   UNL     1      -1.661  -8.265   4.856  0.00  0.00    -0.001 A 
ATOM     15  C   UNL     1      -1.998  -9.111   6.012  0.00  0.00    +0.010 A 
ATOM     16  C   UNL     1      -3.139  -9.843   5.907  0.00  0.00    +0.001 A 
ATOM     17  C   UNL     1      -3.968  -9.818   4.782  0.00  0.00    +0.002 A 
ATOM     18  C   UNL     1      -3.739  -9.064   3.677  0.00  0.00    +0.026 A 
ATOM     19  C   UNL     1      -2.571  -8.247   3.670  0.00  0.00    +0.043 A 
ATOM     20  N   UNL     1      -2.127  -7.410   2.753  0.00  0.00    -0.376 N 
ATOM     21  C   UNL     1       0.649  -7.217   5.373  0.00  0.00    +0.049 C 
ATOM     22  C   UNL     1       1.782  -7.382   4.342  0.00  0.00    +0.089 C 
ATOM     23  N   UNL     1       1.501  -6.577   3.150  0.00  0.00    -0.296 NA
ATOM     24  C   UNL     1       2.674  -6.514   2.268  0.00  0.00    +0.105 C 
ATOM     25  H   UNL     1      -2.519  -7.242   1.881  0.00  0.00    +0.160 HD
ENDBRANCH   4  11
BRANCH   1  30
ATOM     26  C   UNL     1      -0.018   1.503   0.016  0.00  0.00    +0.045 C 
ATOM     27  C   UNL     1       0.002  -0.004   0.005  0.00  0.00    -0.032 A 
ATOM     28  C   UNL     1      -1.182  -0.711   0.108  0.00  0.00    +0.007 A 
ATOM     29  C   UNL     1      -1.167  -2.092   0.099  0.00  0.00    +0.027 A 
ATOM     30  C   UNL     1       0.039  -2.771  -0.013  0.00  0.00    +0.056 A 
ATOM     31  C   UNL     1       1.226  -2.060  -0.117  0.00  0.00    +0.046 A 
ATOM     32  C   UNL     1       1.205  -0.678  -0.113  0.00  0.00    +0.046 A 
ATOM     33 CL   UNL     1       2.688   0.213  -0.249  0.00  0.00    -0.083 Cl
ENDBRANCH   1  30
TORSDOF 2
