REMARK  Name = ZINC12922861
REMARK  12 active torsions:
REMARK  status: ('A' for Active; 'I' for Inactive)
REMARK    1  A    between atoms: C_1  and  C_2
REMARK    2  A    between atoms: C_2  and  C_4
REMARK    3  A    between atoms: C_2  and  O_28
REMARK    4  A    between atoms: N_6  and  C_7
REMARK    5  A    between atoms: N_6  and  C_14
REMARK    6  A    between atoms: C_7  and  C_8
REMARK    7  A    between atoms: C_15  and  N_27
REMARK    8  A    between atoms: N_16  and  C_23
REMARK    9  A    between atoms: C_23  and  C_24
REMARK   10  A    between atoms: C_24  and  O_25
REMARK   11  A    between atoms: O_25  and  C_26
REMARK   12  A    between atoms: O_28  and  C_29
REMARK                            x       y       z     vdW  Elec       q    Type
REMARK                         _______ _______ _______ _____ _____    ______ ____
ROOT
ATOM      1  C   UNL     1       5.307  -0.520  -2.083  0.00  0.00    +0.261 C 
ATOM      2  O   UNL     1       5.659  -0.956  -3.159  0.00  0.00    -0.271 OA
ATOM      3  N   UNL     1       4.306  -1.120  -1.407  0.00  0.00    -0.257 N 
ENDROOT
BRANCH   3   4
ATOM      4  C   UNL     1       3.741  -2.317  -1.897  0.00  0.00    +0.140 A 
ATOM      5  C   UNL     1       2.959  -2.310  -3.033  0.00  0.00    +0.127 A 
ATOM      6  N   UNL     1       2.423  -3.493  -3.487  0.00  0.00    -0.278 N 
ATOM      7  C   UNL     1       2.658  -4.643  -2.830  0.00  0.00    +0.331 A 
ATOM      8  O   UNL     1       2.175  -5.678  -3.247  0.00  0.00    -0.246 OA
ATOM      9  N   UNL     1       3.418  -4.669  -1.720  0.00  0.00    -0.273 N 
ATOM     10  H   UNL     1       3.575  -5.537  -1.248  0.00  0.00    +0.173 HD
ATOM     11  C   UNL     1       3.972  -3.539  -1.238  0.00  0.00    +0.277 A 
ATOM     12  O   UNL     1       4.663  -3.575  -0.234  0.00  0.00    -0.266 OA
BRANCH   5  13
ATOM     13  N   UNL     1       2.718  -1.135  -3.704  0.00  0.00    -0.343 N 
ATOM     14  H   UNL     1       3.139  -0.313  -3.409  0.00  0.00    +0.144 HD
ATOM     15  H   UNL     1       2.127  -1.128  -4.473  0.00  0.00    +0.144 HD
ENDBRANCH   5  13
BRANCH   6  16
ATOM     16  C   UNL     1       1.590  -3.500  -4.692  0.00  0.00    +0.156 C 
BRANCH  16  17
ATOM     17  C   UNL     1       2.474  -3.725  -5.921  0.00  0.00    +0.181 C 
BRANCH  17  18
ATOM     18  O   UNL     1       3.057  -5.028  -5.856  0.00  0.00    -0.381 OA
ATOM     19  C   UNL     1       3.906  -5.340  -6.963  0.00  0.00    +0.194 C 
ENDBRANCH  17  18
ENDBRANCH  16  17
ENDBRANCH   6  16
ENDBRANCH   3   4
BRANCH   1  21
ATOM     20  C   UNL     1       6.828   0.274  -0.293  0.00  0.00    +0.062 C 
ATOM     21  C   UNL     1       5.989   0.692  -1.502  0.00  0.00    +0.256 C 
BRANCH  21  22
ATOM     22  O   UNL     1       6.837   1.281  -2.490  0.00  0.00    -0.480 OA
BRANCH  22  23
ATOM     23  C   UNL     1       7.114   2.605  -2.354  0.00  0.00    +0.122 A 
ATOM     24  C   UNL     1       6.681   3.294  -1.230  0.00  0.00    +0.047 A 
ATOM     25  C   UNL     1       6.970   4.638  -1.092  0.00  0.00    +0.019 A 
ATOM     26  C   UNL     1       7.681   5.299  -2.078  0.00  0.00    +0.018 A 
ATOM     27  C   UNL     1       8.108   4.615  -3.202  0.00  0.00    +0.019 A 
ATOM     28  C   UNL     1       7.827   3.270  -3.341  0.00  0.00    +0.047 A 
ATOM     29 BR   UNL     1       8.068   7.140  -1.889  0.00  0.00    -0.050 Br
ENDBRANCH  22  23
ENDBRANCH  21  22
ENDBRANCH   1  21
BRANCH   3  30
ATOM     30  C   UNL     1       3.804  -0.529  -0.163  0.00  0.00    +0.149 C 
BRANCH  30  31
ATOM     31  C   UNL     1       2.609   0.337  -0.465  0.00  0.00    -0.030 A 
ATOM     32  C   UNL     1       1.346  -0.223  -0.523  0.00  0.00    +0.005 A 
ATOM     33  C   UNL     1       0.250   0.572  -0.800  0.00  0.00    +0.000 A 
ATOM     34  C   UNL     1       0.416   1.926  -1.021  0.00  0.00    +0.000 A 
ATOM     35  C   UNL     1       1.678   2.486  -0.963  0.00  0.00    +0.000 A 
ATOM     36  C   UNL     1       2.775   1.692  -0.686  0.00  0.00    +0.005 A 
ENDBRANCH  30  31
ENDBRANCH   3  30
TORSDOF 10
