REMARK  Name = ZINC49511562
REMARK  5 active torsions:
REMARK  status: ('A' for Active; 'I' for Inactive)
REMARK    1  A    between atoms: C_1  and  C_2
REMARK    2  A    between atoms: C_2  and  C_4
REMARK    3  A    between atoms: C_2  and  N_11
REMARK    4  A    between atoms: C_12  and  C_16
REMARK    5  A    between atoms: C_21  and  N_22
REMARK                            x       y       z     vdW  Elec       q    Type
REMARK                         _______ _______ _______ _____ _____    ______ ____
ROOT
ATOM      1  N   UNL     1       0.613  -0.621  -1.203  0.00  0.00    -0.218 N 
ATOM      2  C   UNL     1       1.852  -1.169  -1.271  0.00  0.00    +0.184 A 
ATOM      3  N   UNL     1       2.171  -1.246  -2.546  0.00  0.00    -0.108 NA
ATOM      4  N   UNL     1       1.220  -0.785  -3.276  0.00  0.00    -0.023 NA
ATOM      5  N   UNL     1       0.238  -0.392  -2.538  0.00  0.00    -0.043 NA
ENDROOT
BRANCH   2   6
ATOM      6  C   UNL     1       2.687  -1.599  -0.129  0.00  0.00    +0.041 A 
ATOM      7  C   UNL     1       2.872  -0.750   0.963  0.00  0.00    +0.013 A 
ATOM      8  C   UNL     1       3.652  -1.156   2.026  0.00  0.00    +0.001 A 
ATOM      9  C   UNL     1       4.253  -2.404   2.015  0.00  0.00    +0.002 A 
ATOM     10  C   UNL     1       4.079  -3.253   0.940  0.00  0.00    +0.023 A 
ATOM     11  C   UNL     1       3.292  -2.863  -0.135  0.00  0.00    +0.035 A 
BRANCH  11  12
ATOM     12  N   UNL     1       3.110  -3.721  -1.216  0.00  0.00    -0.357 N 
ATOM     13  H   UNL     1       2.563  -3.444  -1.968  0.00  0.00    +0.142 HD
ATOM     14  H   UNL     1       3.530  -4.596  -1.218  0.00  0.00    +0.142 HD
ENDBRANCH  11  12
ENDBRANCH   2   6
BRANCH   1  16
ATOM     15  C   UNL     1      -0.592   1.135  -0.001  0.00  0.00    +0.038 C 
ATOM     16  C   UNL     1      -0.169  -0.335   0.002  0.00  0.00    +0.138 C 
BRANCH  16  17
ATOM     17  C   UNL     1      -1.395  -1.211   0.025  0.00  0.00    -0.023 A 
ATOM     18  C   UNL     1      -2.317  -1.136  -1.002  0.00  0.00    +0.008 A 
ATOM     19  C   UNL     1      -3.441  -1.939  -0.983  0.00  0.00    +0.038 A 
ATOM     20  C   UNL     1      -3.644  -2.819   0.067  0.00  0.00    +0.123 A 
ATOM     21  C   UNL     1      -2.721  -2.893   1.096  0.00  0.00    +0.038 A 
ATOM     22  C   UNL     1      -1.594  -2.093   1.071  0.00  0.00    +0.008 A 
ATOM     23  F   UNL     1      -4.744  -3.604   0.088  0.00  0.00    -0.205 F 
ENDBRANCH  16  17
ENDBRANCH   1  16
TORSDOF 4
