REMARK  Name = ZINC43527715
REMARK  11 active torsions:
REMARK  status: ('A' for Active; 'I' for Inactive)
REMARK    1  A    between atoms: C_1  and  C_2
REMARK    2  A    between atoms: C_2  and  C_3
REMARK    3  A    between atoms: C_3  and  C_4
REMARK    4  A    between atoms: C_3  and  C_6
REMARK    5  A    between atoms: C_4  and  C_5
REMARK    6  A    between atoms: C_8  and  C_18
REMARK    7  A    between atoms: C_10  and  C_12
REMARK    8  A    between atoms: C_27  and  C_29
REMARK    9  A    between atoms: C_29  and  O_30
REMARK   10  A    between atoms: O_30  and  C_31
REMARK   11  A    between atoms: N_33  and  C_34
REMARK                            x       y       z     vdW  Elec       q    Type
REMARK                         _______ _______ _______ _____ _____    ______ ____
ROOT
ATOM      1  C   UNL     1      -1.222  -4.957  -2.119  0.00  0.00    +0.024 C 
ATOM      2  C   UNL     1      -1.954  -4.515  -3.388  0.00  0.00    -0.068 C 
ATOM      3  N   UNL     1      -0.989  -4.268  -4.462  0.00  0.00    +0.384 N 
ATOM      4  C   UNL     1      -0.067  -3.192  -4.090  0.00  0.00    -0.078 C 
ATOM      5  C   UNL     1       0.727  -3.589  -2.844  0.00  0.00    -0.015 C 
ATOM      6  C   UNL     1       0.286  -4.993  -2.400  0.00  0.00    -0.007 C 
ATOM      7  C   UNL     1       0.538  -5.967  -3.558  0.00  0.00    -0.008 C 
ATOM      8  C   UNL     1      -0.250  -5.491  -4.784  0.00  0.00    -0.030 C 
ATOM      9  H   UNL     1      -1.494  -3.975  -5.285  0.00  0.00    -0.081 HD
ENDROOT
BRANCH   1  12
ATOM     10  C   UNL     1      -1.918  -1.763  -0.230  0.00  0.00    +0.048 A 
ATOM     11  C   UNL     1      -1.658  -2.628  -1.282  0.00  0.00    +0.047 A 
ATOM     12  C   UNL     1      -1.505  -3.979  -1.007  0.00  0.00    +0.047 A 
ATOM     13  N   UNL     1      -1.611  -4.399   0.242  0.00  0.00    -0.232 NA
ATOM     14  C   UNL     1      -1.861  -3.545   1.225  0.00  0.00    +0.160 A 
ATOM     15  N   UNL     1      -2.006  -2.247   0.997  0.00  0.00    -0.232 NA
BRANCH  14  16
ATOM     16  C   UNL     1      -1.973  -4.053   2.615  0.00  0.00    +0.022 A 
ATOM     17  C   UNL     1      -1.814  -5.413   2.897  0.00  0.00    +0.031 A 
ATOM     18  C   UNL     1      -1.926  -5.843   4.204  0.00  0.00    +0.111 A 
ATOM     19  N   UNL     1      -2.179  -4.990   5.178  0.00  0.00    -0.263 NA
ATOM     20  C   UNL     1      -2.336  -3.700   4.954  0.00  0.00    +0.111 A 
ATOM     21  C   UNL     1      -2.235  -3.185   3.678  0.00  0.00    +0.031 A 
ENDBRANCH  14  16
BRANCH  10  22
ATOM     22  C   UNL     1      -2.091  -0.287  -0.481  0.00  0.00    +0.037 C 
BRANCH  22  24
ATOM     23  C   UNL     1      -0.901   1.904  -0.640  0.00  0.00    +0.004 C 
ATOM     24  C   UNL     1      -0.720   0.390  -0.510  0.00  0.00    +0.006 C 
ENDBRANCH  22  24
BRANCH  22  25
ATOM     25  C   UNL     1      -2.792  -0.078  -1.825  0.00  0.00    +0.006 C 
ATOM     26  C   UNL     1      -4.211  -0.646  -1.755  0.00  0.00    +0.004 C 
ENDBRANCH  22  25
ENDBRANCH  10  22
ENDBRANCH   1  12
BRANCH   8  27
ATOM     27  C   UNL     1       0.719  -5.212  -5.935  0.00  0.00    +0.218 C 
BRANCH  27  28
ATOM     28  O   UNL     1      -0.019  -4.825  -7.096  0.00  0.00    -0.452 OA
BRANCH  28  29
ATOM     29  C   UNL     1       0.690  -4.542  -8.204  0.00  0.00    +0.400 C 
ATOM     30  O   UNL     1       1.902  -4.621  -8.187  0.00  0.00    -0.226 OA
ATOM     31  N   UNL     1       0.054  -4.170  -9.334  0.00  0.00    -0.278 N 
ATOM     32  H   UNL     1      -0.913  -4.107  -9.348  0.00  0.00    +0.152 HD
BRANCH  31  33
ATOM     33  C   UNL     1       0.826  -3.862 -10.540  0.00  0.00    +0.076 C 
ATOM     34  C   UNL     1       1.117  -5.156 -11.304  0.00  0.00    +0.022 C 
ATOM     35  C   UNL     1       1.923  -4.834 -12.564  0.00  0.00    +0.002 C 
ATOM     36  C   UNL     1       1.118  -3.886 -13.456  0.00  0.00    +0.000 C 
ATOM     37  C   UNL     1       0.827  -2.593 -12.692  0.00  0.00    +0.002 C 
ATOM     38  C   UNL     1       0.021  -2.914 -11.432  0.00  0.00    +0.022 C 
ENDBRANCH  31  33
ENDBRANCH  28  29
ENDBRANCH  27  28
ENDBRANCH   8  27
TORSDOF 9
