REMARK  Name = ZINC09820744
REMARK  3 active torsions:
REMARK  status: ('A' for Active; 'I' for Inactive)
REMARK    1  A    between atoms: C_1  and  N_2
REMARK    2  A    between atoms: C_3  and  C_5
REMARK    3  A    between atoms: C_15  and  C_17
REMARK                            x       y       z     vdW  Elec       q    Type
REMARK                         _______ _______ _______ _____ _____    ______ ____
ROOT
ATOM      1  C   UNL     1       3.577   6.147   0.114  0.00  0.00    +0.172 C 
ATOM      2  C   UNL     1       3.030   7.577   0.258  0.00  0.00    +0.069 C 
ATOM      3  C   UNL     1       1.530   7.405   0.325  0.00  0.00    -0.024 A 
ATOM      4  C   UNL     1       0.516   8.335   0.454  0.00  0.00    +0.005 A 
ATOM      5  C   UNL     1      -0.803   7.924   0.492  0.00  0.00    +0.000 A 
ATOM      6  C   UNL     1      -1.107   6.578   0.401  0.00  0.00    +0.002 A 
ATOM      7  C   UNL     1      -0.100   5.646   0.273  0.00  0.00    +0.024 A 
ATOM      8  C   UNL     1       1.235   6.054   0.227  0.00  0.00    +0.041 A 
ATOM      9  N   UNL     1       2.394   5.282   0.109  0.00  0.00    -0.255 N 
ATOM     10  C   UNL     1       2.419   3.939   0.000  0.00  0.00    +0.253 C 
ATOM     11  O   UNL     1       1.379   3.315  -0.073  0.00  0.00    -0.270 OA
ENDROOT
BRANCH  10  12
ATOM     12  C   UNL     1       3.712   3.224  -0.030  0.00  0.00    +0.050 A 
ATOM     13  C   UNL     1       4.719   3.631  -0.908  0.00  0.00    +0.014 A 
ATOM     14  C   UNL     1       5.923   2.960  -0.931  0.00  0.00    +0.001 A 
ATOM     15  C   UNL     1       6.138   1.888  -0.082  0.00  0.00    +0.001 A 
ATOM     16  C   UNL     1       5.144   1.475   0.787  0.00  0.00    +0.015 A 
ATOM     17  C   UNL     1       3.934   2.139   0.820  0.00  0.00    +0.025 A 
ATOM     18  I   UNL     1       2.432   1.517   2.143  0.00  0.00    -0.043 I 
ENDBRANCH  10  12
BRANCH   1  21
ATOM     19  C   UNL     1       6.481   6.158   2.608  0.00  0.00    +0.128 C 
ATOM     20  N   UNL     1       5.615   6.487   1.473  0.00  0.00    -0.317 N 
ATOM     21  C   UNL     1       4.468   5.808   1.281  0.00  0.00    +0.234 C 
ATOM     22  O   UNL     1       4.152   4.923   2.048  0.00  0.00    -0.274 OA
ATOM     23  H   UNL     1       5.868   7.195   0.860  0.00  0.00    +0.148 HD
ENDBRANCH   1  21
TORSDOF 2
