REMARK  Name = ZINC42015496
REMARK  4 active torsions:
REMARK  status: ('A' for Active; 'I' for Inactive)
REMARK    1  A    between atoms: C_3  and  N_9
REMARK    2  A    between atoms: C_10  and  C_14
REMARK    3  A    between atoms: C_16  and  N_21
REMARK    4  A    between atoms: C_18  and  N_20
REMARK                            x       y       z     vdW  Elec       q    Type
REMARK                         _______ _______ _______ _____ _____    ______ ____
ROOT
ATOM      1  N   UNL     1       3.606   2.120  -0.202  0.00  0.00    -0.191 N 
ATOM      2  C   UNL     1       4.851   1.624   0.053  0.00  0.00    +0.187 A 
ATOM      3  N   UNL     1       5.655   2.659   0.185  0.00  0.00    -0.108 NA
ATOM      4  N   UNL     1       5.005   3.756   0.033  0.00  0.00    -0.022 NA
ATOM      5  N   UNL     1       3.763   3.517  -0.209  0.00  0.00    -0.039 NA
ENDROOT
BRANCH   1   8
ATOM      6  C   UNL     1       1.202  -0.266  -1.639  0.00  0.00    +0.017 A 
ATOM      7  C   UNL     1       2.365   0.449  -1.431  0.00  0.00    +0.030 A 
ATOM      8  C   UNL     1       2.426   1.393  -0.415  0.00  0.00    +0.088 A 
ATOM      9  C   UNL     1       1.316   1.616   0.390  0.00  0.00    +0.067 A 
ATOM     10  C   UNL     1       0.155   0.897   0.177  0.00  0.00    +0.037 A 
ATOM     11  C   UNL     1       0.098  -0.043  -0.837  0.00  0.00    +0.019 A 
ATOM     12 BR   UNL     1      -1.493  -1.024  -1.125  0.00  0.00    -0.050 Br
ATOM     13 CL   UNL     1       1.387   2.795   1.663  0.00  0.00    -0.081 Cl
ENDBRANCH   1   8
BRANCH   2  14
ATOM     14  C   UNL     1       5.227   0.197   0.159  0.00  0.00    +0.025 A 
ATOM     15  C   UNL     1       4.248  -0.767   0.396  0.00  0.00    +0.034 A 
ATOM     16  C   UNL     1       4.603  -2.105   0.496  0.00  0.00    +0.027 A 
ATOM     17  C   UNL     1       5.932  -2.483   0.360  0.00  0.00    +0.045 A 
ATOM     18  C   UNL     1       6.909  -1.525   0.124  0.00  0.00    +0.027 A 
ATOM     19  C   UNL     1       6.559  -0.187   0.017  0.00  0.00    +0.034 A 
BRANCH  18  20
ATOM     20  N   UNL     1       8.245  -1.910  -0.012  0.00  0.00    -0.358 N 
ATOM     21  H   UNL     1       8.490  -2.846   0.059  0.00  0.00    +0.142 HD
ATOM     22  H   UNL     1       8.928  -1.242  -0.177  0.00  0.00    +0.142 HD
ENDBRANCH  18  20
BRANCH  16  23
ATOM     23  N   UNL     1       3.623  -3.071   0.733  0.00  0.00    -0.358 N 
ATOM     24  H   UNL     1       2.694  -2.807   0.828  0.00  0.00    +0.142 HD
ATOM     25  H   UNL     1       3.871  -4.006   0.803  0.00  0.00    +0.142 HD
ENDBRANCH  16  23
ENDBRANCH   2  14
TORSDOF 4
