REMARK  Name = ZINC27659950
REMARK  9 active torsions:
REMARK  status: ('A' for Active; 'I' for Inactive)
REMARK    1  A    between atoms: C_1  and  C_2
REMARK    2  A    between atoms: C_2  and  C_4
REMARK    3  A    between atoms: C_2  and  S_17
REMARK    4  A    between atoms: C_4  and  C_6
REMARK    5  A    between atoms: C_7  and  N_16
REMARK    6  A    between atoms: N_8  and  C_15
REMARK    7  A    between atoms: N_11  and  C_14
REMARK    8  A    between atoms: S_17  and  C_18
REMARK    9  A    between atoms: C_22  and  C_24
REMARK                            x       y       z     vdW  Elec       q    Type
REMARK                         _______ _______ _______ _____ _____    ______ ____
ROOT
ATOM      1  C   UNL     1       0.023   1.490  -0.004  0.00  0.00    +0.028 C 
ATOM      2  C   UNL     1       0.016  -0.040  -0.003  0.00  0.00    +0.122 C 
ENDROOT
BRANCH   2   3
ATOM      3  C   UNL     1      -1.407  -0.535   0.011  0.00  0.00    +0.185 C 
ATOM      4  O   UNL     1      -1.941  -0.821   1.064  0.00  0.00    -0.291 OA
BRANCH   3   5
ATOM      5  C   UNL     1      -2.120  -0.668  -1.200  0.00  0.00    +0.121 A 
ATOM      6  C   UNL     1      -3.402  -1.244  -1.227  0.00  0.00    +0.116 A 
ATOM      7  N   UNL     1      -4.053  -1.351  -2.423  0.00  0.00    -0.284 N 
ATOM      8  C   UNL     1      -3.492  -0.918  -3.563  0.00  0.00    +0.333 A 
ATOM      9  O   UNL     1      -4.112  -1.036  -4.602  0.00  0.00    -0.246 OA
ATOM     10  N   UNL     1      -2.271  -0.360  -3.599  0.00  0.00    -0.263 N 
ATOM     11  C   UNL     1      -1.549  -0.204  -2.470  0.00  0.00    +0.269 A 
ATOM     12  O   UNL     1      -0.444   0.307  -2.505  0.00  0.00    -0.267 OA
ATOM     13  C   UNL     1      -1.719   0.090  -4.879  0.00  0.00    +0.157 C 
ATOM     14  C   UNL     1      -5.389  -1.949  -2.463  0.00  0.00    +0.155 C 
BRANCH   6  15
ATOM     15  N   UNL     1      -3.985  -1.688  -0.081  0.00  0.00    -0.344 N 
ATOM     16  H   UNL     1      -3.550  -1.541   0.773  0.00  0.00    +0.144 HD
ATOM     17  H   UNL     1      -4.836  -2.153  -0.118  0.00  0.00    +0.144 HD
ENDBRANCH   6  15
ENDBRANCH   3   5
ENDBRANCH   2   3
BRANCH   2  18
ATOM     18  S   UNL     1       0.882  -0.647   1.471  0.00  0.00    -0.077 S 
BRANCH  18  19
ATOM     19  C   UNL     1       2.546  -0.116   1.237  0.00  0.00    +0.168 A 
ATOM     20  N   UNL     1       3.580  -0.347   2.092  0.00  0.00    -0.339 N 
ATOM     21  H   UNL     1       3.534  -0.829   2.933  0.00  0.00    +0.167 HD
ATOM     22  C   UNL     1       4.701   0.229   1.544  0.00  0.00    +0.113 A 
ATOM     23  C   UNL     1       4.320   0.794   0.372  0.00  0.00    +0.090 A 
ATOM     24  N   UNL     1       2.994   0.561   0.207  0.00  0.00    -0.222 NA
BRANCH  23  25
ATOM     25  C   UNL     1       5.200   1.531  -0.568  0.00  0.00    +0.002 A 
ATOM     26  C   UNL     1       6.554   1.689  -0.280  0.00  0.00    +0.010 A 
ATOM     27  C   UNL     1       7.368   2.376  -1.158  0.00  0.00    +0.001 A 
ATOM     28  C   UNL     1       6.842   2.907  -2.321  0.00  0.00    +0.000 A 
ATOM     29  C   UNL     1       5.498   2.754  -2.612  0.00  0.00    +0.001 A 
ATOM     30  C   UNL     1       4.676   2.064  -1.744  0.00  0.00    +0.010 A 
ENDBRANCH  23  25
ENDBRANCH  18  19
ENDBRANCH   2  18
TORSDOF 6
