REMARK  Name = ZINC12529019
REMARK  13 active torsions:
REMARK  status: ('A' for Active; 'I' for Inactive)
REMARK    1  A    between atoms: C_1  and  C_2
REMARK    2  A    between atoms: C_4  and  C_39
REMARK    3  A    between atoms: C_5  and  C_38
REMARK    4  A    between atoms: C_6  and  S_9
REMARK    5  A    between atoms: C_7  and  C_8
REMARK    6  A    between atoms: S_9  and  N_12
REMARK    7  A    between atoms: C_14  and  O_37
REMARK    8  A    between atoms: C_17  and  C_19
REMARK    9  A    between atoms: C_19  and  O_21
REMARK   10  A    between atoms: O_21  and  C_22
REMARK   11  A    between atoms: C_22  and  C_23
REMARK   12  A    between atoms: C_23  and  C_25
REMARK   13  A    between atoms: C_28  and  C_31
REMARK                            x       y       z     vdW  Elec       q    Type
REMARK                         _______ _______ _______ _____ _____    ______ ____
ROOT
ATOM      1  N   UNL     1      -0.387   3.904  -0.147  0.00  0.00    -0.160 NA
ATOM      2  C   UNL     1      -0.844   4.447   1.145  0.00  0.00    +0.141 C 
ATOM      3  C   UNL     1      -1.725   3.330   1.756  0.00  0.00    +0.132 C 
ATOM      4  C   UNL     1      -0.960   2.054   1.315  0.00  0.00    +0.064 C 
ATOM      5  C   UNL     1      -0.426   2.436  -0.081  0.00  0.00    +0.191 C 
ENDROOT
BRANCH   1   6
ATOM      6  S   UNL     1       0.093   4.799  -1.455  0.00  0.00    +0.062 S 
ATOM      7  O   UNL     1       0.512   6.060  -0.953  0.00  0.00    -0.153 OA
ATOM      8  O   UNL     1       0.947   3.965  -2.227  0.00  0.00    -0.153 OA
BRANCH   6  14
ATOM      9  C   UNL     1      -3.300   3.388  -5.172  0.00  0.00    +0.044 C 
ATOM     10  C   UNL     1      -2.864   4.402  -4.146  0.00  0.00    -0.045 A 
ATOM     11  C   UNL     1      -3.588   5.567  -3.975  0.00  0.00    +0.007 A 
ATOM     12  C   UNL     1      -3.188   6.498  -3.034  0.00  0.00    -0.045 A 
ATOM     13  C   UNL     1      -2.063   6.263  -2.265  0.00  0.00    -0.021 A 
ATOM     14  C   UNL     1      -1.340   5.098  -2.436  0.00  0.00    +0.112 A 
ATOM     15  C   UNL     1      -1.737   4.170  -3.380  0.00  0.00    -0.021 A 
ATOM     16  C   UNL     1      -0.944   2.902  -3.571  0.00  0.00    +0.046 C 
ATOM     17  C   UNL     1      -1.627   7.277  -1.240  0.00  0.00    +0.046 C 
ATOM     18  C   UNL     1      -3.977   7.768  -2.848  0.00  0.00    +0.044 C 
ENDBRANCH   6  14
ENDBRANCH   1   6
BRANCH   5  19
ATOM     19  C   UNL     1       0.960   1.876  -0.271  0.00  0.00    +0.327 C 
ATOM     20  O   UNL     1       1.891   2.622  -0.462  0.00  0.00    -0.249 OA
BRANCH  19  21
ATOM     21  O   UNL     1       1.160   0.549  -0.232  0.00  0.00    -0.455 OA
BRANCH  21  22
ATOM     22  C   UNL     1       2.520   0.081  -0.428  0.00  0.00    +0.311 C 
BRANCH  22  23
ATOM     23  C   UNL     1       2.549  -1.423  -0.353  0.00  0.00    +0.200 C 
ATOM     24  O   UNL     1       1.525  -2.041  -0.153  0.00  0.00    -0.288 OA
BRANCH  23  25
ATOM     25  C   UNL     1       3.821  -2.144  -0.521  0.00  0.00    +0.021 A 
ATOM     26  C   UNL     1       5.004  -1.436  -0.757  0.00  0.00    +0.012 A 
ATOM     27  C   UNL     1       6.193  -2.118  -0.909  0.00  0.00    +0.004 A 
ATOM     28  C   UNL     1       6.216  -3.500  -0.839  0.00  0.00    -0.044 A 
ATOM     29  C   UNL     1       5.048  -4.208  -0.611  0.00  0.00    +0.004 A 
ATOM     30  C   UNL     1       3.853  -3.540  -0.452  0.00  0.00    +0.012 A 
BRANCH  28  31
ATOM     31  C   UNL     1       7.518  -4.238  -1.011  0.00  0.00    +0.019 C 
ATOM     32  C   UNL     1       8.503  -3.794   0.072  0.00  0.00    +0.008 C 
ATOM     33  C   UNL     1       9.826  -4.543  -0.103  0.00  0.00    +0.001 C 
ATOM     34  C   UNL     1      10.410  -4.231  -1.482  0.00  0.00    +0.000 C 
ATOM     35  C   UNL     1       9.425  -4.675  -2.566  0.00  0.00    +0.001 C 
ATOM     36  C   UNL     1       8.103  -3.926  -2.390  0.00  0.00    +0.008 C 
ENDBRANCH  28  31
ENDBRANCH  23  25
ENDBRANCH  22  23
ENDBRANCH  21  22
ENDBRANCH  19  21
ENDBRANCH   5  19
BRANCH   3  37
ATOM     37  O   UNL     1      -1.771   3.433   3.180  0.00  0.00    -0.390 OA
ATOM     38  H   UNL     1      -2.239   4.216   3.503  0.00  0.00    +0.210 HD
ENDBRANCH   3  37
TORSDOF 9
