REMARK  Name = ZINC01374325
REMARK  16 active torsions:
REMARK  status: ('A' for Active; 'I' for Inactive)
REMARK    1  A    between atoms: C_1  and  C_2
REMARK    2  A    between atoms: C_2  and  C_3
REMARK    3  A    between atoms: C_3  and  C_5
REMARK    4  A    between atoms: C_3  and  N_16
REMARK    5  A    between atoms: N_9  and  C_10
REMARK    6  A    between atoms: C_10  and  C_11
REMARK    7  A    between atoms: N_16  and  C_17
REMARK    8  A    between atoms: N_16  and  C_29
REMARK    9  A    between atoms: C_17  and  C_18
REMARK   10  A    between atoms: C_18  and  C_19
REMARK   11  A    between atoms: C_22  and  O_27
REMARK   12  A    between atoms: C_23  and  O_25
REMARK   13  A    between atoms: O_25  and  C_26
REMARK   14  A    between atoms: O_27  and  C_28
REMARK   15  A    between atoms: C_29  and  C_30
REMARK   16  A    between atoms: C_35  and  C_42
REMARK                            x       y       z     vdW  Elec       q    Type
REMARK                         _______ _______ _______ _____ _____    ______ ____
ROOT
ATOM      1  N   UNL     1      -1.612  -0.684  -1.030  0.00  0.00    +0.389 N 
ATOM      2  H   UNL     1      -1.328  -1.486  -1.571  0.00  0.00    -0.080 HD
ENDROOT
BRANCH   1   3
ATOM      3  C   UNL     1      -1.383  -0.949   0.397  0.00  0.00    +0.003 C 
BRANCH   3   4
ATOM      4  C   UNL     1      -2.481  -0.312   1.209  0.00  0.00    +0.139 A 
ATOM      5  N   UNL     1      -3.761  -0.583   1.142  0.00  0.00    -0.115 NA
ATOM      6  N   UNL     1      -4.372   0.169   1.992  0.00  0.00    -0.023 NA
ATOM      7  N   UNL     1      -3.514   0.912   2.599  0.00  0.00    -0.044 NA
ATOM      8  N   UNL     1      -2.336   0.642   2.148  0.00  0.00    -0.223 N 
BRANCH   8   9
ATOM      9  C   UNL     1      -1.078   1.259   2.575  0.00  0.00    +0.221 C 
BRANCH   9  10
ATOM     10  C   UNL     1      -0.926   2.602   1.908  0.00  0.00    +0.126 A 
ATOM     11  C   UNL     1      -1.273   3.788   2.440  0.00  0.00    +0.046 A 
ATOM     12  C   UNL     1      -0.959   4.776   1.479  0.00  0.00    +0.041 A 
ATOM     13  C   UNL     1      -0.437   4.135   0.417  0.00  0.00    +0.195 A 
ATOM     14  O   UNL     1      -0.414   2.819   0.685  0.00  0.00    -0.466 OA
ENDBRANCH   9  10
ENDBRANCH   8   9
ENDBRANCH   3   4
BRANCH   3  16
ATOM     15  C   UNL     1      -0.214  -3.095  -0.121  0.00  0.00    +0.002 C 
ATOM     16  C   UNL     1      -1.378  -2.459   0.640  0.00  0.00    -0.011 C 
ENDBRANCH   3  16
ENDBRANCH   1   3
BRANCH   1  17
ATOM     17  C   UNL     1      -3.040  -0.422  -1.256  0.00  0.00    -0.073 C 
BRANCH  17  18
ATOM     18  C   UNL     1      -3.831  -1.720  -1.074  0.00  0.00    +0.017 C 
BRANCH  18  19
ATOM     19  C   UNL     1      -5.269  -1.490  -1.463  0.00  0.00    -0.045 A 
ATOM     20  C   UNL     1      -6.181  -1.066  -0.514  0.00  0.00    +0.007 A 
ATOM     21  C   UNL     1      -7.501  -0.854  -0.865  0.00  0.00    +0.049 A 
ATOM     22  C   UNL     1      -7.912  -1.066  -2.171  0.00  0.00    +0.161 A 
ATOM     23  C   UNL     1      -6.995  -1.492  -3.126  0.00  0.00    +0.162 A 
ATOM     24  C   UNL     1      -5.672  -1.698  -2.768  0.00  0.00    +0.053 A 
BRANCH  23  25
ATOM     25  O   UNL     1      -7.394  -1.701  -4.409  0.00  0.00    -0.491 OA
ATOM     26  C   UNL     1      -6.398  -2.139  -5.336  0.00  0.00    +0.277 C 
ENDBRANCH  23  25
BRANCH  22  27
ATOM     27  O   UNL     1      -9.211  -0.858  -2.518  0.00  0.00    -0.491 OA
ATOM     28  C   UNL     1     -10.097  -0.421  -1.485  0.00  0.00    +0.277 C 
ENDBRANCH  22  27
ENDBRANCH  18  19
ENDBRANCH  17  18
ENDBRANCH   1  17
BRANCH   1  29
ATOM     29  C   UNL     1      -0.829   0.488  -1.443  0.00  0.00    -0.037 C 
BRANCH  29  30
ATOM     30  C   UNL     1       0.625   0.107  -1.552  0.00  0.00    +0.001 A 
ATOM     31  C   UNL     1       1.125  -0.317  -2.740  0.00  0.00    +0.017 A 
ATOM     32  C   UNL     1       2.541  -0.679  -2.813  0.00  0.00    -0.001 A 
ATOM     33  C   UNL     1       3.114  -1.123  -4.010  0.00  0.00    +0.010 A 
ATOM     34  C   UNL     1       4.439  -1.452  -4.045  0.00  0.00    +0.004 A 
ATOM     35  C   UNL     1       5.223  -1.352  -2.904  0.00  0.00    -0.048 A 
ATOM     36  C   UNL     1       4.680  -0.918  -1.714  0.00  0.00    +0.029 A 
ATOM     37  C   UNL     1       3.333  -0.575  -1.654  0.00  0.00    +0.049 A 
ATOM     38  N   UNL     1       2.764  -0.137  -0.477  0.00  0.00    -0.322 N 
ATOM     39  H   UNL     1       3.311  -0.066   0.321  0.00  0.00    +0.169 HD
ATOM     40  C   UNL     1       1.463   0.199  -0.421  0.00  0.00    +0.251 A 
ATOM     41  O   UNL     1       0.995   0.587   0.635  0.00  0.00    -0.268 OA
ATOM     42  C   UNL     1       6.682  -1.722  -2.967  0.00  0.00    +0.044 C 
ENDBRANCH  29  30
ENDBRANCH   1  29
TORSDOF 12
