REMARK  Name = ZINC58936176
REMARK  11 active torsions:
REMARK  status: ('A' for Active; 'I' for Inactive)
REMARK    1  A    between atoms: C_1  and  C_2
REMARK    2  A    between atoms: C_2  and  C_3
REMARK    3  A    between atoms: C_3  and  C_4
REMARK    4  A    between atoms: C_3  and  C_5
REMARK    5  A    between atoms: C_3  and  N_6
REMARK    6  A    between atoms: C_7  and  C_9
REMARK    7  A    between atoms: C_9  and  C_11
REMARK    8  A    between atoms: C_9  and  S_12
REMARK    9  A    between atoms: S_12  and  C_15
REMARK   10  A    between atoms: C_15  and  C_16
REMARK   11  A    between atoms: C_19  and  C_21
REMARK                            x       y       z     vdW  Elec       q    Type
REMARK                         _______ _______ _______ _____ _____    ______ ____
ROOT
ATOM      1  S   UNL     1       2.741  -4.710  -3.291  0.00  0.00    -0.014 S 
ATOM      2  O   UNL     1       2.579  -4.225  -4.617  0.00  0.00    -0.173 OA
ATOM      3  O   UNL     1       3.943  -4.419  -2.591  0.00  0.00    -0.173 OA
ENDROOT
BRANCH   1   4
ATOM      4  C   UNL     1       1.341  -4.130  -2.293  0.00  0.00    +0.213 C 
ATOM      5  C   UNL     1       0.035  -4.654  -2.893  0.00  0.00    +0.042 C 
BRANCH   4   7
ATOM      6  N   UNL     1       0.738  -1.962  -1.265  0.00  0.00    -0.309 N 
ATOM      7  C   UNL     1       1.321  -2.623  -2.285  0.00  0.00    +0.237 C 
ATOM      8  O   UNL     1       1.829  -2.004  -3.196  0.00  0.00    -0.274 OA
ATOM      9  H   UNL     1       0.332  -2.457  -0.536  0.00  0.00    +0.149 HD
BRANCH   6  10
ATOM     10  C   UNL     1       0.718  -0.497  -1.257  0.00  0.00    +0.029 C 
ATOM     11  C   UNL     1      -0.022   0.009  -2.496  0.00  0.00    +0.031 C 
ATOM     12  C   UNL     1       2.154   0.032  -1.268  0.00  0.00    +0.031 C 
BRANCH  10  14
ATOM     13  C   UNL     1      -0.019   1.526   0.010  0.00  0.00    +0.006 C 
ATOM     14  C   UNL     1       0.002  -0.004   0.002  0.00  0.00    +0.022 C 
ENDBRANCH  10  14
ENDBRANCH   6  10
ENDBRANCH   4   7
ENDBRANCH   1   4
BRANCH   1  15
ATOM     15  C   UNL     1       2.505  -6.508  -3.304  0.00  0.00    +0.225 C 
BRANCH  15  16
ATOM     16  C   UNL     1       3.606  -7.153  -4.106  0.00  0.00    +0.101 A 
ATOM     17  C   UNL     1       3.581  -7.402  -5.428  0.00  0.00    +0.222 A 
ATOM     18  O   UNL     1       4.754  -7.984  -5.748  0.00  0.00    -0.443 OA
ATOM     19  C   UNL     1       5.481  -8.085  -4.622  0.00  0.00    +0.227 A 
ATOM     20  N   UNL     1       4.787  -7.577  -3.630  0.00  0.00    -0.212 NA
BRANCH  19  21
ATOM     21  C   UNL     1       6.836  -8.666  -4.518  0.00  0.00    +0.037 A 
ATOM     22  C   UNL     1       7.483  -8.717  -3.282  0.00  0.00    +0.016 A 
ATOM     23  C   UNL     1       8.747  -9.261  -3.191  0.00  0.00    +0.039 A 
ATOM     24  C   UNL     1       9.375  -9.754  -4.323  0.00  0.00    +0.123 A 
ATOM     25  C   UNL     1       8.738  -9.705  -5.553  0.00  0.00    +0.039 A 
ATOM     26  C   UNL     1       7.471  -9.169  -5.654  0.00  0.00    +0.016 A 
ATOM     27  F   UNL     1      10.614 -10.285  -4.229  0.00  0.00    -0.205 F 
ENDBRANCH  19  21
ENDBRANCH  15  16
ENDBRANCH   1  15
TORSDOF 7
