REMARK  Name = ZINC07719349
REMARK  6 active torsions:
REMARK  status: ('A' for Active; 'I' for Inactive)
REMARK    1  A    between atoms: C_1  and  C_2
REMARK    2  A    between atoms: C_2  and  N_3
REMARK    3  A    between atoms: C_11  and  C_12
REMARK    4  A    between atoms: C_14  and  C_18
REMARK    5  A    between atoms: C_18  and  C_20
REMARK    6  A    between atoms: C_25  and  O_26
REMARK                            x       y       z     vdW  Elec       q    Type
REMARK                         _______ _______ _______ _____ _____    ______ ____
ROOT
ATOM      1  C   UNL     1      -2.745   5.684  -0.093  0.00  0.00    +0.083 A 
ATOM      2  C   UNL     1      -2.440   7.010  -0.095  0.00  0.00    +0.042 A 
ATOM      3  C   UNL     1      -3.657   7.716   0.069  0.00  0.00    +0.040 A 
ATOM      4  C   UNL     1      -4.662   6.773   0.165  0.00  0.00    +0.095 A 
ATOM      5  N   UNL     1      -4.106   5.551   0.061  0.00  0.00    -0.358 N 
ATOM      6  H   UNL     1      -4.589   4.710   0.092  0.00  0.00    +0.165 HD
ENDROOT
BRANCH   1  15
ATOM      7  N   UNL     1      -2.027   3.272   0.100  0.00  0.00    -0.323 N 
ATOM      8  C   UNL     1      -0.879   2.557  -0.186  0.00  0.00    +0.069 A 
ATOM      9  C   UNL     1      -0.524   1.220  -0.070  0.00  0.00    +0.028 A 
ATOM     10  C   UNL     1       0.738   0.812  -0.449  0.00  0.00    +0.002 A 
ATOM     11  C   UNL     1       1.650   1.727  -0.956  0.00  0.00    +0.002 A 
ATOM     12  C   UNL     1       1.317   3.046  -1.083  0.00  0.00    +0.030 A 
ATOM     13  C   UNL     1       0.045   3.484  -0.700  0.00  0.00    +0.090 A 
ATOM     14  N   UNL     1      -0.563   4.695  -0.706  0.00  0.00    -0.226 NA
ATOM     15  C   UNL     1      -1.784   4.579  -0.236  0.00  0.00    +0.158 A 
BRANCH   7  17
ATOM     16  C   UNL     1      -4.153   2.209  -0.476  0.00  0.00    +0.027 C 
ATOM     17  C   UNL     1      -3.270   2.735   0.657  0.00  0.00    +0.120 C 
ENDBRANCH   7  17
ENDBRANCH   1  15
BRANCH   3  18
ATOM     18  C   UNL     1      -3.820   9.179   0.127  0.00  0.00    +0.198 C 
ATOM     19  O   UNL     1      -2.864   9.906  -0.068  0.00  0.00    -0.286 OA
BRANCH  18  20
ATOM     20  C   UNL     1      -5.143   9.762   0.420  0.00  0.00    +0.064 A 
ATOM     21  C   UNL     1      -5.901  10.336  -0.605  0.00  0.00    +0.015 A 
ATOM     22  C   UNL     1      -7.136  10.879  -0.324  0.00  0.00    +0.001 A 
ATOM     23  C   UNL     1      -7.631  10.858   0.970  0.00  0.00    +0.004 A 
ATOM     24  C   UNL     1      -6.893  10.294   1.992  0.00  0.00    +0.046 A 
ATOM     25  C   UNL     1      -5.650   9.739   1.727  0.00  0.00    +0.128 A 
BRANCH  25  26
ATOM     26  O   UNL     1      -4.926   9.180   2.729  0.00  0.00    -0.506 OA
ATOM     27  H   UNL     1      -4.336   9.799   3.180  0.00  0.00    +0.292 HD
ENDBRANCH  25  26
ENDBRANCH  18  20
ENDBRANCH   3  18
TORSDOF 5
