REMARK  Name = ZINC45537876
REMARK  12 active torsions:
REMARK  status: ('A' for Active; 'I' for Inactive)
REMARK    1  A    between atoms: C_1  and  O_2
REMARK    2  A    between atoms: O_2  and  C_3
REMARK    3  A    between atoms: C_6  and  C_9
REMARK    4  A    between atoms: C_9  and  C_11
REMARK    5  A    between atoms: C_9  and  N_31
REMARK    6  A    between atoms: C_11  and  N_12
REMARK    7  A    between atoms: C_13  and  C_15
REMARK    8  A    between atoms: C_15  and  O_16
REMARK    9  A    between atoms: O_16  and  C_17
REMARK   10  A    between atoms: C_17  and  C_19
REMARK   11  A    between atoms: C_19  and  C_20
REMARK   12  A    between atoms: C_20  and  C_21
REMARK                            x       y       z     vdW  Elec       q    Type
REMARK                         _______ _______ _______ _____ _____    ______ ____
ROOT
ATOM      1  N   UNL     1       4.515  -3.653  -5.121  0.00  0.00    -0.314 N 
ATOM      2  C   UNL     1       5.771  -4.127  -4.998  0.00  0.00    +0.251 C 
ATOM      3  O   UNL     1       6.433  -3.844  -4.023  0.00  0.00    -0.272 OA
ATOM      4  H   UNL     1       3.985  -3.879  -5.901  0.00  0.00    +0.149 HD
ENDROOT
BRANCH   1   5
ATOM      5  C   UNL     1       3.951  -2.795  -4.075  0.00  0.00    +0.093 C 
BRANCH   5   6
ATOM      6  C   UNL     1       2.575  -2.291  -4.517  0.00  0.00    -0.020 C 
BRANCH   6   7
ATOM      7  N   UNL     1       1.975  -1.496  -3.437  0.00  0.00    +0.385 N 
ATOM      8  C   UNL     1       1.785  -2.345  -2.254  0.00  0.00    -0.078 C 
ATOM      9  C   UNL     1       1.236  -1.504  -1.101  0.00  0.00    -0.019 C 
ATOM     10  C   UNL     1      -0.107  -0.895  -1.514  0.00  0.00    -0.004 C 
ATOM     11  C   UNL     1       0.089  -0.072  -2.791  0.00  0.00    -0.019 C 
ATOM     12  C   UNL     1       0.681  -0.966  -3.882  0.00  0.00    -0.078 C 
ATOM     13  H   UNL     1       2.589  -0.730  -3.203  0.00  0.00    -0.081 HD
ENDBRANCH   6   7
BRANCH   6  17
ATOM     14  C   UNL     1       3.001   0.140  -8.005  0.00  0.00    +0.120 A 
ATOM     15  C   UNL     1       2.594  -1.181  -8.124  0.00  0.00    +0.046 A 
ATOM     16  C   UNL     1       2.458  -1.965  -6.995  0.00  0.00    +0.005 A 
ATOM     17  C   UNL     1       2.726  -1.434  -5.747  0.00  0.00    -0.059 A 
ATOM     18  C   UNL     1       3.131  -0.117  -5.626  0.00  0.00    +0.005 A 
ATOM     19  C   UNL     1       3.275   0.669  -6.752  0.00  0.00    +0.046 A 
BRANCH  14  21
ATOM     20  C   UNL     1       2.838   0.303 -10.372  0.00  0.00    +0.277 C 
ATOM     21  O   UNL     1       3.137   0.913  -9.115  0.00  0.00    -0.495 OA
ENDBRANCH  14  21
ENDBRANCH   6  17
ENDBRANCH   5   6
ENDBRANCH   1   5
BRANCH   2  22
ATOM     22  C   UNL     1       6.351  -5.009  -6.074  0.00  0.00    +0.327 C 
BRANCH  22  23
ATOM     23  O   UNL     1       7.684  -5.380  -5.717  0.00  0.00    -0.455 OA
BRANCH  23  24
ATOM     24  C   UNL     1       8.347  -6.171  -6.576  0.00  0.00    +0.308 C 
ATOM     25  O   UNL     1       7.813  -6.536  -7.596  0.00  0.00    -0.251 OA
BRANCH  24  26
ATOM     26  C   UNL     1       9.757  -6.604  -6.267  0.00  0.00    +0.125 C 
BRANCH  26  27
ATOM     27  C   UNL     1      10.277  -7.492  -7.398  0.00  0.00    +0.048 C 
BRANCH  27  28
ATOM     28  C   UNL     1      11.687  -7.925  -7.089  0.00  0.00    -0.022 A 
ATOM     29  C   UNL     1      12.815  -7.331  -7.510  0.00  0.00    +0.087 A 
ATOM     30  N   UNL     1      13.905  -8.005  -7.030  0.00  0.00    -0.360 N 
ATOM     31  H   UNL     1      14.829  -7.764  -7.200  0.00  0.00    +0.165 HD
ATOM     32  C   UNL     1      13.494  -9.077  -6.269  0.00  0.00    +0.047 A 
ATOM     33  C   UNL     1      12.087  -9.070  -6.268  0.00  0.00    +0.003 A 
ATOM     34  C   UNL     1      11.387 -10.051  -5.564  0.00  0.00    +0.010 A 
ATOM     35  C   UNL     1      12.072 -11.012  -4.876  0.00  0.00    +0.001 A 
ATOM     36  C   UNL     1      13.460 -11.021  -4.870  0.00  0.00    +0.002 A 
ATOM     37  C   UNL     1      14.172 -10.067  -5.566  0.00  0.00    +0.026 A 
ENDBRANCH  27  28
ENDBRANCH  26  27
ENDBRANCH  24  26
ENDBRANCH  23  24
ENDBRANCH  22  23
ENDBRANCH   2  22
TORSDOF 11
