REMARK  Name = ZINC16608562
REMARK  10 active torsions:
REMARK  status: ('A' for Active; 'I' for Inactive)
REMARK    1  A    between atoms: C_1  and  C_2
REMARK    2  A    between atoms: C_2  and  C_3
REMARK    3  A    between atoms: C_3  and  C_5
REMARK    4  A    between atoms: C_3  and  C_6
REMARK    5  A    between atoms: C_6  and  C_8
REMARK    6  A    between atoms: C_6  and  N_25
REMARK    7  A    between atoms: C_14  and  C_16
REMARK    8  A    between atoms: N_28  and  C_29
REMARK    9  A    between atoms: C_32  and  C_36
REMARK   10  A    between atoms: C_34  and  C_35
REMARK                            x       y       z     vdW  Elec       q    Type
REMARK                         _______ _______ _______ _____ _____    ______ ____
ROOT
ATOM      1  C   UNL     1       3.753  -2.404   0.204  0.00  0.00    +0.163 C 
ENDROOT
BRANCH   1   2
ATOM      2  C   UNL     1       4.990  -2.889   0.915  0.00  0.00    +0.239 C 
ATOM      3  O   UNL     1       5.885  -2.111   1.175  0.00  0.00    -0.273 OA
ATOM      4  N   UNL     1       5.104  -4.186   1.263  0.00  0.00    -0.262 N 
ATOM      5  C   UNL     1       6.194  -4.612   2.011  0.00  0.00    +0.188 A 
ATOM      6  N   UNL     1       7.226  -3.924   2.483  0.00  0.00    -0.125 NA
ATOM      7  N   UNL     1       8.143  -4.472   3.154  0.00  0.00    -0.140 NA
ATOM      8  C   UNL     1       8.130  -5.771   3.427  0.00  0.00    +0.134 A 
ATOM      9  S   UNL     1       6.605  -6.246   2.619  0.00  0.00    -0.030 S 
ATOM     10  H   UNL     1       4.423  -4.822   0.992  0.00  0.00    +0.157 HD
BRANCH   8  11
ATOM     11  C   UNL     1       9.098  -6.591   4.187  0.00  0.00    +0.013 A 
ATOM     12  C   UNL     1       8.879  -7.960   4.350  0.00  0.00    +0.014 A 
ATOM     13  C   UNL     1       9.782  -8.723   5.059  0.00  0.00    +0.050 A 
ATOM     14  C   UNL     1      10.911  -8.135   5.612  0.00  0.00    +0.166 A 
ATOM     15  C   UNL     1      11.135  -6.768   5.452  0.00  0.00    +0.167 A 
ATOM     16  C   UNL     1      10.236  -5.999   4.738  0.00  0.00    +0.060 A 
ATOM     17  O   UNL     1      12.301  -6.442   6.083  0.00  0.00    -0.453 OA
ATOM     18  C   UNL     1      12.994  -7.688   6.279  0.00  0.00    +0.466 C 
ATOM     19  O   UNL     1      11.936  -8.662   6.343  0.00  0.00    -0.453 OA
ENDBRANCH   8  11
ENDBRANCH   1   2
BRANCH   1  20
ATOM     20  N   UNL     1       3.599  -0.963   0.419  0.00  0.00    -0.288 N 
ATOM     21  C   UNL     1       2.379  -0.397   0.339  0.00  0.00    +0.304 C 
ATOM     22  O   UNL     1       1.406  -1.082   0.087  0.00  0.00    -0.252 OA
ATOM     23  N   UNL     1       2.237   0.929   0.537  0.00  0.00    -0.269 N 
ATOM     24  H   UNL     1       4.375  -0.417   0.620  0.00  0.00    +0.151 HD
ATOM     25  H   UNL     1       3.019   1.484   0.679  0.00  0.00    +0.156 HD
BRANCH  23  26
ATOM     26  C   UNL     1       0.961   1.503   0.537  0.00  0.00    +0.038 A 
ATOM     27  C   UNL     1      -0.059   0.935  -0.215  0.00  0.00    +0.024 A 
ATOM     28  C   UNL     1      -1.315   1.508  -0.217  0.00  0.00    +0.005 A 
ATOM     29  C   UNL     1      -1.562   2.640   0.538  0.00  0.00    -0.050 A 
ATOM     30  C   UNL     1      -0.549   3.208   1.288  0.00  0.00    +0.008 A 
ATOM     31  C   UNL     1       0.711   2.643   1.290  0.00  0.00    -0.029 A 
ATOM     32  C   UNL     1       1.814   3.263   2.109  0.00  0.00    +0.045 C 
ATOM     33  C   UNL     1      -2.936   3.259   0.538  0.00  0.00    +0.044 C 
ENDBRANCH  23  26
ENDBRANCH   1  20
BRANCH   1  34
ATOM     34  C   UNL     1       3.883  -2.685  -1.294  0.00  0.00    +0.015 C 
ATOM     35  C   UNL     1       5.027  -1.849  -1.872  0.00  0.00    +0.010 C 
BRANCH  34  37
ATOM     36  C   UNL     1       2.661  -2.712  -3.473  0.00  0.00    +0.004 C 
ATOM     37  C   UNL     1       2.576  -2.316  -1.998  0.00  0.00    +0.002 C 
ENDBRANCH  34  37
ENDBRANCH   1  34
TORSDOF 6
