REMARK  Name = ZINC64323942
REMARK  9 active torsions:
REMARK  status: ('A' for Active; 'I' for Inactive)
REMARK    1  A    between atoms: C_1  and  C_2
REMARK    2  A    between atoms: C_5  and  C_9
REMARK    3  A    between atoms: C_7  and  C_8
REMARK    4  A    between atoms: C_14  and  C_16
REMARK    5  A    between atoms: C_16  and  C_17
REMARK    6  A    between atoms: C_17  and  C_18
REMARK    7  A    between atoms: C_19  and  C_28
REMARK    8  A    between atoms: C_21  and  S_26
REMARK    9  A    between atoms: S_26  and  C_27
REMARK                            x       y       z     vdW  Elec       q    Type
REMARK                         _______ _______ _______ _____ _____    ______ ____
ROOT
ATOM      1  C   UNL     1       0.059  -4.275  -0.021  0.00  0.00    +0.106 C 
ATOM      2  C   UNL     1       1.483  -4.780  -0.339  0.00  0.00    +0.029 C 
ATOM      3  C   UNL     1       1.221  -6.011  -1.246  0.00  0.00    +0.021 C 
ATOM      4  C   UNL     1      -0.023  -5.550  -2.045  0.00  0.00    +0.108 C 
ATOM      5  N   UNL     1      -0.829  -4.781  -1.078  0.00  0.00    -0.294 N 
ATOM      6  C   UNL     1      -2.159  -4.576  -1.152  0.00  0.00    +0.216 C 
ATOM      7  O   UNL     1      -2.720  -3.925  -0.296  0.00  0.00    -0.276 OA
ENDROOT
BRANCH   1  12
ATOM      8  C   UNL     1      -0.018   1.503   0.010  0.00  0.00    +0.044 C 
ATOM      9  C   UNL     1       0.002  -0.004   0.002  0.00  0.00    -0.048 A 
ATOM     10  C   UNL     1       0.006  -0.689  -1.199  0.00  0.00    +0.004 A 
ATOM     11  C   UNL     1       0.025  -2.071  -1.207  0.00  0.00    +0.006 A 
ATOM     12  C   UNL     1       0.040  -2.768  -0.013  0.00  0.00    -0.027 A 
ATOM     13  C   UNL     1       0.037  -2.084   1.188  0.00  0.00    +0.009 A 
ATOM     14  C   UNL     1       0.023  -0.702   1.195  0.00  0.00    -0.047 A 
ATOM     15  C   UNL     1       0.025   0.045   2.504  0.00  0.00    +0.044 C 
ENDBRANCH   1  12
BRANCH   6  16
ATOM     16  C   UNL     1      -2.949  -5.156  -2.296  0.00  0.00    +0.101 C 
BRANCH  16  17
ATOM     17  C   UNL     1      -4.423  -4.779  -2.142  0.00  0.00    +0.051 C 
BRANCH  17  18
ATOM     18  C   UNL     1      -5.213  -5.359  -3.286  0.00  0.00    +0.038 A 
ATOM     19  C   UNL     1      -5.852  -6.558  -3.151  0.00  0.00    +0.049 A 
ATOM     20  N   UNL     1      -6.547  -7.062  -4.167  0.00  0.00    -0.228 NA
ATOM     21  C   UNL     1      -6.638  -6.426  -5.319  0.00  0.00    +0.169 A 
ATOM     22  N   UNL     1      -6.022  -5.227  -5.512  0.00  0.00    -0.302 N 
ATOM     23  H   UNL     1      -6.099  -4.772  -6.365  0.00  0.00    +0.171 HD
ATOM     24  C   UNL     1      -5.309  -4.671  -4.509  0.00  0.00    +0.256 A 
ATOM     25  O   UNL     1      -4.755  -3.595  -4.662  0.00  0.00    -0.267 OA
ATOM     26  C   UNL     1      -5.768  -7.312  -1.849  0.00  0.00    +0.066 C 
BRANCH  21  27
ATOM     27  S   UNL     1      -7.573  -7.140  -6.631  0.00  0.00    -0.091 S 
ATOM     28  C   UNL     1      -8.193  -8.695  -5.932  0.00  0.00    +0.093 C 
ENDBRANCH  21  27
ENDBRANCH  17  18
ENDBRANCH  16  17
ENDBRANCH   6  16
TORSDOF 5
