REMARK  Name = ZINC04734734
REMARK  8 active torsions:
REMARK  status: ('A' for Active; 'I' for Inactive)
REMARK    1  A    between atoms: C_1  and  C_2
REMARK    2  A    between atoms: C_2  and  C_4
REMARK    3  A    between atoms: C_2  and  N_10
REMARK    4  A    between atoms: C_11  and  C_13
REMARK    5  A    between atoms: C_17  and  C_25
REMARK    6  A    between atoms: C_20  and  C_22
REMARK    7  A    between atoms: C_22  and  C_23
REMARK    8  A    between atoms: C_22  and  C_24
REMARK                            x       y       z     vdW  Elec       q    Type
REMARK                         _______ _______ _______ _____ _____    ______ ____
ROOT
ATOM      1  C   UNL     1      -4.776  -1.556  -0.792  0.00  0.00    +0.173 C 
ATOM      2  C   UNL     1      -5.434  -2.950  -0.570  0.00  0.00    +0.103 C 
ATOM      3  S   UNL     1      -4.558  -3.879  -1.907  0.00  0.00    -0.131 S 
ATOM      4  C   UNL     1      -4.346  -2.465  -3.071  0.00  0.00    +0.167 C 
ATOM      5  N   UNL     1      -4.596  -1.291  -2.217  0.00  0.00    -0.273 N 
ATOM      6  C   UNL     1      -4.653  -0.043  -2.723  0.00  0.00    +0.220 C 
ATOM      7  O   UNL     1      -4.607   0.128  -3.922  0.00  0.00    -0.275 OA
ENDROOT
BRANCH   4   8
ATOM      8  C   UNL     1      -2.946  -2.438  -3.626  0.00  0.00    +0.001 A 
ATOM      9  C   UNL     1      -2.193  -1.281  -3.545  0.00  0.00    +0.008 A 
ATOM     10  C   UNL     1      -0.908  -1.255  -4.053  0.00  0.00    +0.000 A 
ATOM     11  C   UNL     1      -0.375  -2.386  -4.644  0.00  0.00    +0.001 A 
ATOM     12  C   UNL     1      -1.127  -3.543  -4.725  0.00  0.00    +0.020 A 
ATOM     13  C   UNL     1      -2.411  -3.571  -4.211  0.00  0.00    +0.047 A 
ATOM     14 CL   UNL     1      -3.353  -5.026  -4.307  0.00  0.00    -0.083 Cl
ENDBRANCH   4   8
BRANCH   1  16
ATOM     15  N   UNL     1      -3.351  -1.220   1.201  0.00  0.00    -0.307 N 
ATOM     16  C   UNL     1      -3.433  -1.527  -0.108  0.00  0.00    +0.235 C 
ATOM     17  O   UNL     1      -2.427  -1.780  -0.737  0.00  0.00    -0.274 OA
ATOM     18  H   UNL     1      -4.155  -1.018   1.704  0.00  0.00    +0.149 HD
BRANCH  15  20
ATOM     19  C   UNL     1      -1.395   0.177   1.655  0.00  0.00    +0.033 C 
ATOM     20  C   UNL     1      -2.046  -1.192   1.866  0.00  0.00    +0.100 C 
BRANCH  20  21
ATOM     21  C   UNL     1      -2.228  -1.439   3.342  0.00  0.00    -0.027 A 
ATOM     22  C   UNL     1      -3.297  -0.872   4.011  0.00  0.00    +0.005 A 
ATOM     23  C   UNL     1      -3.464  -1.099   5.364  0.00  0.00    +0.000 A 
ATOM     24  C   UNL     1      -2.563  -1.893   6.048  0.00  0.00    +0.000 A 
ATOM     25  C   UNL     1      -1.494  -2.460   5.379  0.00  0.00    +0.000 A 
ATOM     26  C   UNL     1      -1.329  -2.237   4.025  0.00  0.00    +0.005 A 
ENDBRANCH  20  21
ENDBRANCH  15  20
ENDBRANCH   1  16
BRANCH   6  27
ATOM     27  C   UNL     1      -4.775   1.141  -1.798  0.00  0.00    +0.069 C 
ATOM     28  C   UNL     1      -3.388   1.530  -1.282  0.00  0.00    +0.017 C 
ATOM     29  C   UNL     1      -5.387   2.320  -2.556  0.00  0.00    +0.017 C 
ENDBRANCH   6  27
TORSDOF 5
