REMARK  Name = ZINC12378986
REMARK  6 active torsions:
REMARK  status: ('A' for Active; 'I' for Inactive)
REMARK    1  A    between atoms: C_1  and  C_2
REMARK    2  A    between atoms: C_2  and  C_24
REMARK    3  A    between atoms: N_3  and  N_4
REMARK    4  A    between atoms: C_7  and  C_18
REMARK    5  A    between atoms: C_9  and  C_11
REMARK    6  A    between atoms: C_27  and  N_30
REMARK                            x       y       z     vdW  Elec       q    Type
REMARK                         _______ _______ _______ _____ _____    ______ ____
ROOT
ATOM      1  N   UNL     1      -2.713   1.096   1.057  0.00  0.00    -0.221 N 
ATOM      2  C   UNL     1      -1.760   1.753   1.820  0.00  0.00    +0.142 A 
ATOM      3  C   UNL     1      -0.662   1.060   2.330  0.00  0.00    +0.073 A 
ATOM      4  C   UNL     1       0.272   1.764   3.088  0.00  0.00    +0.077 A 
ATOM      5  N   UNL     1       0.083   3.066   3.302  0.00  0.00    -0.227 NA
ATOM      6  C   UNL     1      -0.975   3.688   2.805  0.00  0.00    +0.162 A 
ATOM      7  N   UNL     1      -1.884   3.051   2.080  0.00  0.00    -0.211 NA
ATOM      8  H   UNL     1      -2.618   0.148   0.874  0.00  0.00    +0.176 HD
ENDROOT
BRANCH   6   9
ATOM      9  C   UNL     1      -1.148   5.138   3.068  0.00  0.00    +0.019 A 
ATOM     10  C   UNL     1      -0.209   5.827   3.832  0.00  0.00    +0.012 A 
ATOM     11  C   UNL     1      -0.372   7.177   4.069  0.00  0.00    +0.016 A 
ATOM     12  C   UNL     1      -1.472   7.844   3.558  0.00  0.00    +0.018 A 
ATOM     13  C   UNL     1      -2.410   7.163   2.802  0.00  0.00    +0.016 A 
ATOM     14  C   UNL     1      -2.254   5.814   2.555  0.00  0.00    +0.012 A 
ATOM     15 BR   UNL     1      -1.693   9.692   3.893  0.00  0.00    -0.050 Br
ENDBRANCH   6   9
BRANCH   4  16
ATOM     16  C   UNL     1       1.460   1.074   3.648  0.00  0.00    +0.001 A 
ATOM     17  C   UNL     1       1.647  -0.289   3.425  0.00  0.00    +0.010 A 
ATOM     18  C   UNL     1       2.757  -0.924   3.943  0.00  0.00    +0.001 A 
ATOM     19  C   UNL     1       3.676  -0.213   4.694  0.00  0.00    +0.000 A 
ATOM     20  C   UNL     1       3.493   1.138   4.923  0.00  0.00    +0.001 A 
ATOM     21  C   UNL     1       2.389   1.785   4.404  0.00  0.00    +0.010 A 
ENDBRANCH   4  16
BRANCH   1  24
ATOM     22  C   UNL     1      -5.847   1.936  -0.774  0.00  0.00    +0.068 C 
ATOM     23  C   UNL     1      -4.762   1.166  -0.067  0.00  0.00    +0.063 C 
ATOM     24  N   UNL     1      -3.812   1.801   0.549  0.00  0.00    -0.186 NA
BRANCH  23  25
ATOM     25  C   UNL     1      -4.779  -0.308  -0.074  0.00  0.00    -0.002 A 
ATOM     26  C   UNL     1      -5.211  -0.999  -1.209  0.00  0.00    +0.012 A 
ATOM     27  C   UNL     1      -5.220  -2.379  -1.210  0.00  0.00    +0.033 A 
ATOM     28  C   UNL     1      -4.811  -3.078  -0.088  0.00  0.00    +0.126 A 
ATOM     29  C   UNL     1      -4.387  -2.400   1.041  0.00  0.00    +0.033 A 
ATOM     30  C   UNL     1      -4.368  -1.021   1.055  0.00  0.00    +0.012 A 
BRANCH  28  31
ATOM     31  N   UNL     1      -4.828  -4.558  -0.096  0.00  0.00    +0.056 N 
ATOM     32  O   UNL     1      -4.470  -5.176   0.890  0.00  0.00    -0.126 OA
ATOM     33  O   UNL     1      -5.201  -5.157  -1.089  0.00  0.00    -0.126 OA
ENDBRANCH  28  31
ENDBRANCH  23  25
ENDBRANCH   1  24
TORSDOF 5
