REMARK  Name = ZINC50323662
REMARK  5 active torsions:
REMARK  status: ('A' for Active; 'I' for Inactive)
REMARK    1  A    between atoms: C_1  and  C_2
REMARK    2  A    between atoms: C_2  and  C_3
REMARK    3  A    between atoms: C_10  and  C_12
REMARK    4  A    between atoms: C_13  and  N_21
REMARK    5  A    between atoms: C_14  and  C_18
REMARK                            x       y       z     vdW  Elec       q    Type
REMARK                         _______ _______ _______ _____ _____    ______ ____
ROOT
ATOM      1  C   UNL     1      -1.945   0.773   3.581  0.00  0.00    +0.141 A 
ATOM      2  C   UNL     1      -3.020   1.651   3.698  0.00  0.00    +0.078 A 
ATOM      3  C   UNL     1      -3.366   1.628   5.059  0.00  0.00    +0.087 A 
ATOM      4  N   UNL     1      -2.555   0.803   5.667  0.00  0.00    -0.176 NA
ATOM      5  N   UNL     1      -1.718   0.282   4.844  0.00  0.00    -0.271 N 
ATOM      6  H   UNL     1      -1.029  -0.359   5.078  0.00  0.00    +0.189 HD
ENDROOT
BRANCH   1  13
ATOM      7  C   UNL     1       0.105  -1.134   1.020  0.00  0.00    +0.076 C 
ATOM      8  C   UNL     1      -0.503  -2.332   0.284  0.00  0.00    +0.022 C 
ATOM      9  C   UNL     1      -0.687  -3.490   1.267  0.00  0.00    +0.003 C 
ATOM     10  C   UNL     1      -1.649  -3.068   2.380  0.00  0.00    +0.019 C 
ATOM     11  C   UNL     1      -1.055  -1.879   3.140  0.00  0.00    +0.108 C 
ATOM     12  N   UNL     1      -0.737  -0.812   2.181  0.00  0.00    -0.293 N 
ATOM     13  C   UNL     1      -1.211   0.437   2.360  0.00  0.00    +0.266 C 
ATOM     14  O   UNL     1      -1.029   1.285   1.506  0.00  0.00    -0.268 OA
BRANCH   7  16
ATOM     15  C   UNL     1       1.042  -0.266  -1.127  0.00  0.00    +0.006 C 
ATOM     16  C   UNL     1       0.164   0.071   0.079  0.00  0.00    +0.019 C 
ENDBRANCH   7  16
ENDBRANCH   1  13
BRANCH   3  17
ATOM     17  C   UNL     1      -4.478   2.415   5.704  0.00  0.00    +0.041 C 
ATOM     18  C   UNL     1      -4.559   2.400   7.232  0.00  0.00    +0.010 C 
ATOM     19  C   UNL     1      -5.588   1.627   6.403  0.00  0.00    +0.010 C 
ENDBRANCH   3  17
BRANCH   2  20
ATOM     20  N   UNL     1      -3.621   2.393   2.684  0.00  0.00    -0.355 N 
ATOM     21  H   UNL     1      -3.292   2.326   1.774  0.00  0.00    +0.142 HD
ATOM     22  H   UNL     1      -4.369   2.976   2.887  0.00  0.00    +0.142 HD
ENDBRANCH   2  20
TORSDOF 4
