REMARK  Name = ZINC36312336
REMARK  10 active torsions:
REMARK  status: ('A' for Active; 'I' for Inactive)
REMARK    1  A    between atoms: C_1  and  C_2
REMARK    2  A    between atoms: C_2  and  C_3
REMARK    3  A    between atoms: C_3  and  N_4
REMARK    4  A    between atoms: C_13  and  C_15
REMARK    5  A    between atoms: N_17  and  N_18
REMARK    6  A    between atoms: C_19  and  C_21
REMARK    7  A    between atoms: C_21  and  C_22
REMARK    8  A    between atoms: C_22  and  C_24
REMARK    9  A    between atoms: C_22  and  N_30
REMARK   10  A    between atoms: C_31  and  C_33
REMARK                            x       y       z     vdW  Elec       q    Type
REMARK                         _______ _______ _______ _____ _____    ______ ____
ROOT
ATOM      1  N   UNL     1      -1.406  -4.283  -4.989  0.00  0.00    -0.234 N 
ATOM      2  C   UNL     1      -1.422  -3.492  -6.080  0.00  0.00    +0.231 C 
ATOM      3  O   UNL     1      -1.438  -2.286  -5.954  0.00  0.00    -0.274 OA
ATOM      4  H   UNL     1      -1.393  -5.248  -5.089  0.00  0.00    +0.173 HD
ENDROOT
BRANCH   1   7
ATOM      5  C   UNL     1      -1.392  -4.503  -2.618  0.00  0.00    +0.281 C 
ATOM      6  O   UNL     1      -1.375  -5.712  -2.744  0.00  0.00    -0.267 OA
ATOM      7  N   UNL     1      -1.408  -3.712  -3.709  0.00  0.00    -0.229 N 
ATOM      8  H   UNL     1      -1.421  -2.747  -3.609  0.00  0.00    +0.173 HD
BRANCH   5  18
ATOM      9  N   UNL     1      -1.413  -1.998   0.005  0.00  0.00    -0.228 N 
ATOM     10  C   UNL     1      -1.399  -2.643   1.190  0.00  0.00    +0.275 A 
ATOM     11  O   UNL     1      -1.403  -2.022   2.237  0.00  0.00    -0.266 OA
ATOM     12  C   UNL     1      -1.379  -4.112   1.187  0.00  0.00    +0.050 A 
ATOM     13  C   UNL     1      -1.363  -4.870   2.354  0.00  0.00    +0.014 A 
ATOM     14  C   UNL     1      -1.344  -6.246   2.265  0.00  0.00    +0.001 A 
ATOM     15  C   UNL     1      -1.341  -6.878   1.029  0.00  0.00    +0.001 A 
ATOM     16  C   UNL     1      -1.357  -6.145  -0.139  0.00  0.00    +0.011 A 
ATOM     17  C   UNL     1      -1.376  -4.756  -0.072  0.00  0.00    +0.020 A 
ATOM     18  C   UNL     1      -1.394  -3.901  -1.270  0.00  0.00    +0.155 A 
ATOM     19  N   UNL     1      -1.416  -2.598  -1.125  0.00  0.00    -0.163 NA
BRANCH   9  20
ATOM     20  C   UNL     1      -1.433  -0.534   0.013  0.00  0.00    +0.147 C 
BRANCH  20  22
ATOM     21  C   UNL     1      -0.019   1.526   0.010  0.00  0.00    +0.005 C 
ATOM     22  C   UNL     1       0.002  -0.004   0.002  0.00  0.00    +0.020 C 
ENDBRANCH  20  22
ENDBRANCH   9  20
ENDBRANCH   5  18
ENDBRANCH   1   7
BRANCH   2  23
ATOM     23  C   UNL     1      -1.420  -4.107  -7.456  0.00  0.00    +0.124 C 
BRANCH  23  24
ATOM     24  C   UNL     1      -1.440  -2.998  -8.510  0.00  0.00    +0.112 C 
BRANCH  24  25
ATOM     25  C   UNL     1      -1.562  -3.610  -9.881  0.00  0.00    -0.027 A 
ATOM     26  C   UNL     1      -0.447  -4.140 -10.503  0.00  0.00    +0.005 A 
ATOM     27  C   UNL     1      -0.558  -4.702 -11.761  0.00  0.00    +0.000 A 
ATOM     28  C   UNL     1      -1.785  -4.734 -12.397  0.00  0.00    +0.000 A 
ATOM     29  C   UNL     1      -2.901  -4.205 -11.775  0.00  0.00    +0.000 A 
ATOM     30  C   UNL     1      -2.790  -3.647 -10.515  0.00  0.00    +0.005 A 
ENDBRANCH  24  25
BRANCH  24  31
ATOM     31  N   UNL     1      -0.199  -2.224  -8.429  0.00  0.00    -0.304 N 
ATOM     32  C   UNL     1      -0.171  -0.948  -8.860  0.00  0.00    +0.245 C 
ATOM     33  O   UNL     1      -1.175  -0.438  -9.316  0.00  0.00    -0.270 OA
ATOM     34  H   UNL     1       0.603  -2.631  -8.065  0.00  0.00    +0.150 HD
BRANCH  32  35
ATOM     35  C   UNL     1       1.082  -0.167  -8.778  0.00  0.00    +0.037 A 
ATOM     36  C   UNL     1       2.240  -0.751  -8.260  0.00  0.00    +0.013 A 
ATOM     37  C   UNL     1       3.405  -0.017  -8.187  0.00  0.00    +0.001 A 
ATOM     38  C   UNL     1       3.429   1.295  -8.626  0.00  0.00    +0.000 A 
ATOM     39  C   UNL     1       2.286   1.880  -9.139  0.00  0.00    +0.001 A 
ATOM     40  C   UNL     1       1.115   1.155  -9.224  0.00  0.00    +0.013 A 
ENDBRANCH  32  35
ENDBRANCH  24  31
ENDBRANCH  23  24
ENDBRANCH   2  23
TORSDOF 9
