REMARK  Name = ZINC01044424
REMARK  4 active torsions:
REMARK  status: ('A' for Active; 'I' for Inactive)
REMARK    1  A    between atoms: C_1  and  C_2
REMARK    2  A    between atoms: C_2  and  C_23
REMARK    3  A    between atoms: C_10  and  C_16
REMARK    4  A    between atoms: C_17  and  C_18
REMARK                            x       y       z     vdW  Elec       q    Type
REMARK                         _______ _______ _______ _____ _____    ______ ____
ROOT
ATOM      1  C   UNL     1      -0.019   1.526   0.010  0.00  0.00    +0.020 C 
ATOM      2  C   UNL     1       0.002  -0.004   0.002  0.00  0.00    +0.034 C 
ATOM      3  C   UNL     1      -1.402  -0.554   0.140  0.00  0.00    -0.017 A 
ATOM      4  C   UNL     1      -2.488  -0.488  -0.712  0.00  0.00    +0.006 A 
ATOM      5  C   UNL     1      -3.681  -1.094  -0.365  0.00  0.00    +0.000 A 
ATOM      6  C   UNL     1      -3.786  -1.767   0.839  0.00  0.00    +0.002 A 
ATOM      7  C   UNL     1      -2.709  -1.829   1.696  0.00  0.00    +0.023 A 
ATOM      8  C   UNL     1      -1.502  -1.213   1.358  0.00  0.00    +0.035 A 
ATOM      9  N   UNL     1      -0.320  -1.114   2.081  0.00  0.00    -0.304 N 
ATOM     10  C   UNL     1       0.739  -0.537   1.235  0.00  0.00    +0.130 C 
ATOM     11  N   UNL     1       1.384   0.530   1.992  0.00  0.00    -0.290 N 
ATOM     12  C   UNL     1       1.271   0.638   3.318  0.00  0.00    +0.216 C 
ATOM     13  O   UNL     1       1.967   1.467   3.865  0.00  0.00    -0.276 OA
ATOM     14  C   UNL     1       0.364  -0.172   4.192  0.00  0.00    +0.115 C 
ATOM     15  C   UNL     1      -0.081  -1.462   3.489  0.00  0.00    +0.117 C 
ATOM     16  C   UNL     1       0.659  -0.522  -1.279  0.00  0.00    +0.020 C 
ATOM     17  H   UNL     1       1.915   1.186   1.514  0.00  0.00    +0.151 HD
ENDROOT
BRANCH  10  18
ATOM     18  C   UNL     1       1.733  -1.597   0.837  0.00  0.00    +0.020 C 
ATOM     19  C   UNL     1       3.026  -1.427   1.097  0.00  0.00    +0.014 C 
BRANCH  19  20
ATOM     20  C   UNL     1       3.996  -2.462   0.708  0.00  0.00    +0.012 A 
ATOM     21  C   UNL     1       5.356  -2.483   0.888  0.00  0.00    +0.015 A 
ATOM     22  C   UNL     1       6.066  -3.573   0.435  0.00  0.00    +0.008 A 
ATOM     23  C   UNL     1       5.401  -4.590  -0.172  0.00  0.00    +0.046 A 
ATOM     24  S   UNL     1       3.710  -4.022  -0.112  0.00  0.00    -0.097 S 
ENDBRANCH  19  20
ENDBRANCH  10  18
TORSDOF 2
