REMARK  Name = ZINC51147905
REMARK  7 active torsions:
REMARK  status: ('A' for Active; 'I' for Inactive)
REMARK    1  A    between atoms: C_1  and  C_2
REMARK    2  A    between atoms: C_4  and  C_19
REMARK    3  A    between atoms: N_5  and  C_7
REMARK    4  A    between atoms: C_7  and  C_8
REMARK    5  A    between atoms: C_10  and  N_16
REMARK    6  A    between atoms: C_13  and  N_14
REMARK    7  A    between atoms: N_14  and  N_15
REMARK                            x       y       z     vdW  Elec       q    Type
REMARK                         _______ _______ _______ _____ _____    ______ ____
ROOT
ATOM      1  C   UNL     1       1.481  -3.682   1.774  0.00  0.00    -0.002 A 
ATOM      2  C   UNL     1       2.110  -4.635   0.997  0.00  0.00    +0.040 A 
ATOM      3  C   UNL     1       3.419  -4.991   1.261  0.00  0.00    +0.127 A 
ATOM      4  C   UNL     1       4.104  -4.394   2.304  0.00  0.00    +0.034 A 
ATOM      5  C   UNL     1       3.482  -3.440   3.085  0.00  0.00    +0.027 A 
ATOM      6  C   UNL     1       2.168  -3.076   2.819  0.00  0.00    +0.046 A 
ENDROOT
BRANCH   3   7
ATOM      7  N   UNL     1       4.089  -6.013   0.426  0.00  0.00    +0.056 N 
ATOM      8  O   UNL     1       3.492  -6.536  -0.485  0.00  0.00    -0.126 OA
ATOM      9  O   UNL     1       5.235  -6.325   0.656  0.00  0.00    -0.126 OA
ENDBRANCH   3   7
BRANCH   6  10
ATOM     10  N   UNL     1       1.537  -2.108   3.603  0.00  0.00    -0.283 N 
ATOM     11  H   UNL     1       0.619  -1.857   3.419  0.00  0.00    +0.166 HD
BRANCH  10  12
ATOM     12  N   UNL     1       2.214  -1.514   4.630  0.00  0.00    -0.257 NA
ATOM     13  H   UNL     1       3.068  -1.088   4.301  0.00  0.00    +0.140 HD
ATOM     14  H   UNL     1       1.633  -0.839   5.104  0.00  0.00    +0.140 HD
ENDBRANCH  10  12
ENDBRANCH   6  10
BRANCH   1  15
ATOM     15  C   UNL     1       0.053  -3.295   1.486  0.00  0.00    +0.180 C 
BRANCH  15  20
ATOM     16  C   UNL     1      -0.018   1.503   0.010  0.00  0.00    +0.068 C 
ATOM     17  C   UNL     1       0.002  -0.004   0.002  0.00  0.00    +0.074 A 
ATOM     18  C   UNL     1       0.008  -0.818  -1.136  0.00  0.00    +0.061 A 
ATOM     19  C   UNL     1       0.027  -2.108  -0.725  0.00  0.00    +0.051 A 
ATOM     20  N   UNL     1       0.034  -2.109   0.625  0.00  0.00    -0.263 N 
ATOM     21  N   UNL     1       0.023  -0.777   1.058  0.00  0.00    -0.175 NA
ATOM     22  C   UNL     1       0.039  -3.324  -1.615  0.00  0.00    +0.066 C 
ATOM     23 BR   UNL     1      -0.009  -0.222  -2.930  0.00  0.00    -0.047 Br
ENDBRANCH  15  20
ENDBRANCH   1  15
TORSDOF 5
