REMARK  Name = ZINC65003782
REMARK  5 active torsions:
REMARK  status: ('A' for Active; 'I' for Inactive)
REMARK    1  A    between atoms: C_1  and  C_2
REMARK    2  A    between atoms: C_5  and  C_7
REMARK    3  A    between atoms: C_10  and  S_12
REMARK    4  A    between atoms: S_12  and  N_15
REMARK    5  A    between atoms: N_15  and  C_16
REMARK                            x       y       z     vdW  Elec       q    Type
REMARK                         _______ _______ _______ _____ _____    ______ ____
ROOT
ATOM      1  C   UNL     1       0.053  -3.274   1.522  0.00  0.00    +0.058 A 
ATOM      2  C   UNL     1       0.054  -3.363   2.891  0.00  0.00    +0.021 A 
ATOM      3  C   UNL     1       0.074  -4.612   3.471  0.00  0.00    +0.037 A 
ATOM      4  C   UNL     1       0.091  -5.712   2.675  0.00  0.00    +0.143 A 
ATOM      5  S   UNL     1       0.073  -4.993   1.041  0.00  0.00    -0.065 S 
ENDROOT
BRANCH   1  10
ATOM      6  C   UNL     1      -0.018   1.503   0.010  0.00  0.00    +0.109 C 
ATOM      7  C   UNL     1       0.002  -0.004   0.002  0.00  0.00    +0.193 A 
ATOM      8  N   UNL     1       0.008  -0.754  -1.064  0.00  0.00    -0.221 NA
ATOM      9  C   UNL     1       0.027  -2.042  -0.690  0.00  0.00    +0.161 A 
ATOM     10  C   UNL     1       0.033  -2.073   0.671  0.00  0.00    +0.162 A 
ATOM     11  O   UNL     1       0.023  -0.788   1.090  0.00  0.00    -0.440 OA
ENDBRANCH   1  10
BRANCH   4  12
ATOM     12  S   UNL     1       0.119  -7.413   3.136  0.00  0.00    +0.065 S 
ATOM     13  O   UNL     1       0.681  -8.122   2.041  0.00  0.00    -0.153 OA
ATOM     14  O   UNL     1       0.670  -7.470   4.444  0.00  0.00    -0.153 OA
BRANCH  12  15
ATOM     15  N   UNL     1      -1.456  -7.910   3.264  0.00  0.00    -0.186 NA
ATOM     16  H   UNL     1      -1.810  -8.182   4.125  0.00  0.00    +0.148 HD
BRANCH  15  17
ATOM     17  C   UNL     1      -2.313  -7.940   2.077  0.00  0.00    +0.077 C 
ATOM     18  C   UNL     1      -3.179  -6.664   2.019  0.00  0.00    +0.020 C 
ATOM     19  C   UNL     1      -4.540  -7.154   1.466  0.00  0.00    +0.002 C 
ATOM     20  C   UNL     1      -4.710  -8.534   2.148  0.00  0.00    +0.002 C 
ATOM     21  C   UNL     1      -3.287  -9.129   2.159  0.00  0.00    +0.020 C 
ENDBRANCH  15  17
ENDBRANCH  12  15
ENDBRANCH   4  12
TORSDOF 4
