REMARK  Name = ZINC35562575
REMARK  10 active torsions:
REMARK  status: ('A' for Active; 'I' for Inactive)
REMARK    1  A    between atoms: C_1  and  C_2
REMARK    2  A    between atoms: C_2  and  C_3
REMARK    3  A    between atoms: C_3  and  C_5
REMARK    4  A    between atoms: C_3  and  O_6
REMARK    5  A    between atoms: O_6  and  C_7
REMARK    6  A    between atoms: C_14  and  C_23
REMARK    7  A    between atoms: N_15  and  C_16
REMARK    8  A    between atoms: C_16  and  C_17
REMARK    9  A    between atoms: N_25  and  C_26
REMARK   10  A    between atoms: C_26  and  C_27
REMARK                            x       y       z     vdW  Elec       q    Type
REMARK                         _______ _______ _______ _____ _____    ______ ____
ROOT
ATOM      1  C   UNL     1       2.410   0.894   2.386  0.00  0.00    +0.130 A 
ATOM      2  C   UNL     1       1.726   0.875   3.585  0.00  0.00    +0.046 A 
ATOM      3  C   UNL     1       2.384   1.159   4.774  0.00  0.00    +0.006 A 
ATOM      4  C   UNL     1       3.727   1.463   4.779  0.00  0.00    +0.026 A 
ATOM      5  C   UNL     1       4.441   1.488   3.585  0.00  0.00    +0.053 A 
ATOM      6  C   UNL     1       3.783   1.196   2.375  0.00  0.00    +0.042 A 
ATOM      7  C   UNL     1       4.747   1.290   1.345  0.00  0.00    +0.044 A 
ATOM      8  C   UNL     1       5.935   1.619   1.918  0.00  0.00    +0.106 A 
ATOM      9  N   UNL     1       5.757   1.752   3.283  0.00  0.00    -0.332 N 
ENDROOT
BRANCH   8  10
ATOM     10  C   UNL     1       7.202   1.816   1.201  0.00  0.00    +0.261 C 
ATOM     11  O   UNL     1       7.216   1.829  -0.016  0.00  0.00    -0.269 OA
ATOM     12  N   UNL     1       8.348   1.981   1.890  0.00  0.00    -0.303 N 
ATOM     13  H   UNL     1       8.350   1.891   2.856  0.00  0.00    +0.150 HD
BRANCH  12  14
ATOM     14  C   UNL     1       9.591   2.297   1.181  0.00  0.00    +0.179 C 
BRANCH  14  15
ATOM     15  C   UNL     1      10.716   2.429   2.174  0.00  0.00    +0.122 A 
ATOM     16  C   UNL     1      11.521   1.434   2.588  0.00  0.00    +0.046 A 
ATOM     17  C   UNL     1      12.428   2.000   3.514  0.00  0.00    +0.041 A 
ATOM     18  C   UNL     1      12.124   3.306   3.610  0.00  0.00    +0.195 A 
ATOM     19  O   UNL     1      11.090   3.562   2.792  0.00  0.00    -0.466 OA
ENDBRANCH  14  15
ENDBRANCH  12  14
ENDBRANCH   8  10
BRANCH   1  20
ATOM     20  O   UNL     1       1.762   0.616   1.226  0.00  0.00    -0.488 OA
BRANCH  20  21
ATOM     21  C   UNL     1       0.346   0.442   1.299  0.00  0.00    +0.170 C 
ATOM     22  C   UNL     1       0.024  -1.044   1.471  0.00  0.00    +0.052 C 
BRANCH  21  24
ATOM     23  C   UNL     1      -0.083   2.468  -0.097  0.00  0.00    +0.007 C 
ATOM     24  C   UNL     1      -0.299   0.958   0.011  0.00  0.00    +0.041 C 
ENDBRANCH  21  24
ENDBRANCH  20  21
ENDBRANCH   1  20
BRANCH   9  25
ATOM     25  C   UNL     1       6.801   2.099   4.250  0.00  0.00    +0.157 C 
BRANCH  25  26
ATOM     26  C   UNL     1       7.364   0.838   4.855  0.00  0.00    -0.028 A 
ATOM     27  C   UNL     1       6.722   0.237   5.921  0.00  0.00    +0.005 A 
ATOM     28  C   UNL     1       7.238  -0.919   6.476  0.00  0.00    +0.000 A 
ATOM     29  C   UNL     1       8.396  -1.474   5.964  0.00  0.00    +0.000 A 
ATOM     30  C   UNL     1       9.037  -0.874   4.897  0.00  0.00    +0.000 A 
ATOM     31  C   UNL     1       8.519   0.280   4.339  0.00  0.00    +0.005 A 
ENDBRANCH  25  26
ENDBRANCH   9  25
TORSDOF 8
