REMARK  Name = ZINC03599669
REMARK  7 active torsions:
REMARK  status: ('A' for Active; 'I' for Inactive)
REMARK    1  A    between atoms: C_1  and  C_2
REMARK    2  A    between atoms: C_11  and  O_15
REMARK    3  A    between atoms: O_15  and  C_16
REMARK    4  A    between atoms: C_16  and  C_17
REMARK    5  A    between atoms: N_22  and  C_23
REMARK    6  A    between atoms: C_23  and  C_24
REMARK    7  A    between atoms: C_23  and  C_25
REMARK                            x       y       z     vdW  Elec       q    Type
REMARK                         _______ _______ _______ _____ _____    ______ ____
ROOT
ATOM      1  C   UNL     1      -0.019   1.526   0.010  0.00  0.00    +0.008 C 
ATOM      2  C   UNL     1       0.002  -0.004   0.002  0.00  0.00    -0.009 C 
ATOM      3  C   UNL     1      -1.433  -0.538   0.021  0.00  0.00    +0.008 C 
ATOM      4  C   UNL     1      -1.430  -2.045  -0.236  0.00  0.00    +0.037 C 
ATOM      5  C   UNL     1      -0.471  -2.712   0.747  0.00  0.00    -0.023 A 
ATOM      6  C   UNL     1       0.475  -1.986   1.384  0.00  0.00    -0.004 A 
ATOM      7  S   UNL     1       1.345  -3.146   2.409  0.00  0.00    -0.073 S 
ATOM      8  C   UNL     1       0.442  -4.600   1.986  0.00  0.00    +0.116 A 
ATOM      9  C   UNL     1      -0.517  -4.133   1.051  0.00  0.00    +0.073 A 
ATOM     10  C   UNL     1      -1.415  -5.097   0.515  0.00  0.00    +0.227 A 
ATOM     11  N   UNL     1      -1.257  -6.343   0.952  0.00  0.00    -0.201 NA
ATOM     12  C   UNL     1      -0.340  -6.706   1.827  0.00  0.00    +0.226 A 
ATOM     13  N   UNL     1       0.529  -5.859   2.365  0.00  0.00    -0.228 NA
ATOM     14  C   UNL     1       0.737  -0.516   1.249  0.00  0.00    +0.046 C 
ENDROOT
BRANCH  10  15
ATOM     15  O   UNL     1      -2.372  -4.767  -0.385  0.00  0.00    -0.466 OA
BRANCH  15  16
ATOM     16  C   UNL     1      -3.215  -5.822  -0.853  0.00  0.00    +0.326 C 
BRANCH  16  17
ATOM     17  C   UNL     1      -4.210  -5.269  -1.840  0.00  0.00    +0.258 C 
ATOM     18  O   UNL     1      -4.199  -4.089  -2.116  0.00  0.00    -0.272 OA
ATOM     19  N   UNL     1      -5.113  -6.087  -2.416  0.00  0.00    -0.237 N 
ATOM     20  C   UNL     1      -6.004  -5.593  -3.299  0.00  0.00    +0.306 C 
ATOM     21  O   UNL     1      -5.993  -4.410  -3.575  0.00  0.00    -0.252 OA
ATOM     22  N   UNL     1      -6.907  -6.412  -3.874  0.00  0.00    -0.297 N 
ATOM     23  H   UNL     1      -5.122  -7.032  -2.195  0.00  0.00    +0.159 HD
ATOM     24  H   UNL     1      -6.916  -7.356  -3.654  0.00  0.00    +0.151 HD
BRANCH  22  25
ATOM     25  C   UNL     1      -7.875  -5.875  -4.834  0.00  0.00    +0.068 C 
ATOM     26  C   UNL     1      -7.243  -5.833  -6.227  0.00  0.00    +0.027 C 
ATOM     27  C   UNL     1      -9.115  -6.771  -4.864  0.00  0.00    +0.027 C 
ENDBRANCH  22  25
ENDBRANCH  16  17
ENDBRANCH  15  16
ENDBRANCH  10  15
TORSDOF 4
