REMARK  Name = ZINC39007392
REMARK  8 active torsions:
REMARK  status: ('A' for Active; 'I' for Inactive)
REMARK    1  A    between atoms: C_1  and  C_2
REMARK    2  A    between atoms: C_5  and  O_36
REMARK    3  A    between atoms: C_6  and  C_8
REMARK    4  A    between atoms: C_11  and  C_13
REMARK    5  A    between atoms: N_15  and  C_16
REMARK    6  A    between atoms: C_18  and  C_26
REMARK    7  A    between atoms: N_28  and  C_29
REMARK    8  A    between atoms: C_29  and  C_30
REMARK                            x       y       z     vdW  Elec       q    Type
REMARK                         _______ _______ _______ _____ _____    ______ ____
ROOT
ATOM      1  C   UNL     1       0.075  -3.645   6.157  0.00  0.00    +0.261 C 
ATOM      2  O   UNL     1       0.058  -2.637   6.838  0.00  0.00    -0.269 OA
ATOM      3  N   UNL     1       0.098  -4.857   6.747  0.00  0.00    -0.297 N 
ATOM      4  H   UNL     1       0.112  -5.660   6.203  0.00  0.00    +0.150 HD
ENDROOT
BRANCH   3   5
ATOM      5  C   UNL     1       0.103  -4.961   8.208  0.00  0.00    +0.152 C 
ATOM      6  C   UNL     1      -0.973  -5.950   8.710  0.00  0.00    +0.132 C 
ATOM      7  C   UNL     1      -1.617  -5.467   9.996  0.00  0.00    -0.046 C 
ATOM      8  C   UNL     1      -1.501  -4.185  10.293  0.00  0.00    -0.013 C 
ATOM      9  S   UNL     1      -0.538  -3.426   8.997  0.00  0.00    -0.106 S 
ATOM     10  C   UNL     1      -2.203  -3.829  11.582  0.00  0.00    +0.042 C 
ATOM     11  C   UNL     1      -3.147  -5.020  11.851  0.00  0.00    +0.009 C 
ATOM     12  C   UNL     1      -2.420  -6.156  11.106  0.00  0.00    +0.033 C 
BRANCH   6  13
ATOM     13  C   UNL     1      -0.332  -7.291   8.957  0.00  0.00    +0.223 C 
ATOM     14  O   UNL     1      -0.337  -7.770  10.071  0.00  0.00    -0.275 OA
ATOM     15  N   UNL     1       0.247  -7.959   7.939  0.00  0.00    -0.312 N 
ATOM     16  H   UNL     1       0.252  -7.576   7.048  0.00  0.00    +0.149 HD
BRANCH  15  17
ATOM     17  C   UNL     1       0.871  -9.263   8.179  0.00  0.00    +0.135 C 
BRANCH  17  18
ATOM     18  C   UNL     1       1.449  -9.800   6.869  0.00  0.00    +0.135 C 
ATOM     19  C   UNL     1       2.001 -11.226   7.085  0.00  0.00    +0.035 C 
ATOM     20  C   UNL     1       3.296 -11.212   6.228  0.00  0.00    +0.031 C 
ATOM     21  C   UNL     1       3.753  -9.743   6.409  0.00  0.00    +0.160 C 
ATOM     22  O   UNL     1       2.538  -8.973   6.443  0.00  0.00    -0.375 OA
ENDBRANCH  17  18
ENDBRANCH  15  17
ENDBRANCH   6  13
ENDBRANCH   3   5
BRANCH   1  26
ATOM     23  C   UNL     1       0.052  -2.840   2.447  0.00  0.00    +0.080 C 
ATOM     24  N   UNL     1       0.076  -4.144   2.609  0.00  0.00    -0.153 NA
ATOM     25  N   UNL     1       0.086  -4.520   3.827  0.00  0.00    -0.148 NA
ATOM     26  C   UNL     1       0.070  -3.542   4.695  0.00  0.00    +0.131 C 
ATOM     27  C   UNL     1       0.052  -2.273   3.857  0.00  0.00    +0.120 C 
BRANCH  23  33
ATOM     28  C   UNL     1      -0.018   1.503   0.010  0.00  0.00    +0.044 C 
ATOM     29  C   UNL     1       0.002  -0.004   0.002  0.00  0.00    -0.050 A 
ATOM     30  C   UNL     1       0.006  -0.687  -1.205  0.00  0.00    +0.007 A 
ATOM     31  C   UNL     1       0.024  -2.068  -1.229  0.00  0.00    +0.046 A 
ATOM     32  C   UNL     1       0.040  -2.784  -0.042  0.00  0.00    +0.126 A 
ATOM     33  C   UNL     1       0.036  -2.097   1.185  0.00  0.00    +0.040 A 
ATOM     34  C   UNL     1       0.023  -0.695   1.192  0.00  0.00    +0.016 A 
BRANCH  32  35
ATOM     35  O   UNL     1       0.057  -4.140  -0.064  0.00  0.00    -0.506 OA
ATOM     36  H   UNL     1       0.945  -4.522  -0.075  0.00  0.00    +0.292 HD
ENDBRANCH  32  35
ENDBRANCH  23  33
ENDBRANCH   1  26
TORSDOF 7
