REMARK  Name = ZINC35363849
REMARK  14 active torsions:
REMARK  status: ('A' for Active; 'I' for Inactive)
REMARK    1  A    between atoms: C_1  and  C_2
REMARK    2  A    between atoms: C_13  and  C_14
REMARK    3  A    between atoms: C_13  and  O_15
REMARK    4  A    between atoms: N_21  and  O_22
REMARK    5  A    between atoms: O_22  and  C_23
REMARK    6  A    between atoms: C_23  and  C_24
REMARK    7  A    between atoms: N_26  and  C_27
REMARK    8  A    between atoms: C_27  and  C_28
REMARK    9  A    between atoms: C_28  and  C_29
REMARK   10  A    between atoms: C_28  and  C_30
REMARK   11  A    between atoms: C_28  and  C_31
REMARK   12  A    between atoms: C_31  and  C_33
REMARK   13  A    between atoms: C_31  and  O_36
REMARK   14  A    between atoms: C_39  and  C_40
REMARK                            x       y       z     vdW  Elec       q    Type
REMARK                         _______ _______ _______ _____ _____    ______ ____
ROOT
ATOM      1  C   UNL     1      -0.019   1.526   0.010  0.00  0.00    +0.014 C 
ATOM      2  C   UNL     1       0.002  -0.004   0.002  0.00  0.00    -0.000 C 
ATOM      3  C   UNL     1      -1.416  -0.537   0.073  0.00  0.00    +0.010 C 
ATOM      4  C   UNL     1      -2.078   0.098   1.306  0.00  0.00    +0.005 C 
ATOM      5  C   UNL     1      -1.299  -0.203   2.583  0.00  0.00    +0.006 C 
ATOM      6  C   UNL     1       0.172   0.226   2.466  0.00  0.00    -0.003 C 
ATOM      7  C   UNL     1       0.751  -0.527   1.257  0.00  0.00    +0.001 C 
ATOM      8  C   UNL     1       2.207  -0.193   0.911  0.00  0.00    +0.007 C 
ATOM      9  C   UNL     1       2.304  -0.574  -0.592  0.00  0.00    +0.035 C 
ATOM     10  C   UNL     1       0.862  -0.503  -1.154  0.00  0.00    +0.069 C 
ATOM     11  C   UNL     1       0.398  -1.891  -1.600  0.00  0.00    +0.042 C 
ATOM     12  C   UNL     1       0.923  -0.164   3.741  0.00  0.00    +0.008 C 
ATOM     13  C   UNL     1       0.347   0.604   4.935  0.00  0.00    +0.032 C 
ATOM     14  C   UNL     1      -1.146   0.337   4.992  0.00  0.00    -0.058 C 
ATOM     15  C   UNL     1      -1.679  -0.072   6.130  0.00  0.00    +0.031 C 
ATOM     16  C   UNL     1      -3.124  -0.361   6.218  0.00  0.00    +0.102 C 
ATOM     17  N   UNL     1      -3.665  -0.728   7.348  0.00  0.00    -0.085 NA
ATOM     18  C   UNL     1      -3.945  -0.224   4.996  0.00  0.00    +0.027 C 
ATOM     19  C   UNL     1      -3.386   0.193   3.875  0.00  0.00    -0.014 C 
ATOM     20  C   UNL     1      -1.927   0.561   3.752  0.00  0.00    +0.011 C 
ATOM     21  C   UNL     1      -1.850   2.054   3.426  0.00  0.00    +0.020 C 
ENDROOT
BRANCH  10  22
ATOM     22  O   UNL     1       0.802   0.415  -2.248  0.00  0.00    -0.388 OA
ATOM     23  H   UNL     1       1.331   0.150  -3.013  0.00  0.00    +0.210 HD
ENDBRANCH  10  22
BRANCH  17  24
ATOM     24  O   UNL     1      -5.053  -1.001   7.414  0.00  0.00    -0.384 OA
BRANCH  24  25
ATOM     25  C   UNL     1      -5.508  -1.391   8.711  0.00  0.00    +0.358 C 
BRANCH  25  26
ATOM     26  C   UNL     1      -6.991  -1.655   8.665  0.00  0.00    +0.253 C 
ATOM     27  O   UNL     1      -7.598  -1.522   7.624  0.00  0.00    -0.272 OA
ATOM     28  N   UNL     1      -7.642  -2.039   9.781  0.00  0.00    -0.312 N 
ATOM     29  H   UNL     1      -7.156  -2.145  10.614  0.00  0.00    +0.149 HD
BRANCH  28  30
ATOM     30  C   UNL     1      -9.083  -2.296   9.736  0.00  0.00    +0.113 C 
BRANCH  30  31
ATOM     31  C   UNL     1      -9.570  -2.714  11.125  0.00  0.00    +0.017 C 
ATOM     32  C   UNL     1      -8.839  -3.985  11.560  0.00  0.00    +0.015 C 
ATOM     33  C   UNL     1      -9.283  -1.592  12.125  0.00  0.00    +0.015 C 
BRANCH  31  34
ATOM     34  C   UNL     1     -11.076  -2.982  11.078  0.00  0.00    +0.234 C 
BRANCH  34  35
ATOM     35  C   UNL     1     -11.556  -3.394  12.446  0.00  0.00    +0.384 C 
ATOM     36  O   UNL     1     -12.335  -2.684  13.058  0.00  0.00    -0.243 OA
ATOM     37  O   UNL     1     -11.164  -4.437  12.941  0.00  0.00    -0.243 OA
ENDBRANCH  34  35
BRANCH  34  38
ATOM     38  O   UNL     1     -11.759  -1.795  10.671  0.00  0.00    -0.380 OA
ATOM     39  H   UNL     1     -11.622  -1.041  11.260  0.00  0.00    +0.211 HD
ENDBRANCH  34  38
ENDBRANCH  31  34
ENDBRANCH  30  31
ENDBRANCH  28  30
ENDBRANCH  25  26
ENDBRANCH  24  25
ENDBRANCH  17  24
TORSDOF 9
