REMARK  Name = ZINC21526025
REMARK  12 active torsions:
REMARK  status: ('A' for Active; 'I' for Inactive)
REMARK    1  A    between atoms: C_1  and  C_2
REMARK    2  A    between atoms: C_2  and  C_3
REMARK    3  A    between atoms: C_12  and  C_23
REMARK    4  A    between atoms: C_12  and  C_24
REMARK    5  A    between atoms: N_13  and  C_16
REMARK    6  A    between atoms: C_16  and  C_17
REMARK    7  A    between atoms: C_17  and  N_18
REMARK    8  A    between atoms: N_18  and  C_19
REMARK    9  A    between atoms: N_18  and  C_21
REMARK   10  A    between atoms: C_19  and  C_20
REMARK   11  A    between atoms: C_21  and  C_22
REMARK   12  A    between atoms: N_26  and  C_27
REMARK                            x       y       z     vdW  Elec       q    Type
REMARK                         _______ _______ _______ _____ _____    ______ ____
ROOT
ATOM      1  C   UNL     1       3.204   7.052   8.535  0.00  0.00    -0.008 A 
ATOM      2  C   UNL     1       2.885   6.213   7.527  0.00  0.00    +0.037 A 
ATOM      3  C   UNL     1       3.213   4.853   7.609  0.00  0.00    +0.057 A 
ATOM      4  C   UNL     1       3.876   4.459   8.782  0.00  0.00    +0.038 A 
ATOM      5  S   UNL     1       4.008   5.969   9.704  0.00  0.00    -0.092 S 
ATOM      6  C   UNL     1       4.143   3.096   8.730  0.00  0.00    +0.048 A 
ATOM      7  C   UNL     1       3.660   2.637   7.541  0.00  0.00    +0.106 A 
ATOM      8  N   UNL     1       3.083   3.701   6.855  0.00  0.00    -0.333 N 
ATOM      9  C   UNL     1       2.447   3.525   5.547  0.00  0.00    +0.157 C 
ATOM     10  C   UNL     1       3.121   2.364   4.816  0.00  0.00    +0.128 C 
ATOM     11  N   UNL     1       3.294   1.190   5.664  0.00  0.00    -0.282 N 
ATOM     12  C   UNL     1       3.679   1.290   6.958  0.00  0.00    +0.264 C 
ATOM     13  O   UNL     1       4.022   0.316   7.603  0.00  0.00    -0.268 OA
ATOM     14  C   UNL     1       4.495   2.823   4.323  0.00  0.00    +0.043 C 
ENDROOT
BRANCH  10  15
ATOM     15  C   UNL     1       2.279   1.984   3.625  0.00  0.00    +0.238 C 
ATOM     16  O   UNL     1       2.629   2.302   2.509  0.00  0.00    -0.273 OA
ATOM     17  N   UNL     1       1.136   1.292   3.801  0.00  0.00    -0.311 N 
ATOM     18  H   UNL     1       0.873   0.909   4.798  0.00  0.00    +0.149 HD
BRANCH  17  19
ATOM     19  C   UNL     1       0.245   1.048   2.665  0.00  0.00    +0.073 C 
ATOM     20  C   UNL     1       0.686  -0.190   1.932  0.00  0.00    +0.022 C 
ATOM     21  C   UNL     1       0.441  -0.096   0.414  0.00  0.00    +0.002 C 
ATOM     22  C   UNL     1      -0.920   0.537   0.067  0.00  0.00    +0.000 C 
ATOM     23  C   UNL     1      -2.028   0.046   0.959  0.00  0.00    +0.000 C 
ATOM     24  C   UNL     1      -2.189   1.037   2.130  0.00  0.00    +0.002 C 
ATOM     25  C   UNL     1      -1.195   0.830   3.173  0.00  0.00    +0.022 C 
ENDBRANCH  17  19
ENDBRANCH  10  15
BRANCH   1  27
ATOM     26  C   UNL     1       1.585   8.763   9.309  0.00  0.00    +0.009 C 
ATOM     27  C   UNL     1       2.944   8.532   8.646  0.00  0.00    +0.039 C 
ENDBRANCH   1  27
BRANCH  11  28
ATOM     28  C   UNL     1       3.042  -0.137   5.098  0.00  0.00    +0.091 C 
BRANCH  28  29
ATOM     29  C   UNL     1       4.349  -0.716   4.553  0.00  0.00    -0.060 C 
BRANCH  29  30
ATOM     30  N   UNL     1       4.097  -2.047   3.986  0.00  0.00    +0.380 N 
ATOM     31  H   UNL     1       3.260  -1.959   3.277  0.00  0.00    -0.082 HD
BRANCH  30  32
ATOM     32  C   UNL     1       5.268  -2.534   3.244  0.00  0.00    -0.082 C 
ATOM     33  C   UNL     1       5.354  -1.813   1.897  0.00  0.00    -0.017 C 
ENDBRANCH  30  32
BRANCH  30  34
ATOM     34  C   UNL     1       3.704  -2.999   5.033  0.00  0.00    -0.082 C 
ATOM     35  C   UNL     1       3.064  -4.230   4.388  0.00  0.00    -0.017 C 
ENDBRANCH  30  34
ENDBRANCH  29  30
ENDBRANCH  28  29
ENDBRANCH  11  28
TORSDOF 8
