REMARK  Name = ZINC39596137
REMARK  10 active torsions:
REMARK  status: ('A' for Active; 'I' for Inactive)
REMARK    1  A    between atoms: C_1  and  C_2
REMARK    2  A    between atoms: C_2  and  C_4
REMARK    3  A    between atoms: C_2  and  O_30
REMARK    4  A    between atoms: C_4  and  N_5
REMARK    5  A    between atoms: C_6  and  C_8
REMARK    6  A    between atoms: C_19  and  C_21
REMARK    7  A    between atoms: C_25  and  N_27
REMARK    8  A    between atoms: N_27  and  C_28
REMARK    9  A    between atoms: N_27  and  C_29
REMARK   10  A    between atoms: O_30  and  C_31
REMARK                            x       y       z     vdW  Elec       q    Type
REMARK                         _______ _______ _______ _____ _____    ______ ____
ROOT
ATOM      1  C   UNL     1       1.626  -3.758   1.805  0.00  0.00    +0.100 C 
ATOM      2  C   UNL     1       0.223  -4.397   1.696  0.00  0.00    +0.121 C 
ATOM      3  N   UNL     1       0.325  -5.657   2.470  0.00  0.00    -0.296 N 
ATOM      4  C   UNL     1       1.154  -5.300   3.647  0.00  0.00    +0.115 C 
ATOM      5  C   UNL     1       2.232  -4.352   3.087  0.00  0.00    -0.004 C 
ATOM      6  C   UNL     1       3.502  -5.132   2.758  0.00  0.00    -0.010 C 
ATOM      7  C   UNL     1       4.117  -5.666   4.055  0.00  0.00    -0.082 C 
ATOM      8  N   UNL     1       4.427  -4.544   4.949  0.00  0.00    +0.379 N 
ATOM      9  C   UNL     1       3.189  -3.854   5.335  0.00  0.00    -0.082 C 
ATOM     10  C   UNL     1       2.534  -3.245   4.092  0.00  0.00    -0.010 C 
ATOM     11  C   UNL     1      -0.213  -6.856   2.172  0.00  0.00    +0.247 C 
ATOM     12  O   UNL     1      -0.780  -7.020   1.110  0.00  0.00    -0.270 OA
ATOM     13  H   UNL     1       4.888  -4.892   5.777  0.00  0.00    -0.086 HD
ATOM     14  H   UNL     1       5.037  -3.896   4.475  0.00  0.00    -0.086 HD
ENDROOT
BRANCH  11  15
ATOM     15  C   UNL     1      -0.114  -7.971   3.138  0.00  0.00    +0.039 A 
ATOM     16  C   UNL     1       0.044  -7.707   4.500  0.00  0.00    +0.013 A 
ATOM     17  C   UNL     1       0.136  -8.750   5.399  0.00  0.00    +0.003 A 
ATOM     18  C   UNL     1       0.073 -10.058   4.956  0.00  0.00    +0.023 A 
ATOM     19  C   UNL     1      -0.084 -10.332   3.603  0.00  0.00    +0.030 A 
ATOM     20  C   UNL     1      -0.184  -9.291   2.692  0.00  0.00    +0.036 A 
BRANCH  19  21
ATOM     21  N   UNL     1      -0.146 -11.655   3.160  0.00  0.00    -0.336 N 
ATOM     22  C   UNL     1      -0.161 -12.752   4.131  0.00  0.00    +0.129 C 
ATOM     23  C   UNL     1      -0.198 -11.947   1.725  0.00  0.00    +0.129 C 
ENDBRANCH  19  21
ENDBRANCH  11  15
BRANCH   1  25
ATOM     24  N   UNL     1       2.486  -1.468   1.435  0.00  0.00    -0.312 N 
ATOM     25  C   UNL     1       1.511  -2.260   1.924  0.00  0.00    +0.218 C 
ATOM     26  O   UNL     1       0.541  -1.766   2.460  0.00  0.00    -0.275 OA
ATOM     27  H   UNL     1       3.261  -1.863   1.006  0.00  0.00    +0.149 HD
BRANCH  24  28
ATOM     28  C   UNL     1       2.374  -0.012   1.551  0.00  0.00    +0.148 C 
BRANCH  28  30
ATOM     29  C   UNL     1       3.549   2.157   1.152  0.00  0.00    +0.053 C 
ATOM     30  C   UNL     1       3.604   0.645   0.921  0.00  0.00    +0.187 C 
BRANCH  30  31
ATOM     31  O   UNL     1       3.620   0.378  -0.482  0.00  0.00    -0.488 OA
BRANCH  31  32
ATOM     32  C   UNL     1       4.829   0.416  -1.104  0.00  0.00    +0.121 A 
ATOM     33  C   UNL     1       5.986   0.600  -0.361  0.00  0.00    +0.048 A 
ATOM     34  C   UNL     1       7.213   0.638  -0.994  0.00  0.00    +0.042 A 
ATOM     35  C   UNL     1       7.289   0.494  -2.369  0.00  0.00    +0.124 A 
ATOM     36  C   UNL     1       6.135   0.311  -3.111  0.00  0.00    +0.042 A 
ATOM     37  C   UNL     1       4.907   0.266  -2.481  0.00  0.00    +0.048 A 
ATOM     38  F   UNL     1       8.490   0.532  -2.986  0.00  0.00    -0.205 F 
ENDBRANCH  31  32
ENDBRANCH  30  31
ENDBRANCH  28  30
ENDBRANCH  24  28
ENDBRANCH   1  25
TORSDOF 7
