REMARK  Name = ZINC36357998
REMARK  3 active torsions:
REMARK  status: ('A' for Active; 'I' for Inactive)
REMARK    1  A    between atoms: C_5  and  N_7
REMARK    2  A    between atoms: C_13  and  O_22
REMARK    3  A    between atoms: C_15  and  C_17
REMARK                            x       y       z     vdW  Elec       q    Type
REMARK                         _______ _______ _______ _____ _____    ______ ____
ROOT
ATOM      1  N   UNL     1       1.236  -2.082  -0.022  0.00  0.00    -0.282 N 
ATOM      2  C   UNL     1       0.781  -2.898  -1.019  0.00  0.00    +0.206 A 
ATOM      3  N   UNL     1       0.969  -4.146  -0.666  0.00  0.00    -0.237 NA
ATOM      4  C   UNL     1       1.534  -4.185   0.534  0.00  0.00    +0.094 A 
ATOM      5  C   UNL     1       1.722  -2.895   0.960  0.00  0.00    +0.165 A 
ATOM      6  N   UNL     1       2.301  -2.609   2.161  0.00  0.00    -0.197 NA
ATOM      7  C   UNL     1       2.394  -3.550   3.055  0.00  0.00    +0.190 C 
ATOM      8  C   UNL     1       1.860  -4.937   2.849  0.00  0.00    +0.110 C 
ATOM      9  C   UNL     1       1.945  -5.362   1.383  0.00  0.00    +0.081 C 
ENDROOT
BRANCH   1  14
ATOM     10  C   UNL     1      -0.017   1.377   0.010  0.00  0.00    +0.002 A 
ATOM     11  C   UNL     1       1.171   2.086   0.002  0.00  0.00    +0.001 A 
ATOM     12  C   UNL     1       2.380   1.416  -0.013  0.00  0.00    +0.017 A 
ATOM     13  C   UNL     1       2.405   0.034  -0.022  0.00  0.00    +0.042 A 
ATOM     14  C   UNL     1       1.214  -0.680  -0.014  0.00  0.00    +0.063 A 
ATOM     15  C   UNL     1       0.002  -0.004   0.002  0.00  0.00    +0.027 A 
ATOM     16 BR   UNL     1       4.059  -0.882  -0.044  0.00  0.00    -0.048 Br
ENDBRANCH   1  14
BRANCH   9  17
ATOM     17  C   UNL     1       3.364  -5.754   1.060  0.00  0.00    -0.031 A 
ATOM     18  C   UNL     1       3.651  -7.017   0.579  0.00  0.00    +0.012 A 
ATOM     19  C   UNL     1       4.938  -7.337   0.298  0.00  0.00    +0.045 A 
ATOM     20  S   UNL     1       5.794  -5.827   0.716  0.00  0.00    -0.105 S 
ATOM     21  C   UNL     1       4.378  -4.870   1.231  0.00  0.00    +0.049 A 
ENDBRANCH   9  17
BRANCH   7  22
ATOM     22  O   UNL     1       3.001  -3.264   4.226  0.00  0.00    -0.495 OA
ATOM     23  H   UNL     1       3.321  -2.353   4.291  0.00  0.00    +0.293 HD
ENDBRANCH   7  22
TORSDOF 3
