REMARK  Name = ZINC40026982
REMARK  11 active torsions:
REMARK  status: ('A' for Active; 'I' for Inactive)
REMARK    1  A    between atoms: C_1  and  C_2
REMARK    2  A    between atoms: C_4  and  C_10
REMARK    3  A    between atoms: C_7  and  O_8
REMARK    4  A    between atoms: O_8  and  C_9
REMARK    5  A    between atoms: C_10  and  C_12
REMARK    6  A    between atoms: N_16  and  C_29
REMARK    7  A    between atoms: C_17  and  C_19
REMARK    8  A    between atoms: C_21  and  O_27
REMARK    9  A    between atoms: C_22  and  O_26
REMARK   10  A    between atoms: O_27  and  C_28
REMARK   11  A    between atoms: C_29  and  C_30
REMARK                            x       y       z     vdW  Elec       q    Type
REMARK                         _______ _______ _______ _____ _____    ______ ____
ROOT
ATOM      1  C   UNL     1      -0.209  -3.661  -3.095  0.00  0.00    +0.076 C 
ATOM      2  C   UNL     1      -0.266  -4.410  -4.221  0.00  0.00    +0.249 C 
ATOM      3  C   UNL     1      -0.130  -5.837  -3.862  0.00  0.00    +0.288 C 
ATOM      4  O   UNL     1      -0.142  -6.759  -4.654  0.00  0.00    -0.266 OA
ATOM      5  N   UNL     1       0.008  -5.965  -2.530  0.00  0.00    -0.280 N 
ATOM      6  C   UNL     1      -0.023  -4.620  -1.942  0.00  0.00    +0.145 C 
ATOM      7  O   UNL     1      -0.421  -3.928  -5.476  0.00  0.00    -0.282 OA
ENDROOT
BRANCH   6   8
ATOM      8  C   UNL     1      -1.178  -4.505  -0.981  0.00  0.00    -0.018 A 
ATOM      9  C   UNL     1      -1.020  -3.814   0.206  0.00  0.00    +0.055 A 
ATOM     10  C   UNL     1      -2.080  -3.706   1.092  0.00  0.00    +0.163 A 
ATOM     11  C   UNL     1      -3.303  -4.295   0.783  0.00  0.00    +0.173 A 
ATOM     12  C   UNL     1      -3.455  -4.986  -0.409  0.00  0.00    +0.063 A 
ATOM     13  C   UNL     1      -2.393  -5.085  -1.290  0.00  0.00    +0.025 A 
ATOM     14 BR   UNL     1      -5.114  -5.788  -0.832  0.00  0.00    -0.046 Br
BRANCH  11  15
ATOM     15  O   UNL     1      -4.347  -4.193   1.649  0.00  0.00    -0.503 OA
ATOM     16  H   UNL     1      -4.907  -3.418   1.501  0.00  0.00    +0.292 HD
ENDBRANCH  11  15
BRANCH  10  17
ATOM     17  O   UNL     1      -1.927  -3.027   2.260  0.00  0.00    -0.491 OA
ATOM     18  C   UNL     1      -0.681  -2.355   2.461  0.00  0.00    +0.277 C 
ENDBRANCH  10  17
ENDBRANCH   6   8
BRANCH   1  19
ATOM     19  C   UNL     1      -0.303  -2.200  -3.011  0.00  0.00    +0.195 C 
ATOM     20  O   UNL     1      -1.331  -1.637  -3.340  0.00  0.00    -0.287 OA
BRANCH  19  24
ATOM     21  C   UNL     1       1.662   2.182  -1.666  0.00  0.00    +0.047 C 
ATOM     22  C   UNL     1       1.797   0.696  -1.878  0.00  0.00    -0.008 A 
ATOM     23  C   UNL     1       0.721  -0.035  -2.330  0.00  0.00    +0.018 A 
ATOM     24  C   UNL     1       0.848  -1.413  -2.527  0.00  0.00    +0.023 A 
ATOM     25  C   UNL     1       2.067  -2.044  -2.264  0.00  0.00    +0.015 A 
ATOM     26  C   UNL     1       3.138  -1.306  -1.812  0.00  0.00    +0.046 A 
ATOM     27  C   UNL     1       3.010   0.066  -1.623  0.00  0.00    +0.123 A 
BRANCH  27  28
ATOM     28  O   UNL     1       4.069   0.790  -1.183  0.00  0.00    -0.495 OA
ATOM     29  C   UNL     1       5.312   0.100  -1.039  0.00  0.00    +0.277 C 
ENDBRANCH  27  28
ENDBRANCH  19  24
ENDBRANCH   1  19
BRANCH   5  30
ATOM     30  C   UNL     1       0.167  -7.223  -1.796  0.00  0.00    +0.136 C 
BRANCH  30  31
ATOM     31  C   UNL     1       1.632  -7.556  -1.681  0.00  0.00    -0.016 C 
ATOM     32  C   UNL     1       2.164  -7.770  -0.504  0.00  0.00    +0.005 C 
ENDBRANCH  30  31
ENDBRANCH   5  30
TORSDOF 8
