REMARK  Name = ZINC39674517
REMARK  8 active torsions:
REMARK  status: ('A' for Active; 'I' for Inactive)
REMARK    1  A    between atoms: C_1  and  C_2
REMARK    2  A    between atoms: C_4  and  C_9
REMARK    3  A    between atoms: C_5  and  C_8
REMARK    4  A    between atoms: C_9  and  C_11
REMARK    5  A    between atoms: C_9  and  N_12
REMARK    6  A    between atoms: C_13  and  C_15
REMARK    7  A    between atoms: C_26  and  C_28
REMARK    8  A    between atoms: C_31  and  C_33
REMARK                            x       y       z     vdW  Elec       q    Type
REMARK                         _______ _______ _______ _____ _____    ______ ____
ROOT
ATOM      1  C   UNL     1       0.305   3.075  -4.237  0.00  0.00    +0.100 C 
ATOM      2  C   UNL     1      -1.101   3.591  -3.859  0.00  0.00    +0.121 C 
ATOM      3  N   UNL     1      -1.470   4.511  -4.960  0.00  0.00    -0.294 N 
ATOM      4  C   UNL     1      -0.965   3.844  -6.183  0.00  0.00    +0.115 C 
ATOM      5  C   UNL     1       0.391   3.242  -5.763  0.00  0.00    -0.004 C 
ATOM      6  C   UNL     1       0.595   1.886  -6.432  0.00  0.00    -0.010 C 
ATOM      7  C   UNL     1       0.736   2.084  -7.944  0.00  0.00    -0.082 C 
ATOM      8  N   UNL     1       1.876   2.966  -8.220  0.00  0.00    +0.379 N 
ATOM      9  C   UNL     1       1.630   4.296  -7.652  0.00  0.00    -0.082 C 
ATOM     10  C   UNL     1       1.527   4.192  -6.128  0.00  0.00    -0.010 C 
ATOM     11  C   UNL     1      -2.118   5.690  -4.869  0.00  0.00    +0.282 C 
ATOM     12  O   UNL     1      -2.350   6.335  -5.875  0.00  0.00    -0.267 OA
ATOM     13  H   UNL     1       2.710   2.574  -7.808  0.00  0.00    -0.086 HD
ATOM     14  H   UNL     1       2.004   3.046  -9.218  0.00  0.00    -0.086 HD
ENDROOT
BRANCH  11  15
ATOM     15  C   UNL     1      -2.544   6.193  -3.561  0.00  0.00    +0.190 A 
ATOM     16  C   UNL     1      -3.216   7.373  -3.327  0.00  0.00    +0.055 A 
ATOM     17  C   UNL     1      -3.419   7.455  -1.946  0.00  0.00    +0.050 A 
ATOM     18  C   UNL     1      -2.870   6.335  -1.392  0.00  0.00    +0.136 A 
ATOM     19  O   UNL     1      -2.351   5.579  -2.374  0.00  0.00    -0.450 OA
BRANCH  18  20
ATOM     20  C   UNL     1      -2.854   6.005   0.048  0.00  0.00    +0.017 A 
ATOM     21  C   UNL     1      -3.441   6.872   0.972  0.00  0.00    +0.011 A 
ATOM     22  C   UNL     1      -3.423   6.557   2.315  0.00  0.00    +0.001 A 
ATOM     23  C   UNL     1      -2.825   5.386   2.747  0.00  0.00    +0.000 A 
ATOM     24  C   UNL     1      -2.242   4.523   1.836  0.00  0.00    +0.001 A 
ATOM     25  C   UNL     1      -2.258   4.822   0.490  0.00  0.00    +0.011 A 
ENDBRANCH  18  20
ENDBRANCH  11  15
BRANCH   1  27
ATOM     26  N   UNL     1       1.667   1.121  -3.567  0.00  0.00    -0.309 N 
ATOM     27  C   UNL     1       0.451   1.623  -3.859  0.00  0.00    +0.219 C 
ATOM     28  O   UNL     1      -0.527   0.907  -3.817  0.00  0.00    -0.275 OA
ATOM     29  H   UNL     1       2.449   1.694  -3.601  0.00  0.00    +0.149 HD
BRANCH  26  30
ATOM     30  C   UNL     1       1.808  -0.290  -3.200  0.00  0.00    +0.100 C 
ATOM     31  C   UNL     1       1.614  -0.446  -1.690  0.00  0.00    +0.033 C 
BRANCH  30  34
ATOM     32  C   UNL     1       4.682   1.236  -3.625  0.00  0.00    +0.039 C 
ATOM     33  C   UNL     1       4.526  -0.210  -3.152  0.00  0.00    +0.154 C 
ATOM     34  C   UNL     1       3.183  -0.774  -3.582  0.00  0.00    -0.001 C 
ATOM     35  C   UNL     1       3.503  -1.798  -4.377  0.00  0.00    +0.063 C 
ATOM     36  N   UNL     1       4.845  -1.923  -4.480  0.00  0.00    -0.159 NA
ATOM     37  N   UNL     1       5.492  -1.089  -3.834  0.00  0.00    -0.180 NA
ATOM     38  C   UNL     1       2.505  -2.692  -5.064  0.00  0.00    +0.067 C 
ENDBRANCH  30  34
ENDBRANCH  26  30
ENDBRANCH   1  27
TORSDOF 5
