REMARK  Name = ZINC16020257
REMARK  3 active torsions:
REMARK  status: ('A' for Active; 'I' for Inactive)
REMARK    1  A    between atoms: C_7  and  C_11
REMARK    2  A    between atoms: C_11  and  C_12
REMARK    3  A    between atoms: N_20  and  C_23
REMARK                            x       y       z     vdW  Elec       q    Type
REMARK                         _______ _______ _______ _____ _____    ______ ____
ROOT
ATOM      1  C   UNL     1       0.236  -3.589  -1.455  0.00  0.00    +0.072 C 
ATOM      2  C   UNL     1      -0.792  -4.740  -1.468  0.00  0.00    +0.107 C 
ATOM      3  C   UNL     1      -0.445  -5.569  -2.736  0.00  0.00    +0.122 C 
ATOM      4  C   UNL     1      -1.653  -5.372  -3.623  0.00  0.00    +0.228 C 
ATOM      5  O   UNL     1      -1.795  -5.849  -4.729  0.00  0.00    -0.275 OA
ATOM      6  N   UNL     1      -2.540  -4.589  -2.999  0.00  0.00    -0.238 N 
ATOM      7  C   UNL     1      -2.163  -4.176  -1.766  0.00  0.00    +0.227 C 
ATOM      8  O   UNL     1      -2.808  -3.471  -1.021  0.00  0.00    -0.275 OA
ATOM      9  C   UNL     1       0.778  -4.867  -3.336  0.00  0.00    +0.136 C 
ATOM     10  N   UNL     1       1.391  -4.098  -2.242  0.00  0.00    -0.295 NA
ATOM     11  C   UNL     1       1.739  -5.852  -3.939  0.00  0.00    +0.006 A 
ATOM     12  C   UNL     1       2.438  -6.925  -3.434  0.00  0.00    +0.046 A 
ATOM     13  C   UNL     1       3.269  -7.663  -4.262  0.00  0.00    +0.124 A 
ATOM     14  C   UNL     1       3.393  -7.317  -5.597  0.00  0.00    +0.040 A 
ATOM     15  C   UNL     1       2.693  -6.243  -6.106  0.00  0.00    +0.026 A 
ATOM     16  C   UNL     1       1.855  -5.497  -5.280  0.00  0.00    +0.039 A 
ATOM     17  N   UNL     1       1.055  -4.385  -5.556  0.00  0.00    -0.283 N 
ATOM     18  C   UNL     1       0.390  -3.955  -4.466  0.00  0.00    +0.243 C 
ATOM     19  O   UNL     1      -0.374  -3.014  -4.409  0.00  0.00    -0.273 OA
ATOM     20  F   UNL     1       3.957  -8.715  -3.768  0.00  0.00    -0.205 F 
ATOM     21  H   UNL     1       1.950  -3.337  -2.597  0.00  0.00    +0.124 HD
ATOM     22  H   UNL     1       0.987  -3.970  -6.431  0.00  0.00    +0.155 HD
ENDROOT
BRANCH   6  23
ATOM     23  C   UNL     1      -3.823  -4.211  -3.598  0.00  0.00    +0.084 C 
ATOM     24  C   UNL     1      -4.966  -4.706  -2.710  0.00  0.00    +0.023 C 
ATOM     25  C   UNL     1      -6.305  -4.312  -3.336  0.00  0.00    +0.002 C 
ATOM     26  C   UNL     1      -6.380  -2.789  -3.462  0.00  0.00    +0.000 C 
ATOM     27  C   UNL     1      -5.237  -2.294  -4.350  0.00  0.00    +0.002 C 
ATOM     28  C   UNL     1      -3.898  -2.688  -3.724  0.00  0.00    +0.023 C 
ENDBRANCH   6  23
BRANCH   1  29
ATOM     29  C   UNL     1       0.666  -3.275  -0.021  0.00  0.00    +0.056 C 
BRANCH  29  36
ATOM     30  C   UNL     1      -0.017   1.362   0.009  0.00  0.00    +0.001 A 
ATOM     31  C   UNL     1       1.170   2.083   0.002  0.00  0.00    +0.002 A 
ATOM     32  C   UNL     1       2.386   1.436  -0.013  0.00  0.00    +0.026 A 
ATOM     33  C   UNL     1       2.428   0.046  -0.021  0.00  0.00    +0.047 A 
ATOM     34  C   UNL     1       1.223  -0.681  -0.013  0.00  0.00    +0.003 A 
ATOM     35  C   UNL     1       0.002  -0.004   0.002  0.00  0.00    +0.010 A 
ATOM     36  C   UNL     1       1.604  -2.095  -0.025  0.00  0.00    -0.021 A 
ATOM     37  C   UNL     1       2.945  -2.141  -0.038  0.00  0.00    +0.087 A 
ATOM     38  N   UNL     1       3.455  -0.871  -0.036  0.00  0.00    -0.360 N 
ATOM     39  H   UNL     1       4.399  -0.650  -0.044  0.00  0.00    +0.165 HD
ENDBRANCH  29  36
ENDBRANCH   1  29
TORSDOF 3
