REMARK  Name = ZINC63941346
REMARK  8 active torsions:
REMARK  status: ('A' for Active; 'I' for Inactive)
REMARK    1  A    between atoms: C_1  and  C_2
REMARK    2  A    between atoms: C_2  and  C_3
REMARK    3  A    between atoms: C_5  and  C_32
REMARK    4  A    between atoms: C_7  and  N_10
REMARK    5  A    between atoms: C_11  and  C_13
REMARK    6  A    between atoms: N_18  and  C_20
REMARK    7  A    between atoms: C_20  and  C_21
REMARK    8  A    between atoms: C_21  and  C_22
REMARK                            x       y       z     vdW  Elec       q    Type
REMARK                         _______ _______ _______ _____ _____    ______ ____
ROOT
ATOM      1  C   UNL     1      -2.806  -3.259  -5.438  0.00  0.00    +0.101 C 
ATOM      2  C   UNL     1      -3.483  -2.177  -6.311  0.00  0.00    +0.110 C 
ATOM      3  C   UNL     1      -3.926  -2.922  -7.550  0.00  0.00    +0.216 C 
ATOM      4  O   UNL     1      -4.245  -2.401  -8.598  0.00  0.00    -0.276 OA
ATOM      5  N   UNL     1      -3.914  -4.247  -7.322  0.00  0.00    -0.300 N 
ATOM      6  C   UNL     1      -3.487  -4.548  -5.950  0.00  0.00    +0.121 C 
ENDROOT
BRANCH   1   8
ATOM      7  N   UNL     1      -2.647  -1.928  -3.359  0.00  0.00    -0.285 N 
ATOM      8  C   UNL     1      -3.101  -3.037  -3.977  0.00  0.00    +0.220 C 
ATOM      9  O   UNL     1      -3.748  -3.855  -3.358  0.00  0.00    -0.275 OA
ATOM     10  H   UNL     1      -2.130  -1.274  -3.855  0.00  0.00    +0.152 HD
BRANCH   7  14
ATOM     11  C   UNL     1      -1.643  -0.567   0.191  0.00  0.00    +0.099 C 
ATOM     12  C   UNL     1      -1.463  -2.052  -0.093  0.00  0.00    +0.059 C 
ATOM     13  N   UNL     1      -2.072  -2.556  -1.087  0.00  0.00    -0.254 NA
ATOM     14  C   UNL     1      -2.934  -1.712  -1.939  0.00  0.00    +0.252 C 
ATOM     15  S   UNL     1      -2.408  -0.025  -1.400  0.00  0.00    -0.106 S 
BRANCH  12  16
ATOM     16  C   UNL     1      -0.600  -2.886   0.767  0.00  0.00    -0.003 A 
ATOM     17  C   UNL     1      -0.328  -2.493   2.079  0.00  0.00    +0.010 A 
ATOM     18  C   UNL     1       0.479  -3.277   2.877  0.00  0.00    +0.001 A 
ATOM     19  C   UNL     1       1.019  -4.450   2.379  0.00  0.00    +0.000 A 
ATOM     20  C   UNL     1       0.754  -4.845   1.080  0.00  0.00    +0.001 A 
ATOM     21  C   UNL     1      -0.057  -4.074   0.273  0.00  0.00    +0.010 A 
ENDBRANCH  12  16
BRANCH  11  23
ATOM     22  C   UNL     1      -0.518   1.624   0.607  0.00  0.00    +0.005 C 
ATOM     23  C   UNL     1      -0.297   0.121   0.424  0.00  0.00    +0.017 C 
ENDBRANCH  11  23
ENDBRANCH   7  14
ENDBRANCH   1   8
BRANCH   5  24
ATOM     24  C   UNL     1      -4.279  -5.260  -8.315  0.00  0.00    +0.112 C 
BRANCH  24  25
ATOM     25  C   UNL     1      -3.034  -5.677  -9.100  0.00  0.00    +0.052 C 
BRANCH  25  26
ATOM     26  C   UNL     1      -3.409  -6.719 -10.121  0.00  0.00    -0.040 C 
ATOM     27  C   UNL     1      -3.711  -6.511 -11.423  0.00  0.00    +0.002 A 
ATOM     28  C   UNL     1      -3.779  -5.296 -12.245  0.00  0.00    +0.048 A 
ATOM     29  C   UNL     1      -4.119  -5.406 -13.551  0.00  0.00    +0.124 A 
ATOM     30  C   UNL     1      -4.408  -6.649 -14.136  0.00  0.00    +0.040 A 
ATOM     31  C   UNL     1      -4.367  -7.807 -13.444  0.00  0.00    +0.029 A 
ATOM     32  C   UNL     1      -4.021  -7.809 -12.064  0.00  0.00    +0.043 A 
ATOM     33  N   UNL     1      -3.914  -8.782 -11.193  0.00  0.00    -0.380 N 
ATOM     34  C   UNL     1      -3.518  -8.211  -9.900  0.00  0.00    +0.144 C 
ATOM     35  F   UNL     1      -4.183  -4.291 -14.311  0.00  0.00    -0.205 F 
ATOM     36  H   UNL     1      -4.068  -9.723 -11.373  0.00  0.00    +0.160 HD
ENDBRANCH  25  26
ENDBRANCH  24  25
ENDBRANCH   5  24
TORSDOF 7
