REMARK  Name = ZINC11635155
REMARK  2 active torsions:
REMARK  status: ('A' for Active; 'I' for Inactive)
REMARK    1  A    between atoms: C_4  and  S_8
REMARK    2  A    between atoms: S_8  and  N_11
REMARK                            x       y       z     vdW  Elec       q    Type
REMARK                         _______ _______ _______ _____ _____    ______ ____
ROOT
ATOM      1  S   UNL     1       2.671   4.069  -0.002  0.00  0.00    +0.075 S 
ATOM      2  O   UNL     1       3.554   3.510  -0.965  0.00  0.00    -0.150 OA
ATOM      3  O   UNL     1       2.249   5.425  -0.051  0.00  0.00    -0.150 OA
ENDROOT
BRANCH   1   7
ATOM      4  C   UNL     1      -1.085   1.541  -0.078  0.00  0.00    +0.016 A 
ATOM      5  C   UNL     1       0.153   0.935   0.026  0.00  0.00    +0.018 A 
ATOM      6  C   UNL     1       1.301   1.707   0.047  0.00  0.00    +0.045 A 
ATOM      7  C   UNL     1       1.209   3.085  -0.030  0.00  0.00    +0.123 A 
ATOM      8  C   UNL     1      -0.029   3.691  -0.128  0.00  0.00    +0.045 A 
ATOM      9  C   UNL     1      -1.177   2.919  -0.150  0.00  0.00    +0.020 A 
ATOM     10 BR   UNL     1      -2.872   3.748  -0.285  0.00  0.00    -0.050 Br
ATOM     11 BR   UNL     1       2.995   0.878   0.183  0.00  0.00    -0.048 Br
ENDBRANCH   1   7
BRANCH   1  12
ATOM     12  N   UNL     1       3.382   3.847   1.477  0.00  0.00    -0.194 N 
ATOM     13  C   UNL     1       2.723   4.245   2.630  0.00  0.00    +0.177 A 
ATOM     14  N   UNL     1       1.506   4.736   2.761  0.00  0.00    -0.232 NA
ATOM     15  C   UNL     1       1.026   5.064   3.946  0.00  0.00    +0.120 A 
ATOM     16  C   UNL     1       1.817   4.896   5.032  0.00  0.00    +0.068 A 
ATOM     17  S   UNL     1       3.292   4.234   4.270  0.00  0.00    -0.059 S 
ATOM     18  H   UNL     1       4.260   3.438   1.536  0.00  0.00    +0.176 HD
ENDBRANCH   1  12
TORSDOF 2
