REMARK  Name = ZINC14647563
REMARK  7 active torsions:
REMARK  status: ('A' for Active; 'I' for Inactive)
REMARK    1  A    between atoms: C_1  and  C_2
REMARK    2  A    between atoms: C_3  and  O_25
REMARK    3  A    between atoms: C_7  and  O_8
REMARK    4  A    between atoms: C_11  and  O_24
REMARK    5  A    between atoms: C_13  and  C_16
REMARK    6  A    between atoms: C_19  and  O_23
REMARK    7  A    between atoms: C_20  and  O_22
REMARK                            x       y       z     vdW  Elec       q    Type
REMARK                         _______ _______ _______ _____ _____    ______ ____
ROOT
ATOM      1  C   UNL     1      -0.233   2.019   6.240  0.00  0.00    +0.051 C 
ATOM      2  C   UNL     1       0.378   1.798   4.880  0.00  0.00    +0.033 A 
ATOM      3  C   UNL     1       1.748   1.603   4.759  0.00  0.00    +0.127 A 
ATOM      4  C   UNL     1       2.327   1.396   3.513  0.00  0.00    +0.092 A 
ATOM      5  C   UNL     1       1.541   1.382   2.374  0.00  0.00    +0.139 A 
ATOM      6  C   UNL     1       0.154   1.585   2.493  0.00  0.00    +0.104 A 
ATOM      7  C   UNL     1      -0.426   1.789   3.755  0.00  0.00    +0.137 A 
ATOM      8  C   UNL     1      -0.672   1.587   1.280  0.00  0.00    +0.202 C 
ATOM      9  O   UNL     1      -1.824   1.970   1.294  0.00  0.00    -0.289 OA
ATOM     10  C   UNL     1      -0.013   1.086   0.008  0.00  0.00    +0.230 C 
ATOM     11  C   UNL     1       1.424   1.628  -0.003  0.00  0.00    +0.240 C 
ATOM     12  O   UNL     1       2.110   1.173   1.163  0.00  0.00    -0.480 OA
ENDROOT
BRANCH  11  13
ATOM     13  C   UNL     1       2.140   1.133  -1.233  0.00  0.00    -0.001 A 
ATOM     14  C   UNL     1       2.659  -0.148  -1.259  0.00  0.00    +0.011 A 
ATOM     15  C   UNL     1       3.316  -0.608  -2.385  0.00  0.00    +0.049 A 
ATOM     16  C   UNL     1       3.455   0.215  -3.491  0.00  0.00    +0.158 A 
ATOM     17  C   UNL     1       2.932   1.505  -3.465  0.00  0.00    +0.159 A 
ATOM     18  C   UNL     1       2.270   1.957  -2.334  0.00  0.00    +0.056 A 
BRANCH  17  19
ATOM     19  O   UNL     1       3.065   2.317  -4.547  0.00  0.00    -0.503 OA
ATOM     20  H   UNL     1       2.339   2.248  -5.182  0.00  0.00    +0.292 HD
ENDBRANCH  17  19
BRANCH  16  21
ATOM     21  O   UNL     1       4.101  -0.235  -4.600  0.00  0.00    -0.503 OA
ATOM     22  H   UNL     1       3.523  -0.669  -5.242  0.00  0.00    +0.292 HD
ENDBRANCH  16  21
ENDBRANCH  11  13
BRANCH   7  23
ATOM     23  O   UNL     1      -1.764   1.975   3.870  0.00  0.00    -0.506 OA
ATOM     24  H   UNL     1      -2.039   2.901   3.815  0.00  0.00    +0.292 HD
ENDBRANCH   7  23
BRANCH  10  25
ATOM     25  O   UNL     1      -0.724   1.569  -1.133  0.00  0.00    -0.380 OA
ATOM     26  H   UNL     1      -1.644   1.275  -1.177  0.00  0.00    +0.211 HD
ENDBRANCH  10  25
BRANCH   3  27
ATOM     27  O   UNL     1       2.530   1.617   5.868  0.00  0.00    -0.506 OA
ATOM     28  H   UNL     1       2.871   2.492   6.098  0.00  0.00    +0.292 HD
ENDBRANCH   3  27
TORSDOF 6
