REMARK  Name = ZINC12711711
REMARK  8 active torsions:
REMARK  status: ('A' for Active; 'I' for Inactive)
REMARK    1  A    between atoms: C_1  and  C_2
REMARK    2  A    between atoms: C_2  and  N_61
REMARK    3  A    between atoms: C_6  and  C_8
REMARK    4  A    between atoms: C_8  and  N_9
REMARK    5  A    between atoms: N_9  and  C_10
REMARK    6  A    between atoms: C_10  and  C_11
REMARK    7  A    between atoms: C_15  and  C_23
REMARK    8  A    between atoms: N_26  and  C_27
REMARK                            x       y       z     vdW  Elec       q    Type
REMARK                         _______ _______ _______ _____ _____    ______ ____
ROOT
ATOM      1  N   UNL     1      -3.633  -0.699   0.175  0.00  0.00    -0.282 N 
ATOM      2  C   UNL     1      -2.452  -0.051   0.221  0.00  0.00    +0.307 C 
ATOM      3  O   UNL     1      -2.426   1.164   0.244  0.00  0.00    -0.252 OA
ATOM      4  N   UNL     1      -1.300  -0.751   0.241  0.00  0.00    -0.268 N 
ATOM      5  H   UNL     1      -1.316  -1.715   0.133  0.00  0.00    +0.156 HD
ENDROOT
BRANCH   4   6
ATOM      6  C   UNL     1      -0.081  -0.086   0.419  0.00  0.00    +0.053 A 
ATOM      7  C   UNL     1      -0.048   1.149   1.050  0.00  0.00    +0.025 A 
ATOM      8  C   UNL     1       1.157   1.803   1.224  0.00  0.00    +0.002 A 
ATOM      9  C   UNL     1       2.329   1.227   0.769  0.00  0.00    +0.002 A 
ATOM     10  C   UNL     1       2.300  -0.003   0.139  0.00  0.00    +0.022 A 
ATOM     11  C   UNL     1       1.099  -0.662  -0.038  0.00  0.00    +0.062 A 
ATOM     12 CL   UNL     1       1.062  -2.208  -0.828  0.00  0.00    -0.082 Cl
ENDBRANCH   4   6
BRANCH   1  13
ATOM     13  C   UNL     1      -3.665  -2.163   0.147  0.00  0.00    +0.094 C 
BRANCH  13  17
ATOM     14  C   UNL     1      -4.683  -3.161   3.556  0.00  0.00    -0.078 C 
ATOM     15  C   UNL     1      -4.465  -4.538   2.892  0.00  0.00    -0.020 C 
ATOM     16  C   UNL     1      -3.701  -4.237   1.587  0.00  0.00    -0.016 C 
ATOM     17  C   UNL     1      -3.521  -2.704   1.571  0.00  0.00    -0.051 C 
ATOM     18  N   UNL     1      -4.602  -2.222   2.438  0.00  0.00    +0.382 N 
ATOM     19  H   UNL     1      -5.490  -2.215   1.922  0.00  0.00    -0.081 HD
BRANCH  18  21
ATOM     20  C   UNL     1      -5.542  -0.245   3.603  0.00  0.00    -0.017 C 
ATOM     21  C   UNL     1      -4.305  -0.837   2.925  0.00  0.00    -0.082 C 
ENDBRANCH  18  21
ENDBRANCH  13  17
ENDBRANCH   1  13
BRANCH   1  22
ATOM     22  C   UNL     1      -4.885   0.061   0.153  0.00  0.00    +0.149 C 
BRANCH  22  23
ATOM     23  C   UNL     1      -5.274   0.348  -1.275  0.00  0.00    +0.035 A 
ATOM     24  C   UNL     1      -6.139  -0.475  -1.917  0.00  0.00    +0.020 A 
ATOM     25  C   UNL     1      -6.496  -0.168  -3.304  0.00  0.00    -0.001 A 
ATOM     26  C   UNL     1      -7.383  -0.980  -4.019  0.00  0.00    +0.013 A 
ATOM     27  C   UNL     1      -7.697  -0.666  -5.311  0.00  0.00    -0.050 A 
ATOM     28  C   UNL     1      -7.142   0.450  -5.921  0.00  0.00    +0.005 A 
ATOM     29  C   UNL     1      -6.265   1.264  -5.237  0.00  0.00    +0.026 A 
ATOM     30  C   UNL     1      -5.932   0.965  -3.919  0.00  0.00    +0.049 A 
ATOM     31  N   UNL     1      -5.059   1.762  -3.210  0.00  0.00    -0.322 N 
ATOM     32  H   UNL     1      -4.671   2.542  -3.636  0.00  0.00    +0.169 HD
ATOM     33  C   UNL     1      -4.741   1.475  -1.936  0.00  0.00    +0.254 A 
ATOM     34  O   UNL     1      -3.969   2.205  -1.338  0.00  0.00    -0.268 OA
ATOM     35  C   UNL     1      -8.653  -1.541  -6.080  0.00  0.00    +0.044 C 
ENDBRANCH  22  23
ENDBRANCH   1  22
TORSDOF 6
