REMARK  Name = ZINC08914497
REMARK  13 active torsions:
REMARK  status: ('A' for Active; 'I' for Inactive)
REMARK    1  A    between atoms: C_1  and  C_2
REMARK    2  A    between atoms: C_13  and  C_14
REMARK    3  A    between atoms: C_13  and  O_15
REMARK    4  A    between atoms: N_21  and  O_22
REMARK    5  A    between atoms: O_22  and  C_23
REMARK    6  A    between atoms: C_23  and  C_24
REMARK    7  A    between atoms: N_26  and  C_27
REMARK    8  A    between atoms: C_27  and  C_29
REMARK    9  A    between atoms: C_27  and  C_36
REMARK   10  A    between atoms: C_29  and  C_30
REMARK   11  A    between atoms: C_36  and  O_38
REMARK   12  A    between atoms: O_38  and  C_39
REMARK   13  A    between atoms: C_42  and  C_43
REMARK                            x       y       z     vdW  Elec       q    Type
REMARK                         _______ _______ _______ _____ _____    ______ ____
ROOT
ATOM      1  C   UNL     1       1.635  -0.287   1.942  0.00  0.00    +0.014 C 
ATOM      2  C   UNL     1       1.339  -0.606   0.472  0.00  0.00    -0.000 C 
ATOM      3  C   UNL     1       2.583  -0.462  -0.367  0.00  0.00    +0.010 C 
ATOM      4  C   UNL     1       2.674   0.945  -0.983  0.00  0.00    +0.005 C 
ATOM      5  C   UNL     1       1.966   1.954  -0.093  0.00  0.00    +0.006 C 
ATOM      6  C   UNL     1       0.456   1.700  -0.131  0.00  0.00    -0.003 C 
ATOM      7  C   UNL     1       0.172   0.231  -0.083  0.00  0.00    +0.001 C 
ATOM      8  C   UNL     1      -1.006  -0.243   0.778  0.00  0.00    +0.007 C 
ATOM      9  C   UNL     1      -0.765  -1.776   0.869  0.00  0.00    +0.035 C 
ATOM     10  C   UNL     1       0.709  -2.015   0.458  0.00  0.00    +0.069 C 
ATOM     11  C   UNL     1       1.413  -2.909   1.476  0.00  0.00    +0.042 C 
ATOM     12  C   UNL     1      -0.248   2.534   0.931  0.00  0.00    +0.008 C 
ATOM     13  C   UNL     1      -0.042   4.023   0.584  0.00  0.00    +0.032 C 
ATOM     14  C   UNL     1       1.456   4.264   0.498  0.00  0.00    -0.058 C 
ATOM     15  C   UNL     1       1.991   5.204   1.258  0.00  0.00    +0.031 C 
ATOM     16  C   UNL     1       3.448   5.454   1.225  0.00  0.00    +0.102 C 
ATOM     17  N   UNL     1       3.988   6.369   1.986  0.00  0.00    -0.085 NA
ATOM     18  C   UNL     1       4.280   4.642   0.310  0.00  0.00    +0.027 C 
ATOM     19  C   UNL     1       3.714   3.718  -0.445  0.00  0.00    -0.014 C 
ATOM     20  C   UNL     1       2.259   3.405  -0.439  0.00  0.00    +0.011 C 
ATOM     21  C   UNL     1       1.770   3.687  -1.857  0.00  0.00    +0.020 C 
ENDROOT
BRANCH  10  22
ATOM     22  O   UNL     1       0.779  -2.576  -0.850  0.00  0.00    -0.388 OA
ATOM     23  H   UNL     1       0.346  -3.437  -0.932  0.00  0.00    +0.210 HD
ENDBRANCH  10  22
BRANCH  17  24
ATOM     24  O   UNL     1       3.176   7.136   2.856  0.00  0.00    -0.384 OA
BRANCH  24  25
ATOM     25  C   UNL     1       3.898   8.097   3.629  0.00  0.00    +0.358 C 
BRANCH  25  26
ATOM     26  C   UNL     1       2.940   8.853   4.513  0.00  0.00    +0.254 C 
ATOM     27  O   UNL     1       1.756   8.593   4.485  0.00  0.00    -0.272 OA
ATOM     28  N   UNL     1       3.399   9.816   5.336  0.00  0.00    -0.299 N 
ATOM     29  H   UNL     1       4.347  10.024   5.358  0.00  0.00    +0.150 HD
BRANCH  28  30
ATOM     30  C   UNL     1       2.468  10.551   6.196  0.00  0.00    +0.188 C 
BRANCH  30  31
ATOM     31  C   UNL     1       1.869  11.697   5.423  0.00  0.00    +0.328 C 
ATOM     32  O   UNL     1       2.187  11.882   4.272  0.00  0.00    -0.249 OA
BRANCH  31  33
ATOM     33  O   UNL     1       0.981  12.513   6.014  0.00  0.00    -0.467 OA
ATOM     34  C   UNL     1       0.445  13.597   5.209  0.00  0.00    +0.280 C 
ENDBRANCH  31  33
ENDBRANCH  30  31
BRANCH  30  35
ATOM     35  C   UNL     1       3.219  11.093   7.414  0.00  0.00    +0.088 C 
BRANCH  35  36
ATOM     36  C   UNL     1       3.713   9.943   8.252  0.00  0.00    +0.038 A 
ATOM     37  C   UNL     1       4.859   9.257   8.078  0.00  0.00    +0.133 A 
ATOM     38  N   UNL     1       4.928   8.316   9.031  0.00  0.00    -0.244 NA
ATOM     39  C   UNL     1       3.869   8.394   9.790  0.00  0.00    +0.196 A 
ATOM     40  N   UNL     1       3.088   9.399   9.342  0.00  0.00    -0.348 N 
ATOM     41  H   UNL     1       2.215   9.692   9.733  0.00  0.00    +0.166 HD
ENDBRANCH  35  36
ENDBRANCH  30  35
ENDBRANCH  28  30
ENDBRANCH  25  26
ENDBRANCH  24  25
ENDBRANCH  17  24
TORSDOF 9
