REMARK  Name = ZINC03272810
REMARK  7 active torsions:
REMARK  status: ('A' for Active; 'I' for Inactive)
REMARK    1  A    between atoms: C_2  and  C_3
REMARK    2  A    between atoms: C_2  and  N_9
REMARK    3  A    between atoms: N_9  and  N_10
REMARK    4  A    between atoms: C_11  and  C_23
REMARK    5  A    between atoms: N_15  and  C_16
REMARK    6  A    between atoms: C_16  and  C_17
REMARK    7  A    between atoms: C_26  and  C_29
REMARK                            x       y       z     vdW  Elec       q    Type
REMARK                         _______ _______ _______ _____ _____    ______ ____
ROOT
ATOM      1  N   UNL     1       2.591   5.679  -0.377  0.00  0.00    -0.237 N 
ATOM      2  C   UNL     1       2.826   4.343  -0.572  0.00  0.00    +0.078 A 
ATOM      3  C   UNL     1       4.095   3.887  -0.597  0.00  0.00    +0.077 A 
ATOM      4  S   UNL     1       5.038   5.379  -0.331  0.00  0.00    -0.056 S 
ATOM      5  C   UNL     1       3.669   6.519  -0.202  0.00  0.00    +0.187 A 
ATOM      6  N   UNL     1       3.686   7.813  -0.000  0.00  0.00    -0.255 NA
ENDROOT
BRANCH   2   7
ATOM      7  C   UNL     1       1.697   3.409  -0.758  0.00  0.00    +0.001 A 
ATOM      8  C   UNL     1       0.465   3.673  -0.154  0.00  0.00    +0.010 A 
ATOM      9  C   UNL     1      -0.587   2.802  -0.328  0.00  0.00    +0.009 A 
ATOM     10  C   UNL     1      -0.421   1.653  -1.101  0.00  0.00    -0.018 A 
ATOM     11  C   UNL     1       0.807   1.391  -1.709  0.00  0.00    +0.009 A 
ATOM     12  C   UNL     1       1.860   2.261  -1.537  0.00  0.00    +0.010 A 
BRANCH  10  13
ATOM     13  C   UNL     1      -1.552   0.712  -1.283  0.00  0.00    -0.018 A 
ATOM     14  C   UNL     1      -2.781   0.970  -0.677  0.00  0.00    +0.008 A 
ATOM     15  C   UNL     1      -3.832   0.094  -0.854  0.00  0.00    +0.001 A 
ATOM     16  C   UNL     1      -3.665  -1.045  -1.621  0.00  0.00    +0.000 A 
ATOM     17  C   UNL     1      -2.447  -1.310  -2.220  0.00  0.00    +0.001 A 
ATOM     18  C   UNL     1      -1.390  -0.438  -2.055  0.00  0.00    +0.008 A 
ENDBRANCH  10  13
ENDBRANCH   2   7
BRANCH   1  19
ATOM     19  N   UNL     1       1.282   6.179  -0.352  0.00  0.00    -0.251 N 
ATOM     20  H   UNL     1       0.573   5.905  -1.147  0.00  0.00    +0.173 HD
BRANCH  19  22
ATOM     21  C   UNL     1       1.694   7.257   1.711  0.00  0.00    +0.035 C 
ATOM     22  C   UNL     1       0.878   7.025   0.682  0.00  0.00    +0.047 C 
BRANCH  22  23
ATOM     23  C   UNL     1      -0.457   7.665   0.637  0.00  0.00    -0.000 A 
ATOM     24  C   UNL     1      -1.326   7.439  -0.436  0.00  0.00    +0.027 A 
ATOM     25  C   UNL     1      -2.562   8.051  -0.435  0.00  0.00    +0.083 A 
ATOM     26  N   UNL     1      -2.924   8.847   0.553  0.00  0.00    -0.367 N 
ATOM     27  C   UNL     1      -2.132   9.091   1.580  0.00  0.00    +0.083 A 
ATOM     28  C   UNL     1      -0.881   8.516   1.663  0.00  0.00    +0.027 A 
ATOM     29  H   UNL     1      -3.911   9.331   0.536  0.00  0.00    +0.165 HD
ENDBRANCH  22  23
ENDBRANCH  19  22
ENDBRANCH   1  19
BRANCH   6  30
ATOM     30  C   UNL     1       4.961   8.533   0.031  0.00  0.00    +0.179 C 
BRANCH  30  31
ATOM     31  C   UNL     1       4.974   9.579  -1.054  0.00  0.00    -0.026 A 
ATOM     32  C   UNL     1       5.452   9.264  -2.312  0.00  0.00    +0.005 A 
ATOM     33  C   UNL     1       5.460  10.223  -3.308  0.00  0.00    +0.000 A 
ATOM     34  C   UNL     1       4.997  11.498  -3.044  0.00  0.00    +0.000 A 
ATOM     35  C   UNL     1       4.524  11.814  -1.784  0.00  0.00    +0.000 A 
ATOM     36  C   UNL     1       4.511  10.855  -0.789  0.00  0.00    +0.005 A 
ENDBRANCH  30  31
ENDBRANCH   6  30
TORSDOF 7
