REMARK  Name = ZINC39675161
REMARK  10 active torsions:
REMARK  status: ('A' for Active; 'I' for Inactive)
REMARK    1  A    between atoms: C_1  and  C_2
REMARK    2  A    between atoms: C_7  and  C_8
REMARK    3  A    between atoms: C_12  and  C_21
REMARK    4  A    between atoms: N_23  and  C_24
REMARK    5  A    between atoms: C_24  and  C_26
REMARK    6  A    between atoms: C_24  and  C_27
REMARK    7  A    between atoms: C_27  and  C_28
REMARK    8  A    between atoms: C_28  and  C_29
REMARK    9  A    between atoms: C_32  and  O_35
REMARK   10  A    between atoms: O_35  and  C_36
REMARK                            x       y       z     vdW  Elec       q    Type
REMARK                         _______ _______ _______ _____ _____    ______ ____
ROOT
ATOM      1  C   UNL     1       0.103  -0.265   2.486  0.00  0.00    +0.247 C 
ATOM      2  O   UNL     1      -0.040   0.941   2.536  0.00  0.00    -0.270 OA
ATOM      3  N   UNL     1       0.313  -0.967   3.617  0.00  0.00    -0.296 N 
ATOM      4  C   UNL     1       0.620  -2.411   3.746  0.00  0.00    +0.121 C 
ATOM      5  C   UNL     1       1.669  -2.487   4.878  0.00  0.00    +0.100 C 
ATOM      6  C   UNL     1       1.447  -1.211   5.706  0.00  0.00    -0.004 C 
ATOM      7  C   UNL     1       0.297  -0.467   5.013  0.00  0.00    +0.115 C 
ATOM      8  C   UNL     1       2.706  -0.349   5.698  0.00  0.00    -0.010 C 
ATOM      9  C   UNL     1       2.479   0.885   6.574  0.00  0.00    -0.082 C 
ATOM     10  N   UNL     1       2.160   0.463   7.944  0.00  0.00    +0.379 N 
ATOM     11  C   UNL     1       0.898  -0.287   7.956  0.00  0.00    -0.082 C 
ATOM     12  C   UNL     1       1.058  -1.571   7.137  0.00  0.00    -0.010 C 
ATOM     13  H   UNL     1       2.902  -0.123   8.295  0.00  0.00    -0.086 HD
ATOM     14  H   UNL     1       2.071   1.278   8.533  0.00  0.00    -0.086 HD
ENDROOT
BRANCH   1  21
ATOM     15  C   UNL     1       1.393   0.909   0.177  0.00  0.00    +0.044 C 
ATOM     16  C   UNL     1       0.665  -0.405   0.063  0.00  0.00    -0.038 A 
ATOM     17  C   UNL     1       0.613  -1.064  -1.149  0.00  0.00    +0.004 A 
ATOM     18  C   UNL     1      -0.055  -2.271  -1.255  0.00  0.00    +0.000 A 
ATOM     19  C   UNL     1      -0.675  -2.825  -0.150  0.00  0.00    +0.001 A 
ATOM     20  C   UNL     1      -0.630  -2.178   1.067  0.00  0.00    +0.013 A 
ATOM     21  C   UNL     1       0.046  -0.962   1.183  0.00  0.00    +0.040 A 
ENDBRANCH   1  21
BRANCH   5  22
ATOM     22  C   UNL     1       3.062  -2.506   4.301  0.00  0.00    +0.218 C 
ATOM     23  O   UNL     1       3.281  -1.984   3.229  0.00  0.00    -0.275 OA
ATOM     24  N   UNL     1       4.064  -3.102   4.978  0.00  0.00    -0.312 N 
ATOM     25  H   UNL     1       3.888  -3.519   5.836  0.00  0.00    +0.149 HD
BRANCH  24  26
ATOM     26  C   UNL     1       5.417  -3.119   4.418  0.00  0.00    +0.070 C 
ATOM     27  C   UNL     1       5.557  -4.303   3.459  0.00  0.00    +0.028 C 
BRANCH  26  28
ATOM     28  C   UNL     1       6.436  -3.257   5.551  0.00  0.00    +0.026 C 
BRANCH  28  29
ATOM     29  C   UNL     1       6.382  -2.013   6.440  0.00  0.00    +0.037 C 
BRANCH  29  30
ATOM     30  C   UNL     1       7.386  -2.149   7.556  0.00  0.00    -0.047 A 
ATOM     31  C   UNL     1       7.015  -2.741   8.749  0.00  0.00    +0.007 A 
ATOM     32  C   UNL     1       7.933  -2.866   9.773  0.00  0.00    +0.046 A 
ATOM     33  C   UNL     1       9.228  -2.398   9.604  0.00  0.00    +0.120 A 
ATOM     34  C   UNL     1       9.598  -1.804   8.406  0.00  0.00    +0.046 A 
ATOM     35  C   UNL     1       8.677  -1.686   7.382  0.00  0.00    +0.007 A 
BRANCH  33  36
ATOM     36  O   UNL     1      10.133  -2.520  10.611  0.00  0.00    -0.495 OA
ATOM     37  C   UNL     1      11.447  -2.015  10.366  0.00  0.00    +0.277 C 
ENDBRANCH  33  36
ENDBRANCH  29  30
ENDBRANCH  28  29
ENDBRANCH  26  28
ENDBRANCH  24  26
ENDBRANCH   5  22
TORSDOF 7
