REMARK  Name = ZINC66392430
REMARK  11 active torsions:
REMARK  status: ('A' for Active; 'I' for Inactive)
REMARK    1  A    between atoms: C_1  and  C_2
REMARK    2  A    between atoms: C_5  and  N_9
REMARK    3  A    between atoms: C_6  and  C_8
REMARK    4  A    between atoms: C_10  and  C_12
REMARK    5  A    between atoms: C_12  and  C_14
REMARK    6  A    between atoms: C_12  and  N_15
REMARK    7  A    between atoms: N_15  and  C_16
REMARK    8  A    between atoms: C_19  and  N_22
REMARK    9  A    between atoms: N_22  and  C_23
REMARK   10  A    between atoms: C_24  and  O_26
REMARK   11  A    between atoms: O_26  and  C_27
REMARK                            x       y       z     vdW  Elec       q    Type
REMARK                         _______ _______ _______ _____ _____    ______ ____
ROOT
ATOM      1  C   UNL     1      -0.171  -6.331  -1.175  0.00  0.00    +0.154 C 
ATOM      2  C   UNL     1       1.065  -6.918  -0.489  0.00  0.00    +0.038 C 
ENDROOT
BRANCH   1   4
ATOM      3  N   UNL     1       0.004  -4.151  -0.019  0.00  0.00    -0.284 N 
ATOM      4  C   UNL     1      -0.075  -4.827  -1.183  0.00  0.00    +0.237 C 
ATOM      5  O   UNL     1      -0.068  -4.225  -2.236  0.00  0.00    -0.273 OA
ATOM      6  H   UNL     1       0.058  -4.635   0.820  0.00  0.00    +0.155 HD
BRANCH   3  11
ATOM      7  C   UNL     1       0.012   1.522  -0.032  0.00  0.00    +0.044 C 
ATOM      8  C   UNL     1       0.010   0.015  -0.029  0.00  0.00    -0.050 A 
ATOM      9  C   UNL     1       0.622  -0.678  -1.057  0.00  0.00    +0.005 A 
ATOM     10  C   UNL     1       0.621  -2.059  -1.057  0.00  0.00    +0.024 A 
ATOM     11  C   UNL     1       0.006  -2.752  -0.022  0.00  0.00    +0.036 A 
ATOM     12  C   UNL     1      -0.607  -2.053   1.009  0.00  0.00    -0.029 A 
ATOM     13  C   UNL     1      -0.599  -0.672   1.006  0.00  0.00    +0.008 A 
ATOM     14  C   UNL     1      -1.275  -2.801   2.134  0.00  0.00    +0.045 C 
ENDBRANCH   3  11
ENDBRANCH   1   4
BRANCH   1  15
ATOM     15  N   UNL     1      -0.244  -6.823  -2.553  0.00  0.00    -0.333 N 
ATOM     16  H   UNL     1       0.124  -6.293  -3.277  0.00  0.00    +0.147 HD
BRANCH  15  17
ATOM     17  C   UNL     1      -0.845  -8.057  -2.825  0.00  0.00    +0.028 A 
ATOM     18  C   UNL     1      -1.377  -8.813  -1.789  0.00  0.00    +0.025 A 
ATOM     19  C   UNL     1      -1.970 -10.031  -2.057  0.00  0.00    +0.025 A 
ATOM     20  C   UNL     1      -2.034 -10.499  -3.362  0.00  0.00    +0.039 A 
ATOM     21  C   UNL     1      -1.502  -9.743  -4.398  0.00  0.00    +0.025 A 
ATOM     22  C   UNL     1      -0.914  -8.523  -4.131  0.00  0.00    +0.025 A 
BRANCH  20  23
ATOM     23  N   UNL     1      -2.636 -11.736  -3.635  0.00  0.00    -0.240 N 
ATOM     24  C   UNL     1      -3.741 -11.818  -4.594  0.00  0.00    +0.142 C 
ATOM     25  C   UNL     1      -2.199 -12.849  -3.014  0.00  0.00    +0.407 C 
ATOM     26  O   UNL     1      -1.223 -12.799  -2.292  0.00  0.00    -0.226 OA
BRANCH  25  27
ATOM     27  O   UNL     1      -2.843 -14.018  -3.195  0.00  0.00    -0.453 OA
ATOM     28  C   UNL     1      -2.324 -15.158  -2.506  0.00  0.00    +0.282 C 
ENDBRANCH  25  27
ENDBRANCH  20  23
ENDBRANCH  15  17
ENDBRANCH   1  15
TORSDOF 6
