REMARK  Name = ZINC43218885
REMARK  7 active torsions:
REMARK  status: ('A' for Active; 'I' for Inactive)
REMARK    1  A    between atoms: C_1  and  C_2
REMARK    2  A    between atoms: C_2  and  C_3
REMARK    3  A    between atoms: C_6  and  N_9
REMARK    4  A    between atoms: C_14  and  C_31
REMARK    5  A    between atoms: C_17  and  C_22
REMARK    6  A    between atoms: C_17  and  C_28
REMARK    7  A    between atoms: C_34  and  C_37
REMARK                            x       y       z     vdW  Elec       q    Type
REMARK                         _______ _______ _______ _____ _____    ______ ____
ROOT
ATOM      1  N   UNL     1       2.288  -1.841  -4.985  0.00  0.00    -0.210 N 
ATOM      2  C   UNL     1       1.811  -2.110  -6.244  0.00  0.00    +0.229 C 
ATOM      3  O   UNL     1       0.736  -1.798  -6.709  0.00  0.00    -0.275 OA
ATOM      4  C   UNL     1       2.870  -2.843  -6.890  0.00  0.00    +0.078 C 
ATOM      5  C   UNL     1       3.351  -3.197  -8.237  0.00  0.00    -0.026 C 
ATOM      6  N   UNL     1       4.699  -3.795  -7.944  0.00  0.00    +0.398 N 
ATOM      7  C   UNL     1       5.157  -3.264  -6.625  0.00  0.00    +0.074 C 
ATOM      8  C   UNL     1       4.154  -2.154  -6.277  0.00  0.00    +0.090 C 
ATOM      9  C   UNL     1       3.630  -2.069  -4.870  0.00  0.00    +0.229 C 
ATOM     10  O   UNL     1       4.268  -2.181  -3.845  0.00  0.00    -0.275 OA
ATOM     11  H   UNL     1       4.625  -4.800  -7.900  0.00  0.00    -0.083 HD
ATOM     12  H   UNL     1       5.354  -3.531  -8.665  0.00  0.00    -0.083 HD
ENDROOT
BRANCH   1  16
ATOM     13  C   UNL     1      -0.098  -0.467  -1.855  0.00  0.00    -0.048 A 
ATOM     14  C   UNL     1      -0.660  -0.717  -3.093  0.00  0.00    +0.005 A 
ATOM     15  C   UNL     1       0.128  -1.173  -4.132  0.00  0.00    +0.024 A 
ATOM     16  C   UNL     1       1.486  -1.379  -3.932  0.00  0.00    +0.044 A 
ATOM     17  C   UNL     1       2.048  -1.126  -2.688  0.00  0.00    +0.024 A 
ATOM     18  C   UNL     1       1.256  -0.665  -1.655  0.00  0.00    +0.005 A 
BRANCH  13  20
ATOM     19  C   UNL     1      -0.993   1.560  -0.741  0.00  0.00    +0.009 C 
ATOM     20  C   UNL     1      -0.960   0.031  -0.723  0.00  0.00    +0.032 C 
ENDBRANCH  13  20
ENDBRANCH   1  16
BRANCH   7  21
ATOM     21  C   UNL     1       5.144  -4.357  -5.589  0.00  0.00    -0.047 A 
ATOM     22  C   UNL     1       6.046  -4.329  -4.542  0.00  0.00    +0.003 A 
ATOM     23  C   UNL     1       6.034  -5.332  -3.591  0.00  0.00    +0.000 A 
ATOM     24  C   UNL     1       5.120  -6.364  -3.687  0.00  0.00    +0.000 A 
ATOM     25  C   UNL     1       4.217  -6.393  -4.734  0.00  0.00    +0.000 A 
ATOM     26  C   UNL     1       4.226  -5.387  -5.682  0.00  0.00    +0.003 A 
ENDBRANCH   7  21
BRANCH   5  27
ATOM     27  C   UNL     1       2.442  -4.210  -8.884  0.00  0.00    -0.061 A 
ATOM     28  C   UNL     1       2.659  -5.561  -8.678  0.00  0.00    +0.003 A 
ATOM     29  C   UNL     1       1.831  -6.493  -9.268  0.00  0.00    +0.019 A 
ATOM     30  C   UNL     1       0.770  -6.071 -10.072  0.00  0.00    +0.052 A 
ATOM     31  C   UNL     1       0.557  -4.706 -10.275  0.00  0.00    +0.019 A 
ATOM     32  C   UNL     1       1.390  -3.784  -9.676  0.00  0.00    +0.003 A 
BRANCH  30  33
ATOM     33  C   UNL     1      -0.093  -7.033 -10.687  0.00  0.00    +0.099 C 
ATOM     34  N   UNL     1      -0.778  -7.797 -11.175  0.00  0.00    -0.191 NA
ENDBRANCH  30  33
ENDBRANCH   5  27
BRANCH   7  35
ATOM     35  C   UNL     1       6.541  -2.679  -6.751  0.00  0.00    +0.350 C 
ATOM     36  O   UNL     1       7.123  -2.715  -7.821  0.00  0.00    -0.248 OA
ATOM     37  O   UNL     1       7.077  -2.169  -5.782  0.00  0.00    -0.248 OA
ENDBRANCH   7  35
TORSDOF 6
