REMARK  Name = ZINC35993381
REMARK  12 active torsions:
REMARK  status: ('A' for Active; 'I' for Inactive)
REMARK    1  A    between atoms: C_1  and  C_2
REMARK    2  A    between atoms: C_2  and  O_3
REMARK    3  A    between atoms: O_3  and  C_4
REMARK    4  A    between atoms: C_4  and  C_6
REMARK    5  A    between atoms: C_7  and  C_22
REMARK    6  A    between atoms: N_8  and  C_21
REMARK    7  A    between atoms: C_12  and  C_14
REMARK    8  A    between atoms: C_19  and  C_20
REMARK    9  A    between atoms: C_22  and  N_23
REMARK   10  A    between atoms: C_27  and  C_30
REMARK   11  A    between atoms: C_31  and  C_33
REMARK   12  A    between atoms: C_36  and  C_39
REMARK                            x       y       z     vdW  Elec       q    Type
REMARK                         _______ _______ _______ _____ _____    ______ ____
ROOT
ATOM      1  C   UNL     1       1.726  -2.151   0.354  0.00  0.00    +0.080 C 
ATOM      2  C   UNL     1       2.100  -3.262  -0.315  0.00  0.00    +0.041 C 
ATOM      3  N   UNL     1       2.807  -3.178  -1.480  0.00  0.00    -0.260 N 
ATOM      4  C   UNL     1       3.180  -2.021  -2.041  0.00  0.00    +0.307 C 
ATOM      5  O   UNL     1       3.808  -2.047  -3.081  0.00  0.00    -0.252 OA
ATOM      6  N   UNL     1       2.880  -0.828  -1.490  0.00  0.00    -0.288 N 
ATOM      7  C   UNL     1       2.113  -0.809  -0.234  0.00  0.00    +0.144 C 
ATOM      8  C   UNL     1       3.180  -4.425  -2.154  0.00  0.00    +0.139 C 
ATOM      9  H   UNL     1       3.160  -0.001  -1.913  0.00  0.00    +0.151 HD
ENDROOT
BRANCH   7  10
ATOM     10  C   UNL     1       2.931  -0.070   0.794  0.00  0.00    -0.020 A 
ATOM     11  C   UNL     1       4.309  -0.182   0.791  0.00  0.00    +0.006 A 
ATOM     12  C   UNL     1       5.059   0.496   1.733  0.00  0.00    +0.000 A 
ATOM     13  C   UNL     1       4.432   1.286   2.678  0.00  0.00    +0.000 A 
ATOM     14  C   UNL     1       3.054   1.399   2.680  0.00  0.00    +0.004 A 
ATOM     15  C   UNL     1       2.304   0.725   1.735  0.00  0.00    -0.045 A 
ATOM     16  C   UNL     1       0.802   0.852   1.734  0.00  0.00    +0.044 C 
ENDBRANCH   7  10
BRANCH   1  17
ATOM     17  C   UNL     1       0.992  -2.236   1.561  0.00  0.00    +0.339 C 
ATOM     18  O   UNL     1      -0.219  -2.122   1.546  0.00  0.00    -0.245 OA
BRANCH  17  19
ATOM     19  O   UNL     1       1.636  -2.444   2.729  0.00  0.00    -0.462 OA
BRANCH  19  21
ATOM     20  C   UNL     1       1.719  -2.964   5.087  0.00  0.00    +0.048 C 
ATOM     21  C   UNL     1       0.827  -2.619   3.894  0.00  0.00    +0.229 C 
ENDBRANCH  19  21
ENDBRANCH  17  19
ENDBRANCH   1  17
BRANCH   2  22
ATOM     22  C   UNL     1       1.731  -4.617   0.232  0.00  0.00    +0.136 C 
BRANCH  22  23
ATOM     23  N   UNL     1       0.791  -5.276  -0.685  0.00  0.00    -0.294 NA
ATOM     24  C   UNL     1      -0.487  -4.553  -0.739  0.00  0.00    +0.104 C 
ATOM     25  C   UNL     1      -1.369  -5.162  -1.834  0.00  0.00    +0.124 C 
ATOM     26  N   UNL     1      -1.482  -6.608  -1.592  0.00  0.00    -0.292 N 
ATOM     27  C   UNL     1      -0.246  -7.379  -1.390  0.00  0.00    +0.087 C 
ATOM     28  C   UNL     1       0.592  -6.683  -0.313  0.00  0.00    +0.107 C 
ATOM     29  C   UNL     1      -0.594  -8.799  -0.939  0.00  0.00    +0.029 C 
ATOM     30  C   UNL     1      -2.687  -7.211  -1.556  0.00  0.00    +0.247 C 
ATOM     31  O   UNL     1      -2.770  -8.386  -1.254  0.00  0.00    -0.270 OA
BRANCH  30  32
ATOM     32  C   UNL     1      -3.908  -6.444  -1.884  0.00  0.00    +0.037 A 
ATOM     33  C   UNL     1      -3.837  -5.352  -2.751  0.00  0.00    +0.013 A 
ATOM     34  C   UNL     1      -4.980  -4.641  -3.054  0.00  0.00    +0.004 A 
ATOM     35  C   UNL     1      -6.194  -5.008  -2.500  0.00  0.00    -0.050 A 
ATOM     36  C   UNL     1      -6.270  -6.089  -1.640  0.00  0.00    +0.004 A 
ATOM     37  C   UNL     1      -5.136  -6.812  -1.334  0.00  0.00    +0.013 A 
ATOM     38  C   UNL     1      -7.438  -4.226  -2.835  0.00  0.00    +0.044 C 
ENDBRANCH  30  32
ENDBRANCH  22  23
ENDBRANCH   2  22
TORSDOF 7
