REMARK  Name = ZINC02924224
REMARK  12 active torsions:
REMARK  status: ('A' for Active; 'I' for Inactive)
REMARK    1  A    between atoms: C_1  and  C_2
REMARK    2  A    between atoms: C_3  and  C_31
REMARK    3  A    between atoms: C_4  and  C_22
REMARK    4  A    between atoms: C_10  and  C_15
REMARK    5  A    between atoms: C_25  and  O_30
REMARK    6  A    between atoms: C_26  and  O_28
REMARK    7  A    between atoms: O_28  and  C_29
REMARK    8  A    between atoms: C_31  and  O_33
REMARK    9  A    between atoms: O_33  and  C_34
REMARK   10  A    between atoms: C_34  and  C_35
REMARK   11  A    between atoms: C_35  and  O_36
REMARK   12  A    between atoms: O_36  and  C_37
REMARK                            x       y       z     vdW  Elec       q    Type
REMARK                         _______ _______ _______ _____ _____    ______ ____
ROOT
ATOM      1  C   UNL     1       0.892   0.217   4.768  0.00  0.00    +0.061 C 
ATOM      2  C   UNL     1      -0.287   1.156   4.749  0.00  0.00    +0.016 C 
ATOM      3  C   UNL     1      -0.758   1.612   3.576  0.00  0.00    +0.065 C 
ATOM      4  C   UNL     1      -1.922   2.557   3.519  0.00  0.00    +0.092 C 
ATOM      5  C   UNL     1      -2.698   2.536   4.815  0.00  0.00    +0.024 C 
ATOM      6  C   UNL     1      -2.140   2.046   5.943  0.00  0.00    +0.016 C 
ATOM      7  N   UNL     1      -0.869   1.538   5.925  0.00  0.00    -0.321 N 
ATOM      8  C   UNL     1      -2.897   2.048   7.248  0.00  0.00    +0.059 C 
ATOM      9  C   UNL     1      -4.395   1.900   6.973  0.00  0.00    +0.032 C 
ATOM     10  C   UNL     1      -4.840   3.055   6.069  0.00  0.00    +0.088 C 
ATOM     11  C   UNL     1      -4.008   3.045   4.816  0.00  0.00    +0.162 C 
ATOM     12  O   UNL     1      -4.477   3.486   3.785  0.00  0.00    -0.292 OA
ATOM     13  H   UNL     1      -0.315   1.439   6.871  0.00  0.00    +0.152 HD
ENDROOT
BRANCH   9  14
ATOM     14  C   UNL     1      -5.156   1.952   8.272  0.00  0.00    -0.043 A 
ATOM     15  C   UNL     1      -5.071   3.071   9.079  0.00  0.00    +0.005 A 
ATOM     16  C   UNL     1      -5.774   3.122  10.268  0.00  0.00    +0.020 A 
ATOM     17  C   UNL     1      -6.553   2.046  10.657  0.00  0.00    +0.041 A 
ATOM     18  C   UNL     1      -6.633   0.924   9.852  0.00  0.00    +0.020 A 
ATOM     19  C   UNL     1      -5.934   0.877   8.660  0.00  0.00    +0.005 A 
ATOM     20 CL   UNL     1      -7.429   2.106  12.154  0.00  0.00    -0.084 Cl
ENDBRANCH   9  14
BRANCH   4  21
ATOM     21  C   UNL     1      -1.414   3.953   3.264  0.00  0.00    -0.032 A 
ATOM     22  C   UNL     1      -0.541   4.543   4.159  0.00  0.00    +0.008 A 
ATOM     23  C   UNL     1      -0.072   5.823   3.929  0.00  0.00    +0.049 A 
ATOM     24  C   UNL     1      -0.477   6.518   2.800  0.00  0.00    +0.158 A 
ATOM     25  C   UNL     1      -1.356   5.923   1.900  0.00  0.00    +0.162 A 
ATOM     26  C   UNL     1      -1.818   4.638   2.134  0.00  0.00    +0.054 A 
BRANCH  25  27
ATOM     27  O   UNL     1      -1.756   6.601   0.791  0.00  0.00    -0.491 OA
ATOM     28  C   UNL     1      -2.660   5.928  -0.089  0.00  0.00    +0.277 C 
ENDBRANCH  25  27
BRANCH  24  29
ATOM     29  O   UNL     1      -0.016   7.777   2.573  0.00  0.00    -0.503 OA
ATOM     30  H   UNL     1      -0.339   8.327   1.676  0.00  0.00    +0.292 HD
ENDBRANCH  24  29
ENDBRANCH   4  21
BRANCH   3  31
ATOM     31  C   UNL     1      -0.142   1.197   2.372  0.00  0.00    +0.338 C 
ATOM     32  O   UNL     1       0.870   0.523   2.407  0.00  0.00    -0.245 OA
BRANCH  31  33
ATOM     33  O   UNL     1      -0.677   1.550   1.184  0.00  0.00    -0.459 OA
BRANCH  33  34
ATOM     34  C   UNL     1      -0.003   1.096   0.009  0.00  0.00    +0.260 C 
BRANCH  34  35
ATOM     35  C   UNL     1      -0.751   1.590  -1.231  0.00  0.00    +0.200 C 
BRANCH  35  36
ATOM     36  O   UNL     1      -0.690   3.017  -1.287  0.00  0.00    -0.380 OA
ATOM     37  C   UNL     1      -1.362   3.583  -2.414  0.00  0.00    +0.194 C 
ENDBRANCH  35  36
ENDBRANCH  34  35
ENDBRANCH  33  34
ENDBRANCH  31  33
ENDBRANCH   3  31
TORSDOF 9
