REMARK  Name = ZINC14160381
REMARK  10 active torsions:
REMARK  status: ('A' for Active; 'I' for Inactive)
REMARK    1  A    between atoms: C_1  and  C_2
REMARK    2  A    between atoms: C_7  and  N_8
REMARK    3  A    between atoms: N_15  and  C_16
REMARK    4  A    between atoms: C_16  and  N_18
REMARK    5  A    between atoms: N_18  and  C_19
REMARK    6  A    between atoms: C_21  and  C_26
REMARK    7  A    between atoms: C_23  and  C_25
REMARK    8  A    between atoms: N_27  and  C_28
REMARK    9  A    between atoms: C_30  and  C_35
REMARK   10  A    between atoms: C_32  and  C_34
REMARK                            x       y       z     vdW  Elec       q    Type
REMARK                         _______ _______ _______ _____ _____    ______ ____
ROOT
ATOM      1  N   UNL     1       0.461   2.304   1.639  0.00  0.00    -0.327 N 
ATOM      2  C   UNL     1      -0.727   1.559   2.078  0.00  0.00    +0.124 C 
ATOM      3  C   UNL     1      -0.281   0.442   3.029  0.00  0.00    +0.126 C 
ATOM      4  N   UNL     1       0.609   1.019   4.047  0.00  0.00    -0.300 N 
ATOM      5  C   UNL     1       1.797   1.764   3.608  0.00  0.00    +0.126 C 
ATOM      6  C   UNL     1       1.354   2.876   2.656  0.00  0.00    +0.124 C 
ATOM      7  C   UNL     1       0.336   0.865   5.379  0.00  0.00    +0.192 C 
ATOM      8  N   UNL     1       1.188   1.391   6.320  0.00  0.00    -0.269 N 
ATOM      9  N   UNL     1      -0.742   0.213   5.758  0.00  0.00    -0.181 NA
ATOM     10  H   UNL     1       0.848   1.996   6.998  0.00  0.00    +0.156 HD
ENDROOT
BRANCH   1  17
ATOM     11  C   UNL     1      -0.602   4.581   0.306  0.00  0.00    +0.045 C 
ATOM     12  C   UNL     1       0.241   3.558  -0.411  0.00  0.00    -0.029 A 
ATOM     13  C   UNL     1       0.523   3.714  -1.754  0.00  0.00    +0.006 A 
ATOM     14  C   UNL     1       1.297   2.777  -2.413  0.00  0.00    +0.020 A 
ATOM     15  C   UNL     1       1.791   1.679  -1.730  0.00  0.00    +0.043 A 
ATOM     16  C   UNL     1       1.512   1.517  -0.386  0.00  0.00    +0.043 A 
ATOM     17  C   UNL     1       0.740   2.461   0.279  0.00  0.00    +0.034 A 
ATOM     18 CL   UNL     1       2.762   0.505  -2.562  0.00  0.00    -0.083 Cl
ENDBRANCH   1  17
BRANCH   9  19
ATOM     19  C   UNL     1      -0.981   0.005   7.082  0.00  0.00    +0.253 A 
ATOM     20  N   UNL     1      -0.139   0.508   7.982  0.00  0.00    -0.216 NA
ATOM     21  C   UNL     1      -0.344   0.323   9.275  0.00  0.00    +0.044 A 
ATOM     22  C   UNL     1      -1.450  -0.404   9.688  0.00  0.00    +0.046 A 
ATOM     23  C   UNL     1      -2.308  -0.915   8.726  0.00  0.00    +0.044 A 
ATOM     24  N   UNL     1      -2.053  -0.692   7.449  0.00  0.00    -0.216 NA
ATOM     25  C   UNL     1      -3.522  -1.711   9.133  0.00  0.00    +0.066 C 
ATOM     26  C   UNL     1       0.614   0.895  10.287  0.00  0.00    +0.066 C 
ENDBRANCH   9  19
BRANCH   8  27
ATOM     27  C   UNL     1       2.496   1.067   6.302  0.00  0.00    +0.141 C 
ATOM     28  S   UNL     1       3.082  -0.063   5.157  0.00  0.00    -0.018 S 
BRANCH  27  29
ATOM     29  N   UNL     1       3.343   1.633   7.184  0.00  0.00    -0.297 N 
ATOM     30  H   UNL     1       3.754   1.093   7.877  0.00  0.00    +0.154 HD
BRANCH  29  31
ATOM     31  C   UNL     1       3.631   2.999   7.100  0.00  0.00    +0.033 A 
ATOM     32  C   UNL     1       2.753   3.857   6.450  0.00  0.00    +0.026 A 
ATOM     33  C   UNL     1       3.039   5.205   6.370  0.00  0.00    -0.048 A 
ATOM     34  C   UNL     1       4.200   5.702   6.934  0.00  0.00    +0.006 A 
ATOM     35  C   UNL     1       5.077   4.851   7.582  0.00  0.00    -0.048 A 
ATOM     36  C   UNL     1       4.793   3.502   7.671  0.00  0.00    +0.026 A 
ATOM     37  C   UNL     1       6.341   5.396   8.194  0.00  0.00    +0.044 C 
ATOM     38  C   UNL     1       2.087   6.136   5.665  0.00  0.00    +0.044 C 
ENDBRANCH  29  31
ENDBRANCH  27  29
ENDBRANCH   8  27
TORSDOF 5
