REMARK  Name = ZINC34869405
REMARK  15 active torsions:
REMARK  status: ('A' for Active; 'I' for Inactive)
REMARK    1  A    between atoms: C_1  and  C_2
REMARK    2  A    between atoms: C_2  and  C_3
REMARK    3  A    between atoms: C_3  and  C_4
REMARK    4  A    between atoms: C_4  and  C_5
REMARK    5  A    between atoms: C_5  and  C_7
REMARK    6  A    between atoms: C_5  and  C_9
REMARK    7  A    between atoms: C_7  and  C_8
REMARK    8  A    between atoms: C_16  and  C_18
REMARK    9  A    between atoms: C_19  and  C_21
REMARK   10  A    between atoms: C_21  and  C_23
REMARK   11  A    between atoms: C_21  and  N_28
REMARK   12  A    between atoms: C_23  and  C_25
REMARK   13  A    between atoms: C_23  and  C_26
REMARK   14  A    between atoms: C_26  and  C_27
REMARK   15  A    between atoms: N_31  and  C_32
REMARK                            x       y       z     vdW  Elec       q    Type
REMARK                         _______ _______ _______ _____ _____    ______ ____
ROOT
ATOM      1  C   UNL     1      -7.719  -7.019   1.815  0.00  0.00    +0.163 C 
ENDROOT
BRANCH   1  11
ATOM      2  C   UNL     1      -2.761  -3.834   0.072  0.00  0.00    +0.219 C 
ATOM      3  O   UNL     1      -1.605  -4.181  -0.054  0.00  0.00    -0.275 OA
ATOM      4  N   UNL     1      -3.735  -4.759   0.179  0.00  0.00    -0.295 N 
ATOM      5  C   UNL     1      -5.123  -4.356   0.444  0.00  0.00    +0.127 C 
ATOM      6  C   UNL     1      -5.617  -5.095   1.694  0.00  0.00    +0.127 C 
ATOM      7  N   UNL     1      -5.310  -6.525   1.547  0.00  0.00    -0.297 N 
ATOM      8  C   UNL     1      -3.922  -6.927   1.282  0.00  0.00    +0.130 C 
ATOM      9  C   UNL     1      -3.429  -6.188   0.026  0.00  0.00    +0.090 C 
ATOM     10  C   UNL     1      -1.918  -6.377  -0.123  0.00  0.00    +0.029 C 
ATOM     11  C   UNL     1      -6.284  -7.450   1.654  0.00  0.00    +0.236 C 
ATOM     12  O   UNL     1      -6.006  -8.630   1.620  0.00  0.00    -0.274 OA
BRANCH   2  13
ATOM     13  C   UNL     1      -3.107  -2.367   0.109  0.00  0.00    +0.075 C 
BRANCH  13  14
ATOM     14  C   UNL     1      -2.142  -1.593  -0.791  0.00  0.00    +0.009 C 
ATOM     15  C   UNL     1      -2.365  -2.001  -2.248  0.00  0.00    +0.004 C 
ENDBRANCH  13  14
BRANCH  13  16
ATOM     16  C   UNL     1      -2.990  -1.852   1.545  0.00  0.00    +0.013 C 
BRANCH  16  17
ATOM     17  C   UNL     1      -3.461  -0.398   1.605  0.00  0.00    +0.000 C 
BRANCH  17  19
ATOM     18  C   UNL     1      -3.815   1.573   3.100  0.00  0.00    +0.004 C 
ATOM     19  C   UNL     1      -3.344   0.118   3.041  0.00  0.00    -0.003 C 
ENDBRANCH  17  19
ENDBRANCH  16  17
ENDBRANCH  13  16
ENDBRANCH   2  13
ENDBRANCH   1  11
BRANCH   1  20
ATOM     20  N   UNL     1      -8.485  -8.097   2.446  0.00  0.00    -0.288 N 
ATOM     21  C   UNL     1      -9.604  -7.811   3.140  0.00  0.00    +0.305 C 
ATOM     22  O   UNL     1      -9.978  -6.659   3.243  0.00  0.00    -0.252 OA
ATOM     23  N   UNL     1     -10.309  -8.803   3.720  0.00  0.00    -0.268 N 
ATOM     24  H   UNL     1      -8.187  -9.016   2.363  0.00  0.00    +0.151 HD
ATOM     25  H   UNL     1      -9.976  -9.713   3.695  0.00  0.00    +0.156 HD
BRANCH  23  26
ATOM     26  C   UNL     1     -11.524  -8.519   4.357  0.00  0.00    +0.053 A 
ATOM     27  C   UNL     1     -11.702  -7.303   5.003  0.00  0.00    +0.026 A 
ATOM     28  C   UNL     1     -12.901  -7.025   5.631  0.00  0.00    +0.022 A 
ATOM     29  C   UNL     1     -13.924  -7.957   5.617  0.00  0.00    +0.042 A 
ATOM     30  C   UNL     1     -13.749  -9.170   4.974  0.00  0.00    +0.041 A 
ATOM     31  C   UNL     1     -12.554  -9.451   4.338  0.00  0.00    +0.064 A 
ATOM     32 CL   UNL     1     -12.338 -10.969   3.525  0.00  0.00    -0.082 Cl
ATOM     33 CL   UNL     1     -15.428  -7.604   6.407  0.00  0.00    -0.083 Cl
ENDBRANCH  23  26
ENDBRANCH   1  20
BRANCH   1  34
ATOM     34  C   UNL     1      -8.315  -6.705   0.442  0.00  0.00    +0.015 C 
ATOM     35  C   UNL     1      -8.391  -7.989  -0.387  0.00  0.00    +0.010 C 
BRANCH  34  36
ATOM     36  C   UNL     1      -9.720  -6.126   0.616  0.00  0.00    +0.002 C 
ATOM     37  C   UNL     1      -9.630  -4.764   1.307  0.00  0.00    +0.004 C 
ENDBRANCH  34  36
ENDBRANCH   1  34
TORSDOF 10
