REMARK  Name = ZINC36589630
REMARK  14 active torsions:
REMARK  status: ('A' for Active; 'I' for Inactive)
REMARK    1  A    between atoms: C_1  and  C_2
REMARK    2  A    between atoms: C_2  and  C_3
REMARK    3  A    between atoms: C_3  and  C_4
REMARK    4  A    between atoms: N_6  and  C_7
REMARK    5  A    between atoms: N_6  and  C_27
REMARK    6  A    between atoms: C_7  and  C_9
REMARK    7  A    between atoms: C_7  and  C_18
REMARK    8  A    between atoms: C_12  and  N_15
REMARK    9  A    between atoms: N_15  and  C_16
REMARK   10  A    between atoms: N_15  and  C_17
REMARK   11  A    between atoms: N_20  and  C_21
REMARK   12  A    between atoms: C_27  and  C_28
REMARK   13  A    between atoms: C_27  and  C_29
REMARK   14  A    between atoms: C_27  and  C_30
REMARK                            x       y       z     vdW  Elec       q    Type
REMARK                         _______ _______ _______ _____ _____    ______ ____
ROOT
ATOM      1  C   UNL     1       1.985  -1.830   3.269  0.00  0.00    +0.193 C 
ENDROOT
BRANCH   1   2
ATOM      2  C   UNL     1       2.087  -1.556   1.791  0.00  0.00    -0.018 A 
ATOM      3  C   UNL     1       1.278  -2.245   0.905  0.00  0.00    +0.008 A 
ATOM      4  C   UNL     1       1.369  -1.996  -0.451  0.00  0.00    +0.023 A 
ATOM      5  C   UNL     1       2.273  -1.054  -0.924  0.00  0.00    +0.029 A 
ATOM      6  C   UNL     1       3.083  -0.364  -0.031  0.00  0.00    +0.023 A 
ATOM      7  C   UNL     1       2.984  -0.613   1.323  0.00  0.00    +0.008 A 
BRANCH   5   8
ATOM      8  N   UNL     1       2.367  -0.801  -2.295  0.00  0.00    -0.336 N 
ATOM      9  C   UNL     1       1.426  -1.432  -3.223  0.00  0.00    +0.129 C 
ATOM     10  C   UNL     1       3.408   0.096  -2.804  0.00  0.00    +0.129 C 
ENDBRANCH   5   8
ENDBRANCH   1   2
BRANCH   1  11
ATOM     11  C   UNL     1       2.456  -0.622   4.037  0.00  0.00    +0.238 C 
ATOM     12  O   UNL     1       2.014   0.476   3.771  0.00  0.00    -0.273 OA
ATOM     13  N   UNL     1       3.369  -0.761   5.019  0.00  0.00    -0.311 N 
ATOM     14  H   UNL     1       3.723  -1.639   5.231  0.00  0.00    +0.149 HD
BRANCH  13  15
ATOM     15  C   UNL     1       3.827   0.413   5.765  0.00  0.00    +0.073 C 
ATOM     16  C   UNL     1       4.967   1.090   5.002  0.00  0.00    +0.022 C 
ATOM     17  C   UNL     1       5.446   2.317   5.782  0.00  0.00    +0.002 C 
ATOM     18  C   UNL     1       5.943   1.882   7.161  0.00  0.00    +0.000 C 
ATOM     19  C   UNL     1       4.803   1.205   7.925  0.00  0.00    +0.002 C 
ATOM     20  C   UNL     1       4.325  -0.022   7.145  0.00  0.00    +0.022 C 
ENDBRANCH  13  15
ENDBRANCH   1  11
BRANCH   1  23
ATOM     21  C   UNL     1      -0.356  -1.177   3.436  0.00  0.00    +0.217 C 
ATOM     22  O   UNL     1      -1.489  -1.375   3.822  0.00  0.00    -0.276 OA
ATOM     23  N   UNL     1       0.592  -2.117   3.618  0.00  0.00    -0.281 N 
BRANCH  23  24
ATOM     24  C   UNL     1       0.229  -3.427   4.165  0.00  0.00    +0.030 C 
ATOM     25  C   UNL     1      -0.788  -4.101   3.242  0.00  0.00    +0.031 C 
ATOM     26  C   UNL     1       1.480  -4.301   4.270  0.00  0.00    +0.031 C 
ATOM     27  C   UNL     1      -0.385  -3.247   5.555  0.00  0.00    +0.031 C 
ENDBRANCH  23  24
BRANCH  21  28
ATOM     28  C   UNL     1      -0.009   0.120   2.752  0.00  0.00    +0.096 C 
BRANCH  28  30
ATOM     29  C   UNL     1      -0.671   1.714   0.945  0.00  0.00    +0.004 C 
ATOM     30  C   UNL     1      -1.023   0.397   1.639  0.00  0.00    +0.006 C 
ENDBRANCH  28  30
ENDBRANCH  21  28
ENDBRANCH   1  23
TORSDOF 8
