REMARK  Name = ZINC08858804
REMARK  10 active torsions:
REMARK  status: ('A' for Active; 'I' for Inactive)
REMARK    1  A    between atoms: C_1  and  C_2
REMARK    2  A    between atoms: C_2  and  C_3
REMARK    3  A    between atoms: C_2  and  C_4
REMARK    4  A    between atoms: C_4  and  C_5
REMARK    5  A    between atoms: C_5  and  O_6
REMARK    6  A    between atoms: O_6  and  C_7
REMARK    7  A    between atoms: C_10  and  C_13
REMARK    8  A    between atoms: N_14  and  N_15
REMARK    9  A    between atoms: C_16  and  C_24
REMARK   10  A    between atoms: N_17  and  C_18
REMARK                            x       y       z     vdW  Elec       q    Type
REMARK                         _______ _______ _______ _____ _____    ______ ____
ROOT
ATOM      1  N   UNL     1       0.582   8.175  -0.779  0.00  0.00    -0.219 N 
ATOM      2  C   UNL     1       1.507   7.288  -0.274  0.00  0.00    +0.171 C 
ATOM      3  N   UNL     1       1.191   6.022  -0.124  0.00  0.00    -0.229 NA
ATOM      4  H   UNL     1      -0.424   7.823  -1.053  0.00  0.00    +0.176 HD
ENDROOT
BRANCH   2   5
ATOM      5  C   UNL     1       2.854   7.761   0.100  0.00  0.00    +0.144 A 
ATOM      6  N   UNL     1       3.353   8.976   0.024  0.00  0.00    -0.236 NA
ATOM      7  C   UNL     1       4.604   9.269   0.402  0.00  0.00    +0.079 A 
ATOM      8  C   UNL     1       5.256  10.527   0.370  0.00  0.00    +0.029 A 
ATOM      9  C   UNL     1       6.539  10.656   0.798  0.00  0.00    +0.002 A 
ATOM     10  C   UNL     1       7.265   9.570   1.271  0.00  0.00    +0.001 A 
ATOM     11  C   UNL     1       6.668   8.325   1.319  0.00  0.00    +0.017 A 
ATOM     12  C   UNL     1       5.369   8.182   0.894  0.00  0.00    +0.040 A 
ATOM     13  S   UNL     1       4.224   6.829   0.771  0.00  0.00    -0.064 S 
ENDBRANCH   2   5
BRANCH   3  14
ATOM     14  C   UNL     1      -0.091   5.608  -0.350  0.00  0.00    +0.066 A 
ATOM     15  C   UNL     1      -1.153   6.202   0.338  0.00  0.00    +0.028 A 
ATOM     16  C   UNL     1      -2.445   5.782   0.100  0.00  0.00    +0.002 A 
ATOM     17  C   UNL     1      -2.690   4.767  -0.808  0.00  0.00    +0.000 A 
ATOM     18  C   UNL     1      -1.643   4.170  -1.488  0.00  0.00    +0.002 A 
ATOM     19  C   UNL     1      -0.346   4.583  -1.265  0.00  0.00    +0.028 A 
ENDBRANCH   3  14
BRANCH   1  21
ATOM     20  C   UNL     1       0.022  10.377  -1.329  0.00  0.00    +0.138 C 
ATOM     21  N   UNL     1       0.922   9.524  -0.945  0.00  0.00    -0.189 NA
BRANCH  20  25
ATOM     22  C   UNL     1       0.966  14.512  -1.526  0.00  0.00    +0.121 A 
ATOM     23  C   UNL     1      -0.333  14.086  -1.771  0.00  0.00    +0.046 A 
ATOM     24  C   UNL     1      -0.644  12.745  -1.708  0.00  0.00    +0.013 A 
ATOM     25  C   UNL     1       0.350  11.813  -1.398  0.00  0.00    -0.005 A 
ATOM     26  C   UNL     1       1.655  12.247  -1.147  0.00  0.00    +0.013 A 
ATOM     27  C   UNL     1       1.958  13.589  -1.218  0.00  0.00    +0.046 A 
BRANCH  22  28
ATOM     28  O   UNL     1       1.268  15.835  -1.589  0.00  0.00    -0.492 OA
BRANCH  28  29
ATOM     29  C   UNL     1       2.623  16.204  -1.326  0.00  0.00    +0.229 C 
BRANCH  29  30
ATOM     30  C   UNL     1       2.770  17.723  -1.441  0.00  0.00    +0.044 C 
BRANCH  30  32
ATOM     31  C   UNL     1       4.395  19.619  -1.397  0.00  0.00    +0.007 C 
ATOM     32  C   UNL     1       4.221  18.118  -1.160  0.00  0.00    -0.014 C 
ATOM     33  C   UNL     1       4.567  17.787   0.293  0.00  0.00    +0.007 C 
ENDBRANCH  30  32
ENDBRANCH  29  30
ENDBRANCH  28  29
ENDBRANCH  22  28
ENDBRANCH  20  25
ENDBRANCH   1  21
TORSDOF 8
