REMARK  Name = ZINC39672848
REMARK  8 active torsions:
REMARK  status: ('A' for Active; 'I' for Inactive)
REMARK    1  A    between atoms: C_1  and  C_2
REMARK    2  A    between atoms: C_2  and  C_3
REMARK    3  A    between atoms: C_3  and  C_5
REMARK    4  A    between atoms: C_3  and  C_6
REMARK    5  A    between atoms: C_10  and  C_19
REMARK    6  A    between atoms: N_21  and  C_22
REMARK    7  A    between atoms: C_22  and  C_23
REMARK    8  A    between atoms: C_23  and  N_29
REMARK                            x       y       z     vdW  Elec       q    Type
REMARK                         _______ _______ _______ _____ _____    ______ ____
ROOT
ATOM      1  C   UNL     1       0.898  -1.396  -0.984  0.00  0.00    +0.218 C 
ATOM      2  O   UNL     1       1.135  -0.207  -0.940  0.00  0.00    -0.275 OA
ATOM      3  N   UNL     1       1.288  -2.121  -2.051  0.00  0.00    -0.300 N 
ATOM      4  C   UNL     1       2.106  -1.674  -3.203  0.00  0.00    +0.121 C 
ATOM      5  C   UNL     1       3.037  -2.869  -3.508  0.00  0.00    +0.100 C 
ATOM      6  C   UNL     1       2.301  -4.095  -2.940  0.00  0.00    -0.004 C 
ATOM      7  C   UNL     1       1.000  -3.547  -2.335  0.00  0.00    +0.115 C 
ATOM      8  C   UNL     1       3.142  -4.759  -1.853  0.00  0.00    -0.010 C 
ATOM      9  C   UNL     1       2.415  -6.007  -1.344  0.00  0.00    -0.082 C 
ATOM     10  N   UNL     1       2.195  -6.936  -2.458  0.00  0.00    +0.379 N 
ATOM     11  C   UNL     1       1.310  -6.323  -3.455  0.00  0.00    -0.082 C 
ATOM     12  C   UNL     1       1.989  -5.089  -4.054  0.00  0.00    -0.010 C 
ATOM     13  H   UNL     1       3.080  -7.159  -2.888  0.00  0.00    -0.086 HD
ATOM     14  H   UNL     1       1.771  -7.783  -2.109  0.00  0.00    -0.086 HD
ENDROOT
BRANCH   5  15
ATOM     15  C   UNL     1       4.366  -2.688  -2.822  0.00  0.00    +0.218 C 
ATOM     16  O   UNL     1       4.442  -2.017  -1.814  0.00  0.00    -0.275 OA
ATOM     17  N   UNL     1       5.471  -3.271  -3.328  0.00  0.00    -0.313 N 
ATOM     18  H   UNL     1       5.425  -3.746  -4.172  0.00  0.00    +0.149 HD
BRANCH  17  19
ATOM     19  C   UNL     1       6.741  -3.186  -2.603  0.00  0.00    +0.126 C 
BRANCH  19  20
ATOM     20  C   UNL     1       7.857  -3.789  -3.458  0.00  0.00    +0.038 C 
ATOM     21  C   UNL     1       7.460  -5.201  -3.895  0.00  0.00    +0.024 C 
ATOM     22  C   UNL     1       7.237  -6.073  -2.658  0.00  0.00    +0.002 C 
ATOM     23  C   UNL     1       8.529  -6.137  -1.839  0.00  0.00    +0.000 C 
ATOM     24  C   UNL     1       8.926  -4.725  -1.403  0.00  0.00    +0.002 C 
ATOM     25  C   UNL     1       9.149  -3.853  -2.640  0.00  0.00    +0.024 C 
BRANCH  20  26
ATOM     26  N   UNL     1       8.071  -2.951  -4.646  0.00  0.00    -0.291 NA
ATOM     27  C   UNL     1       8.544  -1.612  -4.268  0.00  0.00    +0.113 C 
ATOM     28  C   UNL     1       8.810  -0.794  -5.535  0.00  0.00    +0.175 C 
ATOM     29  O   UNL     1       7.618  -0.745  -6.323  0.00  0.00    -0.377 OA
ATOM     30  C   UNL     1       7.130  -2.032  -6.710  0.00  0.00    +0.175 C 
ATOM     31  C   UNL     1       6.846  -2.862  -5.455  0.00  0.00    +0.113 C 
ENDBRANCH  20  26
ENDBRANCH  19  20
ENDBRANCH  17  19
ENDBRANCH   5  15
BRANCH   1  32
ATOM     32  C   UNL     1       0.170  -2.062   0.154  0.00  0.00    +0.072 C 
ATOM     33  C   UNL     1      -1.251  -2.419  -0.289  0.00  0.00    +0.017 C 
BRANCH  32  35
ATOM     34  C   UNL     1      -0.522  -1.826   2.543  0.00  0.00    +0.004 C 
ATOM     35  C   UNL     1       0.106  -1.107   1.348  0.00  0.00    +0.009 C 
ENDBRANCH  32  35
ENDBRANCH   1  32
TORSDOF 6
