REMARK  Name = ZINC39664000
REMARK  10 active torsions:
REMARK  status: ('A' for Active; 'I' for Inactive)
REMARK    1  A    between atoms: C_1  and  C_2
REMARK    2  A    between atoms: C_2  and  C_3
REMARK    3  A    between atoms: C_2  and  C_4
REMARK    4  A    between atoms: C_8  and  C_17
REMARK    5  A    between atoms: N_19  and  C_20
REMARK    6  A    between atoms: C_20  and  C_21
REMARK    7  A    between atoms: C_21  and  C_23
REMARK    8  A    between atoms: C_21  and  N_31
REMARK    9  A    between atoms: C_26  and  O_29
REMARK   10  A    between atoms: O_29  and  C_30
REMARK                            x       y       z     vdW  Elec       q    Type
REMARK                         _______ _______ _______ _____ _____    ______ ____
ROOT
ATOM      1  C   UNL     1      -0.740  -4.217   2.698  0.00  0.00    +0.218 C 
ATOM      2  O   UNL     1      -1.558  -4.025   3.572  0.00  0.00    -0.275 OA
ATOM      3  N   UNL     1       0.530  -4.531   3.021  0.00  0.00    -0.316 N 
ATOM      4  H   UNL     1       1.185  -4.685   2.321  0.00  0.00    +0.149 HD
ENDROOT
BRANCH   1   9
ATOM      5  C   UNL     1      -4.727  -3.822   1.689  0.00  0.00    +0.218 C 
ATOM      6  O   UNL     1      -5.576  -4.688   1.671  0.00  0.00    -0.275 OA
ATOM      7  N   UNL     1      -3.534  -4.036   1.100  0.00  0.00    -0.300 N 
ATOM      8  C   UNL     1      -2.348  -3.147   1.101  0.00  0.00    +0.121 C 
ATOM      9  C   UNL     1      -1.143  -4.103   1.250  0.00  0.00    +0.100 C 
ATOM     10  C   UNL     1      -1.649  -5.457   0.725  0.00  0.00    -0.004 C 
ATOM     11  C   UNL     1      -3.108  -5.217   0.311  0.00  0.00    +0.115 C 
ATOM     12  C   UNL     1      -1.587  -6.509   1.829  0.00  0.00    -0.010 C 
ATOM     13  C   UNL     1      -2.041  -7.859   1.267  0.00  0.00    -0.082 C 
ATOM     14  N   UNL     1      -1.172  -8.243   0.148  0.00  0.00    +0.379 N 
ATOM     15  C   UNL     1      -1.309  -7.275  -0.947  0.00  0.00    -0.082 C 
ATOM     16  C   UNL     1      -0.824  -5.900  -0.479  0.00  0.00    -0.010 C 
ATOM     17  H   UNL     1      -0.213  -8.262   0.461  0.00  0.00    -0.086 HD
ATOM     18  H   UNL     1      -1.435  -9.160  -0.180  0.00  0.00    -0.086 HD
BRANCH   5  20
ATOM     19  C   UNL     1      -5.710  -1.565   1.388  0.00  0.00    +0.017 C 
ATOM     20  C   UNL     1      -5.006  -2.506   2.369  0.00  0.00    +0.069 C 
ATOM     21  C   UNL     1      -5.905  -2.741   3.584  0.00  0.00    +0.017 C 
ENDBRANCH   5  20
ENDBRANCH   1   9
BRANCH   3  22
ATOM     22  C   UNL     1       0.923  -4.642   4.428  0.00  0.00    +0.093 C 
BRANCH  22  23
ATOM     23  C   UNL     1       2.432  -4.878   4.519  0.00  0.00    -0.020 C 
BRANCH  23  24
ATOM     24  C   UNL     1       3.162  -3.664   4.006  0.00  0.00    -0.059 A 
ATOM     25  C   UNL     1       3.325  -2.560   4.822  0.00  0.00    +0.005 A 
ATOM     26  C   UNL     1       3.994  -1.445   4.353  0.00  0.00    +0.046 A 
ATOM     27  C   UNL     1       4.503  -1.435   3.063  0.00  0.00    +0.120 A 
ATOM     28  C   UNL     1       4.338  -2.544   2.246  0.00  0.00    +0.046 A 
ATOM     29  C   UNL     1       3.673  -3.658   2.721  0.00  0.00    +0.005 A 
BRANCH  27  30
ATOM     30  O   UNL     1       5.161  -0.340   2.599  0.00  0.00    -0.495 OA
ATOM     31  C   UNL     1       5.658  -0.400   1.261  0.00  0.00    +0.277 C 
ENDBRANCH  27  30
ENDBRANCH  23  24
BRANCH  23  32
ATOM     32  N   UNL     1       2.805  -5.118   5.920  0.00  0.00    +0.385 N 
ATOM     33  C   UNL     1       2.206  -6.390   6.399  0.00  0.00    -0.078 C 
ATOM     34  C   UNL     1       3.105  -6.774   7.601  0.00  0.00    -0.020 C 
ATOM     35  C   UNL     1       4.514  -6.347   7.130  0.00  0.00    -0.020 C 
ATOM     36  C   UNL     1       4.269  -5.294   6.034  0.00  0.00    -0.078 C 
ATOM     37  H   UNL     1       2.501  -4.349   6.498  0.00  0.00    -0.081 HD
ENDBRANCH  23  32
ENDBRANCH  22  23
ENDBRANCH   3  22
TORSDOF 7
