REMARK  Name = ZINC36027142
REMARK  10 active torsions:
REMARK  status: ('A' for Active; 'I' for Inactive)
REMARK    1  A    between atoms: C_1  and  C_2
REMARK    2  A    between atoms: N_6  and  C_24
REMARK    3  A    between atoms: N_11  and  S_14
REMARK    4  A    between atoms: S_14  and  C_17
REMARK    5  A    between atoms: C_24  and  C_25
REMARK    6  A    between atoms: C_25  and  C_26
REMARK    7  A    between atoms: C_29  and  O_34
REMARK    8  A    between atoms: C_30  and  O_32
REMARK    9  A    between atoms: O_32  and  C_33
REMARK   10  A    between atoms: O_34  and  C_35
REMARK                            x       y       z     vdW  Elec       q    Type
REMARK                         _______ _______ _______ _____ _____    ______ ____
ROOT
ATOM      1  C   UNL     1      -0.249   1.679   0.038  0.00  0.00    -0.004 C 
ATOM      2  C   UNL     1      -0.195   0.154  -0.077  0.00  0.00    +0.016 C 
ATOM      3  C   UNL     1      -1.576  -0.438   0.103  0.00  0.00    +0.200 C 
ATOM      4  O   UNL     1      -2.596  -0.022  -0.404  0.00  0.00    -0.277 OA
ATOM      5  N   UNL     1      -1.481  -1.505   0.924  0.00  0.00    -0.313 N 
ATOM      6  C   UNL     1      -0.083  -1.691   1.323  0.00  0.00    +0.006 C 
ATOM      7  N   UNL     1       0.612  -0.419   1.027  0.00  0.00    +0.401 N 
ATOM      8  C   UNL     1       0.550  -2.823   0.515  0.00  0.00    +0.023 C 
ATOM      9  C   UNL     1      -0.200  -4.129   0.796  0.00  0.00    +0.109 C 
ATOM     10  N   UNL     1      -0.229  -4.354   2.248  0.00  0.00    -0.177 NA
ATOM     11  C   UNL     1      -0.752  -3.292   3.118  0.00  0.00    +0.109 C 
ATOM     12  C   UNL     1       0.003  -1.993   2.818  0.00  0.00    +0.023 C 
ATOM     13  H   UNL     1       1.560  -0.591   0.725  0.00  0.00    -0.082 HD
ATOM     14  H   UNL     1       0.598   0.190   1.832  0.00  0.00    -0.082 HD
ENDROOT
BRANCH  10  15
ATOM     15  S   UNL     1       0.316  -5.780   2.890  0.00  0.00    +0.061 S 
ATOM     16  O   UNL     1      -0.328  -5.930   4.148  0.00  0.00    -0.153 OA
ATOM     17  O   UNL     1       0.215  -6.754   1.861  0.00  0.00    -0.153 OA
BRANCH  15  18
ATOM     18  C   UNL     1       2.034  -5.577   3.225  0.00  0.00    +0.107 A 
ATOM     19  C   UNL     1       2.969  -5.888   2.255  0.00  0.00    +0.028 A 
ATOM     20  C   UNL     1       4.316  -5.729   2.516  0.00  0.00    +0.003 A 
ATOM     21  C   UNL     1       4.731  -5.259   3.749  0.00  0.00    +0.020 A 
ATOM     22  C   UNL     1       3.796  -4.948   4.720  0.00  0.00    +0.043 A 
ATOM     23  C   UNL     1       2.447  -5.101   4.455  0.00  0.00    +0.048 A 
ATOM     24 CL   UNL     1       4.316  -4.357   6.268  0.00  0.00    -0.083 Cl
ENDBRANCH  15  18
ENDBRANCH  10  15
BRANCH   5  25
ATOM     25  C   UNL     1      -2.601  -2.346   1.349  0.00  0.00    +0.110 C 
BRANCH  25  26
ATOM     26  C   UNL     1      -3.236  -1.753   2.609  0.00  0.00    +0.054 C 
BRANCH  26  27
ATOM     27  C   UNL     1      -4.375  -2.631   3.059  0.00  0.00    -0.042 A 
ATOM     28  C   UNL     1      -5.652  -2.402   2.581  0.00  0.00    +0.007 A 
ATOM     29  C   UNL     1      -6.701  -3.204   2.991  0.00  0.00    +0.049 A 
ATOM     30  C   UNL     1      -6.473  -4.240   3.882  0.00  0.00    +0.161 A 
ATOM     31  C   UNL     1      -5.187  -4.471   4.363  0.00  0.00    +0.162 A 
ATOM     32  C   UNL     1      -4.140  -3.666   3.944  0.00  0.00    +0.053 A 
BRANCH  31  33
ATOM     33  O   UNL     1      -4.959  -5.486   5.238  0.00  0.00    -0.491 OA
ATOM     34  C   UNL     1      -3.615  -5.663   5.689  0.00  0.00    +0.277 C 
ENDBRANCH  31  33
BRANCH  30  35
ATOM     35  O   UNL     1      -7.503  -5.030   4.287  0.00  0.00    -0.491 OA
ATOM     36  C   UNL     1      -8.795  -4.735   3.752  0.00  0.00    +0.277 C 
ENDBRANCH  30  35
ENDBRANCH  26  27
ENDBRANCH  25  26
ENDBRANCH   5  25
TORSDOF 7
