REMARK  Name = ZINC39676164
REMARK  4 active torsions:
REMARK  status: ('A' for Active; 'I' for Inactive)
REMARK    1  A    between atoms: C_11  and  C_13
REMARK    2  A    between atoms: C_13  and  N_14
REMARK    3  A    between atoms: C_15  and  C_17
REMARK    4  A    between atoms: C_28  and  C_30
REMARK                            x       y       z     vdW  Elec       q    Type
REMARK                         _______ _______ _______ _____ _____    ______ ____
ROOT
ATOM      1  C   UNL     1       8.709  -0.604   0.363  0.00  0.00    +0.100 C 
ATOM      2  C   UNL     1       8.533   0.035  -1.032  0.00  0.00    +0.121 C 
ATOM      3  N   UNL     1       9.913   0.199  -1.546  0.00  0.00    -0.296 N 
ATOM      4  C   UNL     1      10.617  -1.032  -1.111  0.00  0.00    +0.115 C 
ATOM      5  C   UNL     1      10.078  -1.304   0.307  0.00  0.00    -0.004 C 
ATOM      6  C   UNL     1       9.913  -2.804   0.529  0.00  0.00    -0.010 C 
ATOM      7  C   UNL     1      11.292  -3.470   0.527  0.00  0.00    -0.082 C 
ATOM      8  N   UNL     1      12.121  -2.886   1.589  0.00  0.00    +0.379 N 
ATOM      9  C   UNL     1      12.351  -1.462   1.317  0.00  0.00    -0.082 C 
ATOM     10  C   UNL     1      11.018  -0.711   1.353  0.00  0.00    -0.010 C 
ATOM     11  C   UNL     1      10.416   1.233  -2.249  0.00  0.00    +0.249 C 
ATOM     12  O   UNL     1      11.550   1.179  -2.683  0.00  0.00    -0.270 OA
ATOM     13  H   UNL     1      11.650  -2.986   2.475  0.00  0.00    -0.086 HD
ATOM     14  H   UNL     1      13.007  -3.368   1.625  0.00  0.00    -0.086 HD
ENDROOT
BRANCH  11  15
ATOM     15  C   UNL     1       9.588   2.432  -2.493  0.00  0.00    +0.072 A 
ATOM     16  C   UNL     1       8.212   2.305  -2.693  0.00  0.00    +0.016 A 
ATOM     17  C   UNL     1       7.445   3.429  -2.919  0.00  0.00    +0.001 A 
ATOM     18  C   UNL     1       8.036   4.681  -2.950  0.00  0.00    +0.003 A 
ATOM     19  C   UNL     1       9.397   4.816  -2.755  0.00  0.00    +0.039 A 
ATOM     20  C   UNL     1      10.178   3.699  -2.520  0.00  0.00    +0.135 A 
ATOM     21  F   UNL     1      11.508   3.832  -2.323  0.00  0.00    -0.205 F 
ENDBRANCH  11  15
BRANCH   1  23
ATOM     22  N   UNL     1       7.208  -1.851   1.883  0.00  0.00    -0.308 N 
ATOM     23  C   UNL     1       7.616  -1.609   0.622  0.00  0.00    +0.219 C 
ATOM     24  O   UNL     1       7.104  -2.199  -0.305  0.00  0.00    -0.275 OA
ATOM     25  H   UNL     1       7.618  -1.378   2.625  0.00  0.00    +0.149 HD
BRANCH  22  26
ATOM     26  C   UNL     1       6.145  -2.827   2.135  0.00  0.00    +0.178 C 
BRANCH  26  37
ATOM     27  C   UNL     1       5.962  -2.270   8.499  0.00  0.00    +0.001 A 
ATOM     28  C   UNL     1       6.925  -1.422   7.967  0.00  0.00    +0.002 A 
ATOM     29  C   UNL     1       7.146  -1.369   6.609  0.00  0.00    +0.028 A 
ATOM     30  C   UNL     1       6.394  -2.178   5.754  0.00  0.00    +0.078 A 
ATOM     31  C   UNL     1       5.417  -3.040   6.298  0.00  0.00    +0.065 A 
ATOM     32  C   UNL     1       5.208  -3.078   7.676  0.00  0.00    +0.015 A 
ATOM     33  C   UNL     1       4.642  -3.879   5.371  0.00  0.00    +0.259 A 
ATOM     34  O   UNL     1       3.785  -4.642   5.776  0.00  0.00    -0.267 OA
ATOM     35  N   UNL     1       4.920  -3.768   4.051  0.00  0.00    -0.309 N 
ATOM     36  H   UNL     1       4.429  -4.305   3.410  0.00  0.00    +0.170 HD
ATOM     37  C   UNL     1       5.879  -2.910   3.616  0.00  0.00    +0.128 A 
ATOM     38  N   UNL     1       6.579  -2.158   4.410  0.00  0.00    -0.232 NA
ENDBRANCH  26  37
ENDBRANCH  22  26
ENDBRANCH   1  23
TORSDOF 4
