REMARK  Name = ZINC12049054
REMARK  8 active torsions:
REMARK  status: ('A' for Active; 'I' for Inactive)
REMARK    1  A    between atoms: C_1  and  O_2
REMARK    2  A    between atoms: O_2  and  C_3
REMARK    3  A    between atoms: C_8  and  C_9
REMARK    4  A    between atoms: C_20  and  C_21
REMARK    5  A    between atoms: C_20  and  N_69
REMARK    6  A    between atoms: C_26  and  C_29
REMARK    7  A    between atoms: C_29  and  C_31
REMARK    8  A    between atoms: C_29  and  O_37
REMARK                            x       y       z     vdW  Elec       q    Type
REMARK                         _______ _______ _______ _____ _____    ______ ____
ROOT
ATOM      1  C   UNL     1      -0.401   8.927  -9.294  0.00  0.00    +0.191 C 
ATOM      2  C   UNL     1      -0.302   7.903  -8.184  0.00  0.00    -0.027 C 
ATOM      3  C   UNL     1       0.538   9.360  -6.423  0.00  0.00    -0.038 C 
ATOM      4  C   UNL     1       0.270  10.743  -6.985  0.00  0.00    -0.022 A 
ATOM      5  C   UNL     1      -0.062  11.782  -6.141  0.00  0.00    +0.005 A 
ATOM      6  C   UNL     1      -0.287  13.044  -6.665  0.00  0.00    +0.000 A 
ATOM      7  C   UNL     1      -0.176  13.260  -8.026  0.00  0.00    +0.004 A 
ATOM      8  C   UNL     1       0.151  12.217  -8.871  0.00  0.00    +0.046 A 
ATOM      9  C   UNL     1       0.367  10.950  -8.348  0.00  0.00    +0.123 A 
ATOM     10  O   UNL     1       0.640   9.905  -9.177  0.00  0.00    -0.486 OA
ATOM     11  N   UNL     1      -0.572   8.475  -6.847  0.00  0.00    +0.391 N 
ATOM     12  H   UNL     1      -1.436   9.028  -6.894  0.00  0.00    -0.080 HD
ENDROOT
BRANCH   1  18
ATOM     13  C   UNL     1      -1.393   7.641 -11.204  0.00  0.00    +0.127 A 
ATOM     14  C   UNL     1      -1.278   7.003 -12.431  0.00  0.00    +0.046 A 
ATOM     15  C   UNL     1      -0.054   6.948 -13.067  0.00  0.00    +0.004 A 
ATOM     16  C   UNL     1       1.056   7.531 -12.485  0.00  0.00    +0.001 A 
ATOM     17  C   UNL     1       0.944   8.172 -11.265  0.00  0.00    +0.011 A 
ATOM     18  C   UNL     1      -0.279   8.230 -10.624  0.00  0.00    +0.032 A 
BRANCH  13  20
ATOM     19  C   UNL     1      -3.699   7.064 -11.229  0.00  0.00    +0.277 C 
ATOM     20  O   UNL     1      -2.596   7.692 -10.573  0.00  0.00    -0.495 OA
ENDBRANCH  13  20
ENDBRANCH   1  18
BRANCH  11  21
ATOM     21  C   UNL     1      -0.753   7.391  -5.868  0.00  0.00    +0.019 C 
BRANCH  21  22
ATOM     22  C   UNL     1      -1.278   7.988  -4.588  0.00  0.00    +0.199 C 
ATOM     23  O   UNL     1      -1.453   9.185  -4.504  0.00  0.00    -0.278 OA
ATOM     24  N   UNL     1      -1.552   7.192  -3.535  0.00  0.00    -0.303 N 
ATOM     25  C   UNL     1      -2.064   7.759  -2.281  0.00  0.00    +0.108 C 
ATOM     26  C   UNL     1      -1.169   7.295  -1.128  0.00  0.00    +0.025 C 
ATOM     27  C   UNL     1      -1.083   5.767  -1.138  0.00  0.00    +0.027 C 
ATOM     28  C   UNL     1      -0.458   5.298  -2.454  0.00  0.00    +0.025 C 
ATOM     29  C   UNL     1      -1.346   5.740  -3.622  0.00  0.00    +0.108 C 
BRANCH  27  30
ATOM     30  C   UNL     1      -0.217   5.298   0.033  0.00  0.00    +0.166 C 
BRANCH  30  31
ATOM     31  C   UNL     1      -0.132   3.793   0.024  0.00  0.00    +0.070 A 
ATOM     32  C   UNL     1       1.107   3.179   0.009  0.00  0.00    +0.026 A 
ATOM     33  C   UNL     1       1.174   1.794   0.001  0.00  0.00    +0.003 A 
ATOM     34  C   UNL     1      -0.013   1.076   0.008  0.00  0.00    +0.020 A 
ATOM     35  C   UNL     1      -1.214   1.759   0.017  0.00  0.00    +0.111 A 
ATOM     36  N   UNL     1      -1.239   3.078   0.030  0.00  0.00    -0.257 NA
ENDBRANCH  30  31
BRANCH  30  37
ATOM     37  O   UNL     1      -0.800   5.734   1.262  0.00  0.00    -0.385 OA
ATOM     38  H   UNL     1      -1.694   5.397   1.415  0.00  0.00    +0.210 HD
ENDBRANCH  30  37
ENDBRANCH  27  30
ENDBRANCH  21  22
ENDBRANCH  11  21
TORSDOF 7
