REMARK  Name = ZINC17794989
REMARK  14 active torsions:
REMARK  status: ('A' for Active; 'I' for Inactive)
REMARK    1  A    between atoms: C_1  and  C_2
REMARK    2  A    between atoms: C_2  and  C_3
REMARK    3  A    between atoms: C_6  and  C_9
REMARK    4  A    between atoms: C_9  and  C_11
REMARK    5  A    between atoms: C_9  and  N_73
REMARK    6  A    between atoms: C_11  and  N_12
REMARK    7  A    between atoms: C_13  and  C_15
REMARK    8  A    between atoms: N_18  and  S_21
REMARK    9  A    between atoms: S_21  and  C_24
REMARK   10  A    between atoms: C_25  and  C_32
REMARK   11  A    between atoms: C_27  and  C_31
REMARK   12  A    between atoms: C_29  and  C_30
REMARK   13  A    between atoms: C_33  and  N_73
REMARK   14  A    between atoms: C_34  and  N_73
REMARK                            x       y       z     vdW  Elec       q    Type
REMARK                         _______ _______ _______ _____ _____    ______ ____
ROOT
ATOM      1  N   UNL     1      -4.521   6.404  -7.185  0.00  0.00    -0.316 N 
ATOM      2  C   UNL     1      -4.808   5.214  -6.622  0.00  0.00    +0.216 C 
ATOM      3  O   UNL     1      -5.873   4.678  -6.847  0.00  0.00    -0.276 OA
ATOM      4  H   UNL     1      -3.669   6.833  -7.005  0.00  0.00    +0.149 HD
ENDROOT
BRANCH   2   5
ATOM      5  C   UNL     1      -3.807   4.548  -5.714  0.00  0.00    +0.077 C 
ATOM      6  C   UNL     1      -4.377   3.220  -5.213  0.00  0.00    +0.030 C 
ATOM      7  C   UNL     1      -3.343   2.530  -4.317  0.00  0.00    +0.110 C 
ATOM      8  N   UNL     1      -2.948   3.458  -3.249  0.00  0.00    -0.177 NA
ATOM      9  C   UNL     1      -2.476   4.800  -3.618  0.00  0.00    +0.110 C 
ATOM     10  C   UNL     1      -3.514   5.462  -4.521  0.00  0.00    +0.030 C 
BRANCH   8  11
ATOM     11  S   UNL     1      -3.040   3.003  -1.659  0.00  0.00    +0.061 S 
ATOM     12  O   UNL     1      -4.009   1.966  -1.589  0.00  0.00    -0.153 OA
ATOM     13  O   UNL     1      -3.149   4.200  -0.900  0.00  0.00    -0.153 OA
BRANCH  11  14
ATOM     14  C   UNL     1      -1.492   2.276  -1.235  0.00  0.00    +0.111 A 
ATOM     15  C   UNL     1      -1.348   0.902  -1.247  0.00  0.00    -0.024 A 
ATOM     16  C   UNL     1      -0.135   0.331  -0.909  0.00  0.00    +0.008 A 
ATOM     17  C   UNL     1       0.937   1.136  -0.570  0.00  0.00    -0.050 A 
ATOM     18  C   UNL     1       0.793   2.511  -0.562  0.00  0.00    +0.008 A 
ATOM     19  C   UNL     1      -0.421   3.081  -0.894  0.00  0.00    -0.024 A 
ATOM     20  C   UNL     1      -0.577   4.580  -0.886  0.00  0.00    +0.046 C 
ATOM     21  C   UNL     1       2.261   0.514  -0.208  0.00  0.00    +0.044 C 
ATOM     22  C   UNL     1      -2.514   0.025  -1.623  0.00  0.00    +0.046 C 
ENDBRANCH  11  14
ENDBRANCH   8  11
ENDBRANCH   2   5
BRANCH   1  23
ATOM     23  C   UNL     1      -5.494   7.051  -8.068  0.00  0.00    +0.093 C 
BRANCH  23  24
ATOM     24  C   UNL     1      -4.878   8.319  -8.665  0.00  0.00    -0.021 C 
BRANCH  24  28
ATOM     25  C   UNL     1      -7.713  10.200 -11.248  0.00  0.00    -0.048 A 
ATOM     26  C   UNL     1      -7.183  10.897 -10.178  0.00  0.00    +0.004 A 
ATOM     27  C   UNL     1      -6.266  10.288  -9.342  0.00  0.00    +0.002 A 
ATOM     28  C   UNL     1      -5.878   8.982  -9.576  0.00  0.00    -0.059 A 
ATOM     29  C   UNL     1      -6.404   8.287 -10.649  0.00  0.00    +0.002 A 
ATOM     30  C   UNL     1      -7.325   8.894 -11.482  0.00  0.00    +0.004 A 
BRANCH  25  32
ATOM     31  C   UNL     1      -7.974  11.557 -13.307  0.00  0.00    +0.009 C 
ATOM     32  C   UNL     1      -8.712  10.864 -12.160  0.00  0.00    +0.032 C 
ENDBRANCH  25  32
ENDBRANCH  24  28
BRANCH  24  35
ATOM     33  C   UNL     1      -3.802   6.623 -10.017  0.00  0.00    -0.096 C 
ATOM     34  C   UNL     1      -3.399   8.968 -10.468  0.00  0.00    -0.096 C 
ATOM     35  N   UNL     1      -3.654   7.964  -9.414  0.00  0.00    +0.382 N 
ATOM     36  H   UNL     1      -2.858   7.952  -8.765  0.00  0.00    -0.082 HD
ENDBRANCH  24  35
ENDBRANCH  23  24
ENDBRANCH   1  23
TORSDOF 8
