REMARK  Name = ZINC40144286
REMARK  7 active torsions:
REMARK  status: ('A' for Active; 'I' for Inactive)
REMARK    1  A    between atoms: C_4  and  C_7
REMARK    2  A    between atoms: C_10  and  C_16
REMARK    3  A    between atoms: C_16  and  C_18
REMARK    4  A    between atoms: C_16  and  N_31
REMARK    5  A    between atoms: C_18  and  C_20
REMARK    6  A    between atoms: C_18  and  C_22
REMARK    7  A    between atoms: C_32  and  N_33
REMARK                            x       y       z     vdW  Elec       q    Type
REMARK                         _______ _______ _______ _____ _____    ______ ____
ROOT
ATOM      1  C   UNL     1       2.461  -5.499   0.323  0.00  0.00    +0.160 C 
ENDROOT
BRANCH   1   5
ATOM      2  C   UNL     1       3.665  -0.681  -0.591  0.00  0.00    +0.175 A 
ATOM      3  C   UNL     1       3.813  -2.031  -0.283  0.00  0.00    +0.049 A 
ATOM      4  C   UNL     1       2.928  -3.117  -0.143  0.00  0.00    +0.019 A 
ATOM      5  C   UNL     1       3.417  -4.344   0.175  0.00  0.00    -0.021 A 
ATOM      6  C   UNL     1       4.783  -4.562   0.369  0.00  0.00    +0.008 A 
ATOM      7  C   UNL     1       5.691  -3.562   0.251  0.00  0.00    +0.032 A 
ATOM      8  C   UNL     1       5.253  -2.259  -0.079  0.00  0.00    +0.114 A 
ATOM      9  N   UNL     1       5.855  -1.102  -0.265  0.00  0.00    -0.078 NA
ATOM     10  O   UNL     1       4.885  -0.124  -0.586  0.00  0.00    -0.353 OA
BRANCH   2  14
ATOM     11  C   UNL     1       0.009   1.311  -1.416  0.00  0.00    +0.000 A 
ATOM     12  C   UNL     1       0.933   1.891  -0.563  0.00  0.00    +0.001 A 
ATOM     13  C   UNL     1       2.123   1.250  -0.290  0.00  0.00    +0.011 A 
ATOM     14  C   UNL     1       2.395   0.011  -0.877  0.00  0.00    +0.021 A 
ATOM     15  C   UNL     1       1.458  -0.569  -1.736  0.00  0.00    +0.011 A 
ATOM     16  C   UNL     1       0.272   0.084  -2.000  0.00  0.00    +0.001 A 
ENDBRANCH   2  14
ENDBRANCH   1   5
BRANCH   1  17
ATOM     17  N   UNL     1       2.969  -6.652  -0.425  0.00  0.00    -0.261 N 
ATOM     18  C   UNL     1       2.394  -7.208  -1.538  0.00  0.00    +0.117 A 
ATOM     19  C   UNL     1       3.170  -8.260  -1.933  0.00  0.00    +0.114 A 
ATOM     20  C   UNL     1       4.251  -8.360  -1.046  0.00  0.00    +0.266 A 
ATOM     21  O   UNL     1       5.145  -9.187  -1.096  0.00  0.00    -0.266 OA
ATOM     22  N   UNL     1       4.131  -7.377  -0.131  0.00  0.00    -0.261 N 
ATOM     23  H   UNL     1       4.741  -7.204   0.603  0.00  0.00    +0.190 HD
BRANCH  18  24
ATOM     24  N   UNL     1       1.242  -6.782  -2.149  0.00  0.00    -0.343 N 
ATOM     25  H   UNL     1       0.757  -6.021  -1.793  0.00  0.00    +0.144 HD
ATOM     26  H   UNL     1       0.912  -7.242  -2.936  0.00  0.00    +0.144 HD
ENDBRANCH  18  24
ENDBRANCH   1  17
BRANCH   1  27
ATOM     27  C   UNL     1       2.330  -5.867   1.802  0.00  0.00    +0.176 C 
BRANCH  27  28
ATOM     28  C   UNL     1       1.374  -7.023   1.949  0.00  0.00    +0.099 A 
ATOM     29  N   UNL     1       0.123  -7.073   1.595  0.00  0.00    -0.243 NA
ATOM     30  C   UNL     1      -0.633  -8.174   1.782  0.00  0.00    +0.079 A 
ATOM     31  C   UNL     1      -1.988  -8.406   1.465  0.00  0.00    +0.029 A 
ATOM     32  C   UNL     1      -2.568  -9.606   1.742  0.00  0.00    +0.002 A 
ATOM     33  C   UNL     1      -1.856 -10.637   2.339  0.00  0.00    +0.001 A 
ATOM     34  C   UNL     1      -0.526 -10.448   2.664  0.00  0.00    +0.017 A 
ATOM     35  C   UNL     1       0.068  -9.240   2.389  0.00  0.00    +0.039 A 
ATOM     36  S   UNL     1       1.685  -8.542   2.602  0.00  0.00    -0.071 S 
ENDBRANCH  27  28
BRANCH  27  37
ATOM     37  C   UNL     1       1.820  -4.709   2.553  0.00  0.00    +0.075 C 
ATOM     38  N   UNL     1       1.426  -3.815   3.132  0.00  0.00    -0.196 NA
ENDBRANCH  27  37
ENDBRANCH   1  27
TORSDOF 7
