REMARK  Name = ZINC66740354
REMARK  5 active torsions:
REMARK  status: ('A' for Active; 'I' for Inactive)
REMARK    1  A    between atoms: C_1  and  C_2
REMARK    2  A    between atoms: C_4  and  C_10
REMARK    3  A    between atoms: C_6  and  C_9
REMARK    4  A    between atoms: C_7  and  O_8
REMARK    5  A    between atoms: C_14  and  C_22
REMARK                            x       y       z     vdW  Elec       q    Type
REMARK                         _______ _______ _______ _____ _____    ______ ____
ROOT
ATOM      1  C   UNL     1       0.028  -2.816  -2.516  0.00  0.00    +0.190 C 
ATOM      2  N   UNL     1      -0.621  -4.123  -2.324  0.00  0.00    -0.319 N 
ATOM      3  C   UNL     1      -2.023  -4.140  -2.343  0.00  0.00    +0.082 A 
ATOM      4  C   UNL     1      -2.956  -4.946  -1.829  0.00  0.00    +0.055 A 
ATOM      5  N   UNL     1      -4.167  -4.426  -2.186  0.00  0.00    -0.279 N 
ATOM      6  H   UNL     1      -5.027  -4.806  -1.947  0.00  0.00    +0.189 HD
ATOM      7  N   UNL     1      -4.004  -3.354  -2.889  0.00  0.00    -0.167 NA
ATOM      8  C   UNL     1      -2.736  -3.109  -3.037  0.00  0.00    +0.168 A 
ATOM      9  C   UNL     1      -1.983  -2.053  -3.741  0.00  0.00    +0.268 C 
ATOM     10  O   UNL     1      -2.536  -1.262  -4.481  0.00  0.00    -0.268 OA
ATOM     11  N   UNL     1      -0.650  -2.006  -3.522  0.00  0.00    -0.288 N 
ATOM     12  C   UNL     1      -2.719  -6.191  -1.012  0.00  0.00    +0.067 C 
ATOM     13  H   UNL     1      -0.104  -4.933  -2.192  0.00  0.00    +0.148 HD
ATOM     14  H   UNL     1      -0.117  -1.402  -4.062  0.00  0.00    +0.151 HD
ENDROOT
BRANCH   1  18
ATOM     15  C   UNL     1      -0.018   1.503   0.010  0.00  0.00    +0.047 C 
ATOM     16  C   UNL     1       0.002  -0.004   0.002  0.00  0.00    -0.008 A 
ATOM     17  C   UNL     1       0.006  -0.689  -1.198  0.00  0.00    +0.014 A 
ATOM     18  C   UNL     1       0.024  -2.071  -1.206  0.00  0.00    -0.009 A 
ATOM     19  C   UNL     1       0.040  -2.772  -0.014  0.00  0.00    +0.014 A 
ATOM     20  C   UNL     1       0.036  -2.092   1.188  0.00  0.00    -0.008 A 
ATOM     21  C   UNL     1       0.023  -0.705   1.199  0.00  0.00    +0.123 A 
ATOM     22  C   UNL     1       0.052  -2.856   2.487  0.00  0.00    +0.047 C 
BRANCH  21  23
ATOM     23  O   UNL     1       0.025  -0.033   2.381  0.00  0.00    -0.506 OA
ATOM     24  H   UNL     1      -0.857   0.149   2.731  0.00  0.00    +0.292 HD
ENDBRANCH  21  23
ENDBRANCH   1  18
TORSDOF 2
