REMARK  Name = ZINC06108327
REMARK  8 active torsions:
REMARK  status: ('A' for Active; 'I' for Inactive)
REMARK    1  A    between atoms: C_1  and  C_2
REMARK    2  A    between atoms: C_2  and  C_3
REMARK    3  A    between atoms: C_2  and  C_4
REMARK    4  A    between atoms: C_4  and  N_5
REMARK    5  A    between atoms: C_9  and  C_11
REMARK    6  A    between atoms: C_11  and  N_12
REMARK    7  A    between atoms: C_15  and  C_19
REMARK    8  A    between atoms: C_15  and  C_20
REMARK                            x       y       z     vdW  Elec       q    Type
REMARK                         _______ _______ _______ _____ _____    ______ ____
ROOT
ATOM      1  N   UNL     1      -1.083   3.523   0.026  0.00  0.00    -0.215 N 
ATOM      2  C   UNL     1      -0.955   4.264   1.145  0.00  0.00    +0.251 C 
ATOM      3  O   UNL     1      -1.021   3.876   2.292  0.00  0.00    -0.272 OA
ATOM      4  C   UNL     1      -0.710   5.683   0.670  0.00  0.00    +0.135 C 
ATOM      5  N   UNL     1      -0.738   5.567  -0.798  0.00  0.00    -0.281 N 
ATOM      6  C   UNL     1      -0.962   4.270  -1.077  0.00  0.00    +0.310 C 
ATOM      7  O   UNL     1      -1.044   3.826  -2.206  0.00  0.00    -0.252 OA
ATOM      8  C   UNL     1       0.656   6.185   1.145  0.00  0.00    +0.047 C 
ATOM      9  H   UNL     1      -0.589   6.459  -1.423  0.00  0.00    +0.152 HD
ENDROOT
BRANCH   4  10
ATOM     10  C   UNL     1      -1.806   6.598   1.151  0.00  0.00    -0.015 A 
ATOM     11  C   UNL     1      -2.396   6.384   2.383  0.00  0.00    +0.006 A 
ATOM     12  C   UNL     1      -3.400   7.224   2.821  0.00  0.00    +0.004 A 
ATOM     13  C   UNL     1      -3.818   8.283   2.031  0.00  0.00    -0.044 A 
ATOM     14  C   UNL     1      -3.228   8.497   0.800  0.00  0.00    -0.044 A 
ATOM     15  C   UNL     1      -2.217   7.656   0.364  0.00  0.00    +0.010 A 
ATOM     16  C   UNL     1      -3.854   9.704   0.136  0.00  0.00    +0.036 C 
ATOM     17  C   UNL     1      -5.179   9.940   0.892  0.00  0.00    +0.009 C 
ATOM     18  C   UNL     1      -4.882   9.331   2.279  0.00  0.00    +0.036 C 
ENDBRANCH   4  10
BRANCH   1  19
ATOM     19  C   UNL     1      -1.331   2.079   0.020  0.00  0.00    +0.214 C 
BRANCH  19  24
ATOM     20  N   UNL     1       1.196  -2.010  -0.020  0.00  0.00    -0.299 N 
ATOM     21  C   UNL     1       1.178  -0.662  -0.013  0.00  0.00    +0.306 C 
ATOM     22  O   UNL     1       2.222  -0.040  -0.019  0.00  0.00    -0.252 OA
ATOM     23  N   UNL     1       0.002  -0.004   0.002  0.00  0.00    -0.239 N 
ATOM     24  C   UNL     1      -0.016   1.344   0.009  0.00  0.00    +0.238 C 
ATOM     25  O   UNL     1       1.025   1.964   0.003  0.00  0.00    -0.274 OA
ATOM     26  H   UNL     1       0.251  -2.572  -0.014  0.00  0.00    +0.150 HD
ATOM     27  H   UNL     1      -0.943  -0.567   0.008  0.00  0.00    +0.159 HD
BRANCH  20  28
ATOM     28  C   UNL     1       2.475  -2.725  -0.036  0.00  0.00    +0.108 C 
BRANCH  28  30
ATOM     29  C   UNL     1       3.545  -4.978  -0.184  0.00  0.00    +0.009 C 
ATOM     30  C   UNL     1       2.216  -4.233  -0.042  0.00  0.00    -0.000 C 
ATOM     31  C   UNL     1       1.541  -4.639   1.270  0.00  0.00    +0.009 C 
ENDBRANCH  28  30
ENDBRANCH  20  28
ENDBRANCH  19  24
ENDBRANCH   1  19
TORSDOF 5
