REMARK  Name = ZINC38937219
REMARK  7 active torsions:
REMARK  status: ('A' for Active; 'I' for Inactive)
REMARK    1  A    between atoms: C_4  and  C_7
REMARK    2  A    between atoms: C_7  and  N_8
REMARK    3  A    between atoms: C_16  and  S_18
REMARK    4  A    between atoms: S_18  and  C_19
REMARK    5  A    between atoms: C_19  and  C_20
REMARK    6  A    between atoms: N_22  and  N_23
REMARK    7  A    between atoms: C_24  and  C_25
REMARK                            x       y       z     vdW  Elec       q    Type
REMARK                         _______ _______ _______ _____ _____    ______ ____
ROOT
ATOM      1  S   UNL     1       4.481  -3.631   1.366  0.00  0.00    -0.110 S 
ENDROOT
BRANCH   1  10
ATOM      2  N   UNL     1       4.152  -0.952   1.338  0.00  0.00    -0.297 N 
ATOM      3  C   UNL     1       4.948  -0.103   2.119  0.00  0.00    +0.053 A 
ATOM      4  C   UNL     1       5.508   1.134   1.823  0.00  0.00    +0.025 A 
ATOM      5  C   UNL     1       6.269   1.795   2.768  0.00  0.00    +0.002 A 
ATOM      6  C   UNL     1       6.478   1.228   4.011  0.00  0.00    +0.002 A 
ATOM      7  C   UNL     1       5.925  -0.001   4.314  0.00  0.00    +0.025 A 
ATOM      8  C   UNL     1       5.157  -0.673   3.371  0.00  0.00    +0.050 A 
ATOM      9  N   UNL     1       4.504  -1.912   3.444  0.00  0.00    -0.316 N 
ATOM     10  C   UNL     1       3.836  -2.130   2.155  0.00  0.00    +0.220 C 
ATOM     11  H   UNL     1       4.493  -2.511   4.206  0.00  0.00    +0.149 HD
BRANCH   2  12
ATOM     12  C   UNL     1       3.711  -0.707  -0.038  0.00  0.00    +0.143 C 
BRANCH  12  16
ATOM     13  C   UNL     1      -0.017   1.378   0.010  0.00  0.00    +0.000 A 
ATOM     14  C   UNL     1       1.171   2.086   0.002  0.00  0.00    +0.000 A 
ATOM     15  C   UNL     1       2.377   1.411  -0.013  0.00  0.00    +0.005 A 
ATOM     16  C   UNL     1       2.396   0.029  -0.020  0.00  0.00    -0.030 A 
ATOM     17  C   UNL     1       1.208  -0.679  -0.012  0.00  0.00    +0.005 A 
ATOM     18  C   UNL     1       0.002  -0.004   0.002  0.00  0.00    +0.000 A 
ENDBRANCH  12  16
ENDBRANCH   2  12
ENDBRANCH   1  10
BRANCH   1  19
ATOM     19  C   UNL     1       6.269  -3.340   1.265  0.00  0.00    +0.170 C 
BRANCH  19  20
ATOM     20  C   UNL     1       6.935  -4.528   0.620  0.00  0.00    +0.242 C 
ATOM     21  O   UNL     1       6.269  -5.477   0.264  0.00  0.00    -0.273 OA
ATOM     22  N   UNL     1       8.270  -4.535   0.438  0.00  0.00    -0.206 N 
ATOM     23  H   UNL     1       8.803  -3.776   0.723  0.00  0.00    +0.177 HD
BRANCH  22  24
ATOM     24  N   UNL     1       8.890  -5.639  -0.162  0.00  0.00    -0.188 NA
ATOM     25  C   UNL     1      10.187  -5.646  -0.338  0.00  0.00    +0.136 C 
BRANCH  25  26
ATOM     26  C   UNL     1      10.807  -6.752  -0.938  0.00  0.00    +0.000 C 
ATOM     27  C   UNL     1      12.166  -6.920  -1.192  0.00  0.00    +0.004 A 
ATOM     28  C   UNL     1      13.291  -6.100  -0.950  0.00  0.00    +0.010 A 
ATOM     29  C   UNL     1      14.526  -6.529  -1.311  0.00  0.00    +0.001 A 
ATOM     30  C   UNL     1      14.721  -7.772  -1.922  0.00  0.00    +0.002 A 
ATOM     31  C   UNL     1      13.690  -8.609  -2.184  0.00  0.00    +0.026 A 
ATOM     32  C   UNL     1      12.366  -8.230  -1.835  0.00  0.00    +0.043 A 
ATOM     33  N   UNL     1      11.215  -8.852  -1.980  0.00  0.00    -0.380 N 
ATOM     34  C   UNL     1      10.140  -8.014  -1.440  0.00  0.00    +0.150 C 
ATOM     35  H   UNL     1      11.097  -9.729  -2.378  0.00  0.00    +0.160 HD
ENDBRANCH  25  26
ENDBRANCH  22  24
ENDBRANCH  19  20
ENDBRANCH   1  19
TORSDOF 7
