REMARK  Name = ZINC09725310
REMARK  7 active torsions:
REMARK  status: ('A' for Active; 'I' for Inactive)
REMARK    1  A    between atoms: C_2  and  C_3
REMARK    2  A    between atoms: C_3  and  N_4
REMARK    3  A    between atoms: C_8  and  S_28
REMARK    4  A    between atoms: N_13  and  C_14
REMARK    5  A    between atoms: C_14  and  C_16
REMARK    6  A    between atoms: C_19  and  C_22
REMARK    7  A    between atoms: S_28  and  N_31
REMARK                            x       y       z     vdW  Elec       q    Type
REMARK                         _______ _______ _______ _____ _____    ______ ____
ROOT
ATOM      1  N   UNL     1      -1.980   3.706  -1.100  0.00  0.00    -0.317 N 
ATOM      2  C   UNL     1      -1.381   3.956  -2.320  0.00  0.00    +0.058 A 
ATOM      3  C   UNL     1      -0.032   3.798  -2.676  0.00  0.00    +0.029 A 
ATOM      4  C   UNL     1       0.398   4.090  -3.949  0.00  0.00    +0.030 A 
ATOM      5  C   UNL     1      -0.482   4.543  -4.918  0.00  0.00    +0.106 A 
ATOM      6  C   UNL     1      -1.818   4.703  -4.595  0.00  0.00    +0.045 A 
ATOM      7  C   UNL     1      -2.249   4.411  -3.323  0.00  0.00    +0.041 A 
ATOM      8  S   UNL     1      -3.823   4.470  -2.503  0.00  0.00    -0.052 S 
ATOM      9  C   UNL     1      -3.315   3.914  -0.941  0.00  0.00    +0.167 A 
ATOM     10  N   UNL     1      -4.053   3.734   0.149  0.00  0.00    -0.152 NA
ENDROOT
BRANCH   5  11
ATOM     11  S   UNL     1       0.093   4.911  -6.542  0.00  0.00    +0.056 S 
ATOM     12  O   UNL     1       1.282   4.157  -6.732  0.00  0.00    -0.153 OA
ATOM     13  O   UNL     1      -1.029   4.795  -7.406  0.00  0.00    -0.153 OA
BRANCH  11  14
ATOM     14  N   UNL     1       0.537   6.506  -6.555  0.00  0.00    -0.204 NA
ATOM     15  H   UNL     1       1.245   6.808  -7.145  0.00  0.00    +0.144 HD
ATOM     16  H   UNL     1       0.089   7.139  -5.972  0.00  0.00    +0.144 HD
ENDBRANCH  11  14
ENDBRANCH   5  11
BRANCH  10  17
ATOM     17  C   UNL     1      -5.365   3.993   0.119  0.00  0.00    +0.269 C 
ATOM     18  O   UNL     1      -5.883   4.394  -0.909  0.00  0.00    -0.268 OA
BRANCH  17  19
ATOM     19  C   UNL     1      -6.187   3.792   1.333  0.00  0.00    +0.039 A 
ATOM     20  C   UNL     1      -5.595   3.327   2.509  0.00  0.00    +0.014 A 
ATOM     21  C   UNL     1      -6.359   3.146   3.639  0.00  0.00    +0.009 A 
ATOM     22  C   UNL     1      -7.727   3.416   3.608  0.00  0.00    -0.018 A 
ATOM     23  C   UNL     1      -8.320   3.876   2.432  0.00  0.00    +0.009 A 
ATOM     24  C   UNL     1      -7.556   4.063   1.302  0.00  0.00    +0.014 A 
BRANCH  22  25
ATOM     25  C   UNL     1      -8.551   3.214   4.824  0.00  0.00    -0.018 A 
ATOM     26  C   UNL     1      -9.917   3.489   4.797  0.00  0.00    +0.008 A 
ATOM     27  C   UNL     1     -10.680   3.294   5.931  0.00  0.00    +0.001 A 
ATOM     28  C   UNL     1     -10.089   2.838   7.095  0.00  0.00    +0.000 A 
ATOM     29  C   UNL     1      -8.732   2.569   7.129  0.00  0.00    +0.001 A 
ATOM     30  C   UNL     1      -7.961   2.755   6.000  0.00  0.00    +0.008 A 
ENDBRANCH  22  25
ENDBRANCH  17  19
ENDBRANCH  10  17
BRANCH   1  31
ATOM     31  C   UNL     1      -1.176   3.222   0.025  0.00  0.00    +0.151 C 
BRANCH  31  33
ATOM     32  C   UNL     1      -0.013   1.076   0.008  0.00  0.00    +0.005 C 
ATOM     33  C   UNL     1      -1.156   1.715   0.017  0.00  0.00    -0.013 C 
ENDBRANCH  31  33
ENDBRANCH   1  31
TORSDOF 7
