REMARK  Name = ZINC35746481
REMARK  16 active torsions:
REMARK  status: ('A' for Active; 'I' for Inactive)
REMARK    1  A    between atoms: C_1  and  C_2
REMARK    2  A    between atoms: C_2  and  O_3
REMARK    3  A    between atoms: O_3  and  C_4
REMARK    4  A    between atoms: C_4  and  C_5
REMARK    5  A    between atoms: C_5  and  C_7
REMARK    6  A    between atoms: C_5  and  O_33
REMARK    7  A    between atoms: C_7  and  N_8
REMARK    8  A    between atoms: N_8  and  C_9
REMARK    9  A    between atoms: N_8  and  C_29
REMARK   10  A    between atoms: C_9  and  C_10
REMARK   11  A    between atoms: C_16  and  C_21
REMARK   12  A    between atoms: C_23  and  C_28
REMARK   13  A    between atoms: C_26  and  C_27
REMARK   14  A    between atoms: C_29  and  C_30
REMARK   15  A    between atoms: C_30  and  C_31
REMARK   16  A    between atoms: C_30  and  C_32
REMARK                            x       y       z     vdW  Elec       q    Type
REMARK                         _______ _______ _______ _____ _____    ______ ____
ROOT
ATOM      1  C   UNL     1       2.864  -6.036   2.925  0.00  0.00    +0.094 A 
ATOM      2  N   UNL     1       3.072  -7.367   2.756  0.00  0.00    -0.312 N 
ATOM      3  H   UNL     1       2.768  -7.986   3.439  0.00  0.00    +0.170 HD
ATOM      4  C   UNL     1       3.691  -7.845   1.661  0.00  0.00    +0.260 A 
ATOM      5  O   UNL     1       3.870  -9.043   1.524  0.00  0.00    -0.267 OA
ATOM      6  C   UNL     1       4.136  -6.924   0.659  0.00  0.00    +0.080 A 
ATOM      7  C   UNL     1       4.822  -7.191  -0.600  0.00  0.00    +0.004 A 
ATOM      8  C   UNL     1       5.149  -6.147  -1.398  0.00  0.00    +0.056 A 
ATOM      9  S   UNL     1       4.547  -4.733  -0.494  0.00  0.00    -0.076 S 
ATOM     10  C   UNL     1       3.878  -5.569   0.920  0.00  0.00    +0.116 A 
ATOM     11  N   UNL     1       3.254  -5.173   2.026  0.00  0.00    -0.229 NA
ENDROOT
BRANCH   7  12
ATOM     12  C   UNL     1       5.157  -8.580  -0.998  0.00  0.00    -0.013 A 
ATOM     13  C   UNL     1       6.489  -8.976  -1.103  0.00  0.00    +0.012 A 
ATOM     14  C   UNL     1       6.794 -10.269  -1.474  0.00  0.00    -0.050 A 
ATOM     15  C   UNL     1       5.781 -11.173  -1.740  0.00  0.00    +0.003 A 
ATOM     16  C   UNL     1       4.457 -10.786  -1.637  0.00  0.00    +0.004 A 
ATOM     17  C   UNL     1       4.140  -9.496  -1.262  0.00  0.00    -0.043 A 
ATOM     18  C   UNL     1       2.697  -9.077  -1.145  0.00  0.00    +0.044 C 
ATOM     19  C   UNL     1       8.234 -10.699  -1.589  0.00  0.00    +0.044 C 
ENDBRANCH   7  12
BRANCH   1  20
ATOM     20  C   UNL     1       2.166  -5.547   4.168  0.00  0.00    -0.003 C 
BRANCH  20  21
ATOM     21  N   UNL     1       1.930  -4.101   4.061  0.00  0.00    +0.386 N 
ATOM     22  H   UNL     1       2.799  -3.634   3.848  0.00  0.00    -0.081 HD
BRANCH  21  23
ATOM     23  C   UNL     1       0.960  -3.841   2.989  0.00  0.00    -0.044 C 
BRANCH  23  24
ATOM     24  C   UNL     1       0.808  -2.332   2.793  0.00  0.00    +0.124 C 
BRANCH  24  25
ATOM     25  O   UNL     1       2.043  -1.785   2.325  0.00  0.00    -0.391 OA
ATOM     26  H   UNL     1       2.342  -2.154   1.483  0.00  0.00    +0.210 HD
ENDBRANCH  24  25
BRANCH  24  27
ATOM     27  C   UNL     1      -0.292  -2.058   1.765  0.00  0.00    +0.189 C 
BRANCH  27  28
ATOM     28  O   UNL     1      -0.514  -0.650   1.668  0.00  0.00    -0.378 OA
BRANCH  28  30
ATOM     29  C   UNL     1      -1.680   1.237   0.709  0.00  0.00    +0.034 C 
ATOM     30  C   UNL     1      -1.528  -0.285   0.730  0.00  0.00    +0.156 C 
ENDBRANCH  28  30
ENDBRANCH  27  28
ENDBRANCH  24  27
ENDBRANCH  23  24
ENDBRANCH  21  23
BRANCH  21  31
ATOM     31  C   UNL     1       1.400  -3.596   5.334  0.00  0.00    -0.075 C 
BRANCH  31  32
ATOM     32  C   UNL     1       2.461  -3.752   6.426  0.00  0.00    -0.034 C 
ATOM     33  C   UNL     1       3.686  -2.906   6.071  0.00  0.00    +0.005 C 
ATOM     34  C   UNL     1       1.887  -3.282   7.764  0.00  0.00    +0.005 C 
ENDBRANCH  31  32
ENDBRANCH  21  31
ENDBRANCH  20  21
ENDBRANCH   1  20
TORSDOF 11
