REMARK  Name = ZINC63350076
REMARK  9 active torsions:
REMARK  status: ('A' for Active; 'I' for Inactive)
REMARK    1  A    between atoms: C_1  and  O_2
REMARK    2  A    between atoms: O_2  and  C_3
REMARK    3  A    between atoms: C_6  and  C_18
REMARK    4  A    between atoms: C_8  and  C_9
REMARK    5  A    between atoms: C_9  and  O_10
REMARK    6  A    between atoms: O_10  and  C_11
REMARK    7  A    between atoms: C_31  and  C_34
REMARK    8  A    between atoms: C_34  and  O_36
REMARK    9  A    between atoms: O_36  and  C_37
REMARK                            x       y       z     vdW  Elec       q    Type
REMARK                         _______ _______ _______ _____ _____    ______ ____
ROOT
ATOM      1  C   UNL     1       2.463  -2.534  -4.447  0.00  0.00    +0.111 C 
ATOM      2  C   UNL     1       1.556  -2.534  -5.680  0.00  0.00    +0.128 C 
ATOM      3  C   UNL     1       2.407  -3.050  -6.835  0.00  0.00    -0.035 C 
ATOM      4  C   UNL     1       1.742  -4.066  -7.366  0.00  0.00    -0.001 A 
ATOM      5  C   UNL     1       2.009  -4.905  -8.546  0.00  0.00    +0.010 A 
ATOM      6  C   UNL     1       1.106  -5.889  -8.799  0.00  0.00    +0.001 A 
ATOM      7  C   UNL     1      -0.022  -6.120  -8.006  0.00  0.00    +0.002 A 
ATOM      8  C   UNL     1      -0.349  -5.395  -6.907  0.00  0.00    +0.026 A 
ATOM      9  C   UNL     1       0.522  -4.328  -6.542  0.00  0.00    +0.043 A 
ATOM     10  N   UNL     1       0.432  -3.461  -5.552  0.00  0.00    -0.376 N 
ATOM     11  C   UNL     1       3.772  -2.477  -7.130  0.00  0.00    +0.063 C 
ATOM     12  C   UNL     1       4.517  -2.426  -5.783  0.00  0.00    +0.168 C 
ATOM     13  N   UNL     1       3.682  -1.776  -4.769  0.00  0.00    -0.295 NA
ATOM     14  H   UNL     1       3.459  -0.829  -5.037  0.00  0.00    +0.123 HD
ATOM     15  H   UNL     1      -0.247  -3.437  -4.859  0.00  0.00    +0.160 HD
ENDROOT
BRANCH   1  19
ATOM     16  C   UNL     1       0.438  -0.682  -1.170  0.00  0.00    +0.126 A 
ATOM     17  C   UNL     1       1.030   0.099  -2.153  0.00  0.00    +0.046 A 
ATOM     18  C   UNL     1       1.683  -0.502  -3.211  0.00  0.00    +0.009 A 
ATOM     19  C   UNL     1       1.749  -1.881  -3.291  0.00  0.00    -0.028 A 
ATOM     20  C   UNL     1       1.160  -2.662  -2.314  0.00  0.00    +0.015 A 
ATOM     21  C   UNL     1       0.510  -2.065  -1.251  0.00  0.00    +0.032 A 
BRANCH  16  23
ATOM     22  C   UNL     1      -0.239   1.335  -0.111  0.00  0.00    +0.277 C 
ATOM     23  O   UNL     1      -0.205  -0.093  -0.128  0.00  0.00    -0.495 OA
ENDBRANCH  16  23
BRANCH  21  24
ATOM     24  C   UNL     1      -0.126  -2.916  -0.182  0.00  0.00    +0.268 C 
BRANCH  24  25
ATOM     25  O   UNL     1       0.082  -4.297  -0.486  0.00  0.00    -0.484 OA
BRANCH  25  26
ATOM     26  C   UNL     1      -0.433  -5.205   0.384  0.00  0.00    +0.156 A 
ATOM     27  C   UNL     1      -1.129  -4.777   1.505  0.00  0.00    +0.048 A 
ATOM     28  C   UNL     1      -1.651  -5.702   2.389  0.00  0.00    +0.004 A 
ATOM     29  C   UNL     1      -1.481  -7.054   2.158  0.00  0.00    +0.003 A 
ATOM     30  C   UNL     1      -0.788  -7.486   1.042  0.00  0.00    +0.042 A 
ATOM     31  C   UNL     1      -0.268  -6.565   0.150  0.00  0.00    +0.165 A 
ATOM     32  F   UNL     1       0.404  -6.986  -0.943  0.00  0.00    -0.202 F 
ENDBRANCH  25  26
ENDBRANCH  24  25
ENDBRANCH  21  24
ENDBRANCH   1  19
BRANCH  12  33
ATOM     33  C   UNL     1       4.839  -3.828  -5.337  0.00  0.00    +0.324 C 
ATOM     34  O   UNL     1       4.513  -4.201  -4.235  0.00  0.00    -0.249 OA
BRANCH  33  35
ATOM     35  O   UNL     1       5.487  -4.664  -6.164  0.00  0.00    -0.467 OA
ATOM     36  C   UNL     1       5.760  -5.978  -5.675  0.00  0.00    +0.280 C 
ENDBRANCH  33  35
ENDBRANCH  12  33
TORSDOF 7
