REMARK  Name = ZINC00348543
REMARK  7 active torsions:
REMARK  status: ('A' for Active; 'I' for Inactive)
REMARK    1  A    between atoms: C_1  and  C_2
REMARK    2  A    between atoms: C_2  and  C_4
REMARK    3  A    between atoms: C_2  and  C_10
REMARK    4  A    between atoms: C_11  and  C_20
REMARK    5  A    between atoms: C_12  and  N_19
REMARK    6  A    between atoms: C_14  and  N_18
REMARK    7  A    between atoms: C_15  and  C_16
REMARK                            x       y       z     vdW  Elec       q    Type
REMARK                         _______ _______ _______ _____ _____    ______ ____
ROOT
ATOM      1  C   UNL     1       2.508   4.824  -1.246  0.00  0.00    +0.087 C 
ATOM      2  C   UNL     1       2.416   3.963  -2.476  0.00  0.00    +0.095 C 
ATOM      3  C   UNL     1       3.512   3.696  -3.225  0.00  0.00    +0.200 C 
ATOM      4  O   UNL     1       4.724   4.185  -2.904  0.00  0.00    -0.427 OA
ATOM      5  C   UNL     1       4.822   5.235  -2.069  0.00  0.00    +0.200 C 
ATOM      6  C   UNL     1       3.801   5.592  -1.252  0.00  0.00    +0.095 C 
ENDROOT
BRANCH   5   7
ATOM      7  N   UNL     1       5.985   5.964  -2.044  0.00  0.00    -0.328 N 
ATOM      8  H   UNL     1       6.068   6.723  -1.446  0.00  0.00    +0.145 HD
ATOM      9  H   UNL     1       6.723   5.719  -2.623  0.00  0.00    +0.145 HD
ENDBRANCH   5   7
BRANCH   3  10
ATOM     10  N   UNL     1       3.384   2.905  -4.340  0.00  0.00    -0.328 N 
ATOM     11  H   UNL     1       4.161   2.706  -4.886  0.00  0.00    +0.145 HD
ATOM     12  H   UNL     1       2.516   2.546  -4.583  0.00  0.00    +0.145 HD
ENDBRANCH   3  10
BRANCH   1  14
ATOM     13  C   UNL     1       2.532   4.811   1.252  0.00  0.00    +0.013 C 
ATOM     14  C   UNL     1       2.451   3.937  -0.001  0.00  0.00    +0.029 C 
BRANCH  14  15
ATOM     15  C   UNL     1       1.156   3.165   0.008  0.00  0.00    -0.044 A 
ATOM     16  C   UNL     1       1.175   1.783   0.000  0.00  0.00    +0.004 A 
ATOM     17  C   UNL     1      -0.013   1.076   0.008  0.00  0.00    +0.000 A 
ATOM     18  C   UNL     1      -1.219   1.751   0.017  0.00  0.00    +0.000 A 
ATOM     19  C   UNL     1      -1.238   3.133   0.030  0.00  0.00    +0.000 A 
ATOM     20  C   UNL     1      -0.050   3.840   0.023  0.00  0.00    +0.004 A 
ENDBRANCH  14  15
ENDBRANCH   1  14
BRANCH   6  21
ATOM     21  C   UNL     1       3.956   6.719  -0.382  0.00  0.00    +0.100 C 
ATOM     22  N   UNL     1       4.079   7.613   0.309  0.00  0.00    -0.191 NA
ENDBRANCH   6  21
BRANCH   2  23
ATOM     23  C   UNL     1       1.149   3.418  -2.862  0.00  0.00    +0.100 C 
ATOM     24  N   UNL     1       0.143   2.986  -3.167  0.00  0.00    -0.191 NA
ENDBRANCH   2  23
TORSDOF 6
