REMARK  Name = ZINC05630400
REMARK  7 active torsions:
REMARK  status: ('A' for Active; 'I' for Inactive)
REMARK    1  A    between atoms: C_10  and  C_12
REMARK    2  A    between atoms: C_12  and  O_13
REMARK    3  A    between atoms: O_13  and  C_14
REMARK    4  A    between atoms: C_14  and  C_16
REMARK    5  A    between atoms: C_16  and  C_17
REMARK    6  A    between atoms: C_17  and  C_19
REMARK    7  A    between atoms: C_17  and  N_26
REMARK                            x       y       z     vdW  Elec       q    Type
REMARK                         _______ _______ _______ _____ _____    ______ ____
ROOT
ATOM      1  C   UNL     1      -0.644   1.712   7.322  0.00  0.00    +0.147 C 
ENDROOT
BRANCH   1   2
ATOM      2  C   UNL     1      -1.270   1.957   5.973  0.00  0.00    +0.310 C 
ATOM      3  O   UNL     1      -2.348   2.497   5.895  0.00  0.00    -0.251 OA
BRANCH   2   4
ATOM      4  O   UNL     1      -0.628   1.576   4.857  0.00  0.00    -0.455 OA
BRANCH   4   5
ATOM      5  C   UNL     1      -1.290   1.844   3.592  0.00  0.00    +0.328 C 
BRANCH   5  15
ATOM      6  C   UNL     1      -4.322   3.164  -0.384  0.00  0.00    +0.000 A 
ATOM      7  C   UNL     1      -4.189   3.167   0.992  0.00  0.00    +0.002 A 
ATOM      8  C   UNL     1      -3.063   2.631   1.581  0.00  0.00    +0.024 A 
ATOM      9  C   UNL     1      -2.051   2.080   0.793  0.00  0.00    +0.040 A 
ATOM     10  C   UNL     1      -2.195   2.083  -0.585  0.00  0.00    -0.024 A 
ATOM     11  C   UNL     1      -3.324   2.621  -1.171  0.00  0.00    +0.005 A 
ATOM     12  C   UNL     1      -0.973   1.435  -1.198  0.00  0.00    +0.056 C 
ATOM     13  C   UNL     1      -0.093   1.054   0.004  0.00  0.00    +0.118 C 
ATOM     14  N   UNL     1      -0.842   1.492   1.185  0.00  0.00    -0.268 N 
ATOM     15  C   UNL     1      -0.427   1.350   2.459  0.00  0.00    +0.258 C 
ATOM     16  O   UNL     1       0.640   0.824   2.695  0.00  0.00    -0.272 OA
ENDBRANCH   5  15
ENDBRANCH   4   5
ENDBRANCH   2   4
ENDBRANCH   1   2
BRANCH   1  17
ATOM     17  C   UNL     1      -1.574   2.238   8.418  0.00  0.00    +0.117 C 
BRANCH  17  18
ATOM     18  C   UNL     1      -1.008   1.884   9.769  0.00  0.00    -0.008 A 
ATOM     19  C   UNL     1       0.303   1.462   9.880  0.00  0.00    +0.007 A 
ATOM     20  C   UNL     1       0.824   1.141  11.120  0.00  0.00    +0.000 A 
ATOM     21  C   UNL     1       0.030   1.233  12.248  0.00  0.00    +0.001 A 
ATOM     22  C   UNL     1      -1.283   1.650  12.137  0.00  0.00    +0.020 A 
ATOM     23  C   UNL     1      -1.803   1.976  10.897  0.00  0.00    +0.046 A 
ATOM     24 CL   UNL     1      -3.452   2.499  10.757  0.00  0.00    -0.083 Cl
ENDBRANCH  17  18
BRANCH  17  25
ATOM     25  N   UNL     1      -1.690   3.694   8.303  0.00  0.00    -0.292 N 
ATOM     26  C   UNL     1      -0.608   4.473   8.497  0.00  0.00    +0.298 C 
ATOM     27  O   UNL     1       0.483   3.966   8.677  0.00  0.00    -0.253 OA
ATOM     28  N   UNL     1      -0.734   5.815   8.492  0.00  0.00    -0.313 N 
ATOM     29  H   UNL     1      -2.545   4.096   8.087  0.00  0.00    +0.151 HD
ATOM     30  H   UNL     1      -1.604   6.220   8.349  0.00  0.00    +0.146 HD
ATOM     31  H   UNL     1       0.045   6.376   8.633  0.00  0.00    +0.146 HD
ENDBRANCH  17  25
ENDBRANCH   1  17
TORSDOF 7
