REMARK  Name = ZINC39942413
REMARK  10 active torsions:
REMARK  status: ('A' for Active; 'I' for Inactive)
REMARK    1  A    between atoms: C_1  and  C_2
REMARK    2  A    between atoms: C_2  and  C_4
REMARK    3  A    between atoms: C_2  and  S_17
REMARK    4  A    between atoms: C_4  and  C_6
REMARK    5  A    between atoms: C_9  and  N_12
REMARK    6  A    between atoms: N_12  and  S_13
REMARK    7  A    between atoms: S_13  and  C_16
REMARK    8  A    between atoms: S_17  and  C_18
REMARK    9  A    between atoms: C_22  and  C_27
REMARK   10  A    between atoms: N_23  and  C_24
REMARK                            x       y       z     vdW  Elec       q    Type
REMARK                         _______ _______ _______ _____ _____    ______ ____
ROOT
ATOM      1  C   UNL     1       2.507  -0.157  -2.316  0.00  0.00    +0.237 C 
ATOM      2  N   UNL     1       2.597   1.299  -2.515  0.00  0.00    -0.237 N 
ATOM      3  N   UNL     1       3.076   1.835  -1.314  0.00  0.00    -0.169 NA
ATOM      4  C   UNL     1       3.283   0.899  -0.425  0.00  0.00    +0.147 C 
ATOM      5  N   UNL     1       2.969  -0.367  -0.934  0.00  0.00    -0.282 N 
ATOM      6  H   UNL     1       2.370   1.790  -3.320  0.00  0.00    +0.171 HD
ENDROOT
BRANCH   4   7
ATOM      7  C   UNL     1       3.763   1.133   0.873  0.00  0.00    +0.022 C 
ATOM      8  C   UNL     1       4.126   2.359   1.430  0.00  0.00    +0.006 A 
ATOM      9  C   UNL     1       4.132   3.674   0.918  0.00  0.00    +0.010 A 
ATOM     10  C   UNL     1       4.545   4.701   1.704  0.00  0.00    +0.001 A 
ATOM     11  C   UNL     1       4.969   4.492   3.018  0.00  0.00    +0.002 A 
ATOM     12  C   UNL     1       4.989   3.255   3.575  0.00  0.00    +0.026 A 
ATOM     13  C   UNL     1       4.571   2.133   2.814  0.00  0.00    +0.043 A 
ATOM     14  N   UNL     1       4.497   0.852   3.119  0.00  0.00    -0.380 N 
ATOM     15  C   UNL     1       3.988   0.108   1.962  0.00  0.00    +0.152 C 
ATOM     16  H   UNL     1       4.738   0.463   3.974  0.00  0.00    +0.160 HD
ENDBRANCH   4   7
BRANCH   5  17
ATOM     17  C   UNL     1       3.076  -1.648  -0.232  0.00  0.00    +0.078 C 
ATOM     18  C   UNL     1       2.730  -2.915  -1.016  0.00  0.00    +0.024 C 
ATOM     19  C   UNL     1       1.778  -2.401   0.066  0.00  0.00    +0.024 C 
ENDBRANCH   5  17
BRANCH   1  20
ATOM     20  S   UNL     1       0.792  -0.718  -2.505  0.00  0.00    -0.107 S 
BRANCH  20  22
ATOM     21  C   UNL     1      -0.072   1.741  -1.677  0.00  0.00    +0.027 C 
ATOM     22  C   UNL     1      -0.127   0.263  -1.287  0.00  0.00    +0.118 C 
BRANCH  22  23
ATOM     23  C   UNL     1      -1.562  -0.195  -1.253  0.00  0.00    +0.176 C 
ATOM     24  O   UNL     1      -2.050  -0.732  -2.225  0.00  0.00    -0.291 OA
BRANCH  23  25
ATOM     25  C   UNL     1      -2.369   0.009  -0.044  0.00  0.00    +0.019 A 
ATOM     26  C   UNL     1      -1.808   0.634   1.077  0.00  0.00    +0.013 A 
ATOM     27  C   UNL     1      -2.563   0.822   2.200  0.00  0.00    +0.025 A 
ATOM     28  C   UNL     1      -3.888   0.393   2.231  0.00  0.00    +0.048 A 
ATOM     29  C   UNL     1      -4.449  -0.229   1.118  0.00  0.00    +0.025 A 
ATOM     30  C   UNL     1      -3.703  -0.417  -0.010  0.00  0.00    +0.013 A 
BRANCH  28  31
ATOM     31  N   UNL     1      -4.651   0.586   3.375  0.00  0.00    -0.221 N 
ATOM     32  H   UNL     1      -4.859  -0.166   3.952  0.00  0.00    +0.173 HD
BRANCH  31  33
ATOM     33  S   UNL     1      -5.208   2.099   3.754  0.00  0.00    +0.040 S 
ATOM     34  O   UNL     1      -5.956   1.921   4.949  0.00  0.00    -0.155 OA
ATOM     35  O   UNL     1      -4.052   2.925   3.739  0.00  0.00    -0.155 OA
ATOM     36  C   UNL     1      -6.313   2.545   2.386  0.00  0.00    +0.218 C 
ENDBRANCH  31  33
ENDBRANCH  28  31
ENDBRANCH  23  25
ENDBRANCH  22  23
ENDBRANCH  20  22
ENDBRANCH   1  20
TORSDOF 8
