REMARK  Name = ZINC32944874
REMARK  9 active torsions:
REMARK  status: ('A' for Active; 'I' for Inactive)
REMARK    1  A    between atoms: C_1  and  C_2
REMARK    2  A    between atoms: C_2  and  C_4
REMARK    3  A    between atoms: C_2  and  N_22
REMARK    4  A    between atoms: N_6  and  C_7
REMARK    5  A    between atoms: C_7  and  C_8
REMARK    6  A    between atoms: C_8  and  N_9
REMARK    7  A    between atoms: C_12  and  C_15
REMARK    8  A    between atoms: C_15  and  C_16
REMARK    9  A    between atoms: C_30  and  C_33
REMARK                            x       y       z     vdW  Elec       q    Type
REMARK                         _______ _______ _______ _____ _____    ______ ____
ROOT
ATOM      1  C   UNL     1       1.597   3.362  -0.200  0.00  0.00    +0.236 C 
ATOM      2  O   UNL     1       0.673   4.139  -0.320  0.00  0.00    -0.274 OA
ATOM      3  N   UNL     1       1.371   2.034  -0.240  0.00  0.00    -0.315 N 
ATOM      4  H   UNL     1       2.209   1.330  -0.132  0.00  0.00    +0.149 HD
ENDROOT
BRANCH   1   6
ATOM      5  C   UNL     1       3.551   3.373   1.327  0.00  0.00    +0.041 C 
ATOM      6  C   UNL     1       2.998   3.883  -0.006  0.00  0.00    +0.173 C 
BRANCH   6   7
ATOM      7  N   UNL     1       2.978   5.348   0.002  0.00  0.00    -0.293 N 
ATOM      8  C   UNL     1       3.641   6.063  -0.974  0.00  0.00    +0.071 A 
ATOM      9  C   UNL     1       4.338   5.401  -1.980  0.00  0.00    +0.028 A 
ATOM     10  C   UNL     1       4.996   6.125  -2.950  0.00  0.00    +0.002 A 
ATOM     11  C   UNL     1       4.969   7.514  -2.932  0.00  0.00    +0.002 A 
ATOM     12  C   UNL     1       4.293   8.184  -1.956  0.00  0.00    +0.030 A 
ATOM     13  C   UNL     1       3.614   7.470  -0.956  0.00  0.00    +0.088 A 
ATOM     14  N   UNL     1       2.945   8.130   0.009  0.00  0.00    -0.236 NA
ATOM     15  C   UNL     1       2.309   7.486   0.946  0.00  0.00    +0.209 A 
ATOM     16  C   UNL     1       2.306   6.019   0.963  0.00  0.00    +0.283 A 
ATOM     17  O   UNL     1       1.708   5.415   1.834  0.00  0.00    -0.265 OA
BRANCH  15  18
ATOM     18  C   UNL     1       1.569   8.251   2.012  0.00  0.00    +0.439 C 
ATOM     19  F   UNL     1       1.711   9.624   1.785  0.00  0.00    -0.164 F 
ATOM     20  F   UNL     1       0.213   7.910   1.975  0.00  0.00    -0.164 F 
ATOM     21  F   UNL     1       2.096   7.930   3.268  0.00  0.00    -0.164 F 
ENDBRANCH  15  18
ENDBRANCH   6   7
ENDBRANCH   1   6
BRANCH   3  22
ATOM     22  C   UNL     1       0.009   1.529  -0.429  0.00  0.00    +0.086 C 
BRANCH  22  23
ATOM     23  C   UNL     1       0.030  -0.001  -0.438  0.00  0.00    -0.060 C 
BRANCH  23  24
ATOM     24  N   UNL     1      -1.336  -0.508  -0.627  0.00  0.00    +0.381 N 
ATOM     25  C   UNL     1      -2.186  -0.172   0.522  0.00  0.00    -0.078 C 
ATOM     26  C   UNL     1      -3.630  -0.585   0.228  0.00  0.00    -0.015 C 
ATOM     27  C   UNL     1      -3.679  -2.091  -0.043  0.00  0.00    -0.010 C 
ATOM     28  C   UNL     1      -2.748  -2.422  -1.213  0.00  0.00    -0.015 C 
ATOM     29  C   UNL     1      -1.330  -1.956  -0.877  0.00  0.00    -0.078 C 
ATOM     30  H   UNL     1      -1.761  -0.017  -1.515  0.00  0.00    -0.082 HD
BRANCH  27  31
ATOM     31  C   UNL     1      -5.110  -2.502  -0.397  0.00  0.00    +0.038 C 
BRANCH  31  32
ATOM     32  C   UNL     1      -6.003  -2.290   0.798  0.00  0.00    -0.047 A 
ATOM     33  C   UNL     1      -6.189  -3.311   1.712  0.00  0.00    +0.003 A 
ATOM     34  C   UNL     1      -7.005  -3.115   2.811  0.00  0.00    +0.000 A 
ATOM     35  C   UNL     1      -7.643  -1.901   2.990  0.00  0.00    +0.000 A 
ATOM     36  C   UNL     1      -7.462  -0.883   2.073  0.00  0.00    +0.000 A 
ATOM     37  C   UNL     1      -6.642  -1.077   0.977  0.00  0.00    +0.003 A 
ENDBRANCH  31  32
ENDBRANCH  27  31
ENDBRANCH  23  24
ENDBRANCH  22  23
ENDBRANCH   3  22
TORSDOF 8
