REMARK  Name = ZINC41273926
REMARK  7 active torsions:
REMARK  status: ('A' for Active; 'I' for Inactive)
REMARK    1  A    between atoms: N_10  and  C_11
REMARK    2  A    between atoms: C_11  and  C_12
REMARK    3  A    between atoms: C_12  and  N_13
REMARK    4  A    between atoms: C_14  and  C_16
REMARK    5  A    between atoms: N_19  and  C_22
REMARK    6  A    between atoms: C_22  and  C_23
REMARK    7  A    between atoms: C_26  and  C_28
REMARK                            x       y       z     vdW  Elec       q    Type
REMARK                         _______ _______ _______ _____ _____    ______ ____
ROOT
ATOM      1  C   UNL     1       8.682   2.687   1.303  0.00  0.00    +0.071 C 
ATOM      2  C   UNL     1       9.684   1.741   0.635  0.00  0.00    -0.006 C 
ATOM      3  C   UNL     1      10.996   2.488   0.387  0.00  0.00    -0.077 C 
ATOM      4  N   UNL     1      11.543   2.961   1.664  0.00  0.00    +0.386 N 
ATOM      5  C   UNL     1      10.620   3.924   2.276  0.00  0.00    -0.077 C 
ATOM      6  C   UNL     1       9.294   3.232   2.597  0.00  0.00    -0.006 C 
ATOM      7  H   UNL     1      11.669   2.176   2.286  0.00  0.00    -0.081 HD
ENDROOT
BRANCH   1   9
ATOM      8  N   UNL     1       6.702   1.366   0.629  0.00  0.00    -0.314 N 
ATOM      9  C   UNL     1       7.415   1.936   1.621  0.00  0.00    +0.216 C 
ATOM     10  O   UNL     1       7.037   1.845   2.770  0.00  0.00    -0.276 OA
ATOM     11  H   UNL     1       7.005   1.440  -0.289  0.00  0.00    +0.149 HD
BRANCH   8  12
ATOM     12  C   UNL     1       5.470   0.636   0.939  0.00  0.00    +0.123 C 
BRANCH  12  13
ATOM     13  C   UNL     1       4.861   0.093  -0.355  0.00  0.00    +0.124 C 
BRANCH  13  23
ATOM     14  C   UNL     1      -0.017   1.377   0.010  0.00  0.00    +0.000 A 
ATOM     15  C   UNL     1       1.170   2.088   0.002  0.00  0.00    +0.002 A 
ATOM     16  C   UNL     1       2.375   1.416  -0.015  0.00  0.00    +0.023 A 
ATOM     17  C   UNL     1       2.396   0.025  -0.024  0.00  0.00    +0.033 A 
ATOM     18  C   UNL     1       1.207  -0.687  -0.013  0.00  0.00    -0.026 A 
ATOM     19  C   UNL     1       0.002  -0.004   0.002  0.00  0.00    +0.005 A 
ATOM     20  C   UNL     1       1.192  -2.192  -0.011  0.00  0.00    +0.038 C 
ATOM     21  C   UNL     1       2.521  -2.742  -0.528  0.00  0.00    +0.024 C 
ATOM     22  C   UNL     1       3.667  -2.076   0.246  0.00  0.00    +0.105 C 
ATOM     23  N   UNL     1       3.629  -0.637  -0.046  0.00  0.00    -0.328 N 
ENDBRANCH  13  23
ENDBRANCH  12  13
ENDBRANCH   8  12
ENDBRANCH   1   9
BRANCH   4  24
ATOM     24  C   UNL     1      12.840   3.609   1.430  0.00  0.00    +0.021 C 
BRANCH  24  25
ATOM     25  C   UNL     1      13.460   3.985   2.751  0.00  0.00    +0.202 A 
ATOM     26  N   UNL     1      14.258   3.242   3.466  0.00  0.00    -0.114 NA
ATOM     27  N   UNL     1      14.596   3.877   4.533  0.00  0.00    -0.107 NA
ATOM     28  C   UNL     1      14.022   5.057   4.534  0.00  0.00    +0.248 A 
ATOM     29  O   UNL     1      13.296   5.149   3.402  0.00  0.00    -0.422 OA
BRANCH  28  30
ATOM     30  C   UNL     1      14.151   6.094   5.580  0.00  0.00    +0.039 A 
ATOM     31  C   UNL     1      13.473   7.307   5.451  0.00  0.00    +0.014 A 
ATOM     32  C   UNL     1      13.598   8.271   6.430  0.00  0.00    +0.021 A 
ATOM     33  C   UNL     1      14.393   8.037   7.539  0.00  0.00    +0.041 A 
ATOM     34  C   UNL     1      15.069   6.835   7.672  0.00  0.00    +0.021 A 
ATOM     35  C   UNL     1      14.948   5.862   6.702  0.00  0.00    +0.014 A 
ATOM     36 CL   UNL     1      14.545   9.254   8.767  0.00  0.00    -0.084 Cl
ENDBRANCH  28  30
ENDBRANCH  24  25
ENDBRANCH   4  24
TORSDOF 7
