REMARK  Name = ZINC27532847
REMARK  8 active torsions:
REMARK  status: ('A' for Active; 'I' for Inactive)
REMARK    1  A    between atoms: C_1  and  C_2
REMARK    2  A    between atoms: C_2  and  C_3
REMARK    3  A    between atoms: C_2  and  C_4
REMARK    4  A    between atoms: C_8  and  C_32
REMARK    5  A    between atoms: N_21  and  C_24
REMARK    6  A    between atoms: C_24  and  C_25
REMARK    7  A    between atoms: C_32  and  C_33
REMARK    8  A    between atoms: C_32  and  C_34
REMARK                            x       y       z     vdW  Elec       q    Type
REMARK                         _______ _______ _______ _____ _____    ______ ____
ROOT
ATOM      1  C   UNL     1       0.718  -0.497  -1.257  0.00  0.00    +0.030 C 
ATOM      2  C   UNL     1       0.027   0.014  -2.530  0.00  0.00    -0.059 C 
ATOM      3  N   UNL     1       0.787  -0.492  -3.709  0.00  0.00    +0.402 N 
ATOM      4  C   UNL     1       2.164   0.021  -3.753  0.00  0.00    -0.059 C 
ATOM      5  C   UNL     1       2.936  -0.489  -2.526  0.00  0.00    +0.030 C 
ATOM      6  C   UNL     1       2.166  -0.018  -1.298  0.00  0.00    +0.145 C 
ATOM      7  O   UNL     1       2.661   0.658  -0.428  0.00  0.00    -0.296 OA
ATOM      8  C   UNL     1       2.877  -2.025  -2.520  0.00  0.00    +0.096 C 
ATOM      9  N   UNL     1       1.472  -2.458  -2.525  0.00  0.00    -0.299 NA
ATOM     10  C   UNL     1       0.764  -2.033  -1.309  0.00  0.00    +0.096 C 
ATOM     11  C   UNL     1       0.784  -1.958  -3.720  0.00  0.00    +0.095 C 
ATOM     12  C   UNL     1       1.405  -2.494  -4.970  0.00  0.00    -0.013 A 
ATOM     13  C   UNL     1       2.675  -2.365  -5.489  0.00  0.00    +0.021 A 
ATOM     14  C   UNL     1       2.932  -3.004  -6.698  0.00  0.00    +0.018 A 
ATOM     15  C   UNL     1       1.955  -3.734  -7.347  0.00  0.00    +0.017 A 
ATOM     16  C   UNL     1       0.676  -3.869  -6.830  0.00  0.00    +0.025 A 
ATOM     17  C   UNL     1       0.406  -3.232  -5.617  0.00  0.00    +0.040 A 
ATOM     18  N   UNL     1      -0.767  -3.200  -4.885  0.00  0.00    -0.267 N 
ATOM     19  C   UNL     1      -0.639  -2.474  -3.755  0.00  0.00    +0.228 C 
ATOM     20  O   UNL     1      -1.499  -2.274  -2.924  0.00  0.00    -0.275 OA
ATOM     21 BR   UNL     1       4.653  -2.871  -7.469  0.00  0.00    -0.050 Br
ATOM     22  H   UNL     1       0.290  -0.128  -4.620  0.00  0.00    -0.078 HD
ENDROOT
BRANCH   1  24
ATOM     23  C   UNL     1      -0.019   1.526   0.010  0.00  0.00    +0.008 C 
ATOM     24  C   UNL     1       0.002  -0.004   0.002  0.00  0.00    -0.004 C 
ATOM     25  C   UNL     1       0.742  -0.511   1.242  0.00  0.00    +0.008 C 
ENDBRANCH   1  24
BRANCH   5  26
ATOM     26  C   UNL     1       4.382   0.012  -2.530  0.00  0.00    -0.004 C 
ATOM     27  C   UNL     1       4.391   1.542  -2.536  0.00  0.00    +0.008 C 
ATOM     28  C   UNL     1       5.102  -0.498  -1.280  0.00  0.00    +0.008 C 
ENDBRANCH   5  26
BRANCH  18  29
ATOM     29  C   UNL     1      -2.004  -3.874  -5.290  0.00  0.00    +0.148 C 
BRANCH  29  30
ATOM     30  C   UNL     1      -2.022  -5.271  -4.726  0.00  0.00    -0.030 A 
ATOM     31  C   UNL     1      -1.492  -6.318  -5.456  0.00  0.00    +0.005 A 
ATOM     32  C   UNL     1      -1.505  -7.599  -4.937  0.00  0.00    +0.000 A 
ATOM     33  C   UNL     1      -2.057  -7.835  -3.692  0.00  0.00    +0.000 A 
ATOM     34  C   UNL     1      -2.591  -6.789  -2.963  0.00  0.00    +0.000 A 
ATOM     35  C   UNL     1      -2.574  -5.507  -3.481  0.00  0.00    +0.005 A 
ENDBRANCH  29  30
ENDBRANCH  18  29
TORSDOF 4
