REMARK  Name = ZINC58615228
REMARK  6 active torsions:
REMARK  status: ('A' for Active; 'I' for Inactive)
REMARK    1  A    between atoms: C_1  and  C_2
REMARK    2  A    between atoms: C_6  and  C_9
REMARK    3  A    between atoms: C_7  and  N_8
REMARK    4  A    between atoms: C_9  and  O_11
REMARK    5  A    between atoms: O_11  and  C_12
REMARK    6  A    between atoms: C_12  and  C_13
REMARK                            x       y       z     vdW  Elec       q    Type
REMARK                         _______ _______ _______ _____ _____    ______ ____
ROOT
ATOM      1  O   UNL     1      -0.106  -4.477   2.082  0.00  0.00    -0.456 OA
ENDROOT
BRANCH   1   2
ATOM      2  C   UNL     1      -0.000  -3.145   2.259  0.00  0.00    +0.341 C 
ATOM      3  O   UNL     1       0.087  -2.686   3.381  0.00  0.00    -0.245 OA
BRANCH   2   9
ATOM      4  C   UNL     1      -0.009   1.480   0.352  0.00  0.00    +0.045 C 
ATOM      5  C   UNL     1       0.006  -0.015   0.166  0.00  0.00    -0.029 A 
ATOM      6  C   UNL     1       0.031  -0.552  -1.105  0.00  0.00    +0.005 A 
ATOM      7  C   UNL     1       0.045  -1.925  -1.288  0.00  0.00    +0.001 A 
ATOM      8  C   UNL     1       0.035  -2.772  -0.201  0.00  0.00    +0.017 A 
ATOM      9  C   UNL     1       0.011  -2.245   1.093  0.00  0.00    +0.080 A 
ATOM     10  C   UNL     1       0.002  -0.853   1.274  0.00  0.00    +0.042 A 
BRANCH  10  11
ATOM     11  N   UNL     1      -0.016  -0.316   2.554  0.00  0.00    -0.357 N 
ATOM     12  H   UNL     1      -0.109   0.642   2.677  0.00  0.00    +0.142 HD
ATOM     13  H   UNL     1       0.063  -0.898   3.326  0.00  0.00    +0.142 HD
ENDBRANCH  10  11
ENDBRANCH   2   9
ENDBRANCH   1   2
BRANCH   1  14
ATOM     14  C   UNL     1      -0.111  -5.289   3.258  0.00  0.00    +0.271 C 
BRANCH  14  15
ATOM     15  C   UNL     1      -0.236  -6.739   2.866  0.00  0.00    +0.035 A 
ATOM     16  C   UNL     1      -0.319  -7.089   1.532  0.00  0.00    +0.049 A 
ATOM     17  C   UNL     1      -0.434  -8.421   1.172  0.00  0.00    +0.124 A 
ATOM     18  C   UNL     1      -0.468  -9.402   2.148  0.00  0.00    +0.047 A 
ATOM     19  C   UNL     1      -0.386  -9.055   3.483  0.00  0.00    +0.023 A 
ATOM     20  C   UNL     1      -0.262  -7.722   3.845  0.00  0.00    +0.135 A 
ATOM     21  O   UNL     1      -0.165  -7.368   5.155  0.00  0.00    -0.465 OA
ATOM     22  C   UNL     1      -0.554  -8.350   6.120  0.00  0.00    +0.394 C 
ATOM     23  O   UNL     1       0.060  -9.598   5.776  0.00  0.00    -0.339 OA
ATOM     24  C   UNL     1      -0.427 -10.132   4.537  0.00  0.00    +0.202 C 
ATOM     25  F   UNL     1      -0.515  -8.762  -0.133  0.00  0.00    -0.205 F 
ENDBRANCH  14  15
ENDBRANCH   1  14
TORSDOF 5
