REMARK  Name = ZINC22473180
REMARK  14 active torsions:
REMARK  status: ('A' for Active; 'I' for Inactive)
REMARK    1  A    between atoms: C_1  and  C_2
REMARK    2  A    between atoms: C_2  and  C_3
REMARK    3  A    between atoms: C_2  and  C_4
REMARK    4  A    between atoms: C_2  and  C_5
REMARK    5  A    between atoms: C_8  and  O_11
REMARK    6  A    between atoms: O_11  and  C_12
REMARK    7  A    between atoms: C_12  and  C_13
REMARK    8  A    between atoms: N_15  and  C_16
REMARK    9  A    between atoms: N_15  and  C_31
REMARK   10  A    between atoms: C_16  and  C_17
REMARK   11  A    between atoms: C_17  and  C_18
REMARK   12  A    between atoms: C_18  and  N_19
REMARK   13  A    between atoms: C_22  and  O_23
REMARK   14  A    between atoms: C_31  and  C_32
REMARK                            x       y       z     vdW  Elec       q    Type
REMARK                         _______ _______ _______ _____ _____    ______ ____
ROOT
ATOM      1  C   UNL     1      -6.618   2.958  -1.049  0.00  0.00    +0.253 C 
ATOM      2  O   UNL     1      -6.147   2.744  -2.146  0.00  0.00    -0.272 OA
ATOM      3  N   UNL     1      -5.940   2.597   0.058  0.00  0.00    -0.294 N 
ENDROOT
BRANCH   1   4
ATOM      4  C   UNL     1      -7.963   3.627  -0.924  0.00  0.00    +0.324 C 
BRANCH   4   5
ATOM      5  O   UNL     1      -8.521   3.821  -2.225  0.00  0.00    -0.483 OA
BRANCH   5   9
ATOM      6  C   UNL     1     -12.223   5.632  -2.424  0.00  0.00    -0.042 A 
ATOM      7  C   UNL     1     -11.581   5.244  -3.586  0.00  0.00    +0.008 A 
ATOM      8  C   UNL     1     -10.341   4.637  -3.522  0.00  0.00    +0.046 A 
ATOM      9  C   UNL     1      -9.740   4.418  -2.291  0.00  0.00    +0.121 A 
ATOM     10  C   UNL     1     -10.389   4.803  -1.127  0.00  0.00    +0.046 A 
ATOM     11  C   UNL     1     -11.625   5.415  -1.196  0.00  0.00    +0.008 A 
BRANCH   6  13
ATOM     12  C   UNL     1     -14.570   5.346  -3.171  0.00  0.00    +0.015 C 
ATOM     13  C   UNL     1     -13.575   6.293  -2.497  0.00  0.00    -0.013 C 
ATOM     14  C   UNL     1     -14.059   6.619  -1.083  0.00  0.00    +0.015 C 
ATOM     15  C   UNL     1     -13.468   7.584  -3.310  0.00  0.00    +0.015 C 
ENDBRANCH   6  13
ENDBRANCH   5   9
ENDBRANCH   4   5
ENDBRANCH   1   4
BRANCH   3  16
ATOM     16  C   UNL     1      -4.686   1.847  -0.063  0.00  0.00    +0.110 C 
BRANCH  16  17
ATOM     17  C   UNL     1      -3.514   2.826  -0.152  0.00  0.00    +0.040 C 
BRANCH  17  18
ATOM     18  C   UNL     1      -2.205   2.043  -0.278  0.00  0.00    +0.114 C 
BRANCH  18  19
ATOM     19  N   UNL     1      -1.082   2.980  -0.364  0.00  0.00    -0.384 N 
ATOM     20  C   UNL     1       0.205   2.504  -0.484  0.00  0.00    +0.053 A 
ATOM     21  C   UNL     1       0.459   1.157  -0.525  0.00  0.00    +0.113 A 
ATOM     22  C   UNL     1       1.777   0.703  -0.653  0.00  0.00    +0.286 A 
ATOM     23  O   UNL     1       2.815   1.552  -0.738  0.00  0.00    -0.425 OA
ATOM     24  C   UNL     1       2.642   2.891  -0.704  0.00  0.00    +0.141 A 
ATOM     25  C   UNL     1       1.349   3.425  -0.578  0.00  0.00    +0.041 A 
ATOM     26  C   UNL     1       1.166   4.808  -0.543  0.00  0.00    +0.013 A 
ATOM     27  C   UNL     1       2.258   5.643  -0.634  0.00  0.00    +0.001 A 
ATOM     28  C   UNL     1       3.534   5.114  -0.760  0.00  0.00    +0.004 A 
ATOM     29  C   UNL     1       3.729   3.749  -0.794  0.00  0.00    +0.047 A 
ATOM     30  H   UNL     1      -1.266   4.064  -0.333  0.00  0.00    +0.160 HD
BRANCH  22  31
ATOM     31  O   UNL     1       1.990  -0.497  -0.688  0.00  0.00    -0.480 OA
ATOM     32  H   UNL     1       3.019  -0.870  -0.789  0.00  0.00    +0.295 HD
ENDBRANCH  22  31
ENDBRANCH  18  19
ENDBRANCH  17  18
ENDBRANCH  16  17
ENDBRANCH   3  16
BRANCH   3  33
ATOM     33  C   UNL     1      -6.455   2.954   1.382  0.00  0.00    +0.143 C 
BRANCH  33  34
ATOM     34  C   UNL     1      -7.239   1.796   1.945  0.00  0.00    -0.030 A 
ATOM     35  C   UNL     1      -8.615   1.765   1.815  0.00  0.00    +0.005 A 
ATOM     36  C   UNL     1      -9.333   0.701   2.327  0.00  0.00    +0.000 A 
ATOM     37  C   UNL     1      -8.677  -0.327   2.978  0.00  0.00    +0.000 A 
ATOM     38  C   UNL     1      -7.301  -0.293   3.112  0.00  0.00    +0.000 A 
ATOM     39  C   UNL     1      -6.582   0.769   2.596  0.00  0.00    +0.005 A 
ENDBRANCH  33  34
ENDBRANCH   3  33
TORSDOF 11
