REMARK  Name = ZINC61326003
REMARK  4 active torsions:
REMARK  status: ('A' for Active; 'I' for Inactive)
REMARK    1  A    between atoms: C_1  and  C_2
REMARK    2  A    between atoms: C_2  and  C_22
REMARK    3  A    between atoms: C_7  and  N_11
REMARK    4  A    between atoms: N_11  and  C_12
REMARK                            x       y       z     vdW  Elec       q    Type
REMARK                         _______ _______ _______ _____ _____    ______ ____
ROOT
ATOM      1  C   UNL     1      -0.019   1.526   0.010  0.00  0.00    +0.104 C 
ATOM      2  C   UNL     1       0.002  -0.004   0.002  0.00  0.00    +0.248 C 
ATOM      3  O   UNL     1       0.771  -0.493  -1.113  0.00  0.00    -0.448 OA
ATOM      4  C   UNL     1       2.045  -0.637  -0.641  0.00  0.00    +0.167 A 
ATOM      5  C   UNL     1       3.257  -0.765  -1.299  0.00  0.00    +0.051 A 
ATOM      6  C   UNL     1       4.428  -0.901  -0.577  0.00  0.00    +0.027 A 
ATOM      7  C   UNL     1       4.392  -0.909   0.811  0.00  0.00    +0.031 A 
ATOM      8  C   UNL     1       3.179  -0.781   1.474  0.00  0.00    +0.072 A 
ATOM      9  C   UNL     1       2.006  -0.646   0.751  0.00  0.00    +0.169 A 
ATOM     10  O   UNL     1       0.708  -0.507   1.152  0.00  0.00    -0.448 OA
ATOM     11  C   UNL     1      -1.423  -0.559  -0.039  0.00  0.00    +0.104 C 
ENDROOT
BRANCH   7  12
ATOM     12  N   UNL     1       5.578  -1.046   1.541  0.00  0.00    -0.337 N 
ATOM     13  H   UNL     1       5.553  -1.052   2.511  0.00  0.00    +0.147 HD
BRANCH  12  14
ATOM     14  C   UNL     1       6.857  -1.182   0.841  0.00  0.00    +0.101 C 
ATOM     15  C   UNL     1       7.992  -0.709   1.750  0.00  0.00    +0.027 C 
ATOM     16  C   UNL     1       9.345  -1.015   1.103  0.00  0.00    +0.007 C 
ATOM     17  C   UNL     1       9.570  -2.534   1.125  0.00  0.00    +0.043 C 
ATOM     18  C   UNL     1       8.326  -3.200   0.631  0.00  0.00    -0.005 A 
ATOM     19  C   UNL     1       7.090  -2.646   0.480  0.00  0.00    -0.017 A 
ATOM     20  C   UNL     1       6.085  -3.481  -0.008  0.00  0.00    +0.013 A 
ATOM     21  C   UNL     1       6.362  -4.771  -0.306  0.00  0.00    +0.046 A 
ATOM     22  S   UNL     1       8.103  -4.878   0.104  0.00  0.00    -0.101 S 
ENDBRANCH  12  14
ENDBRANCH   7  12
TORSDOF 2
