REMARK  Name = ZINC20123458
REMARK  9 active torsions:
REMARK  status: ('A' for Active; 'I' for Inactive)
REMARK    1  A    between atoms: C_1  and  C_2
REMARK    2  A    between atoms: C_2  and  C_3
REMARK    3  A    between atoms: C_3  and  C_5
REMARK    4  A    between atoms: C_3  and  O_6
REMARK    5  A    between atoms: O_6  and  C_7
REMARK    6  A    between atoms: C_7  and  C_9
REMARK    7  A    between atoms: C_10  and  C_38
REMARK    8  A    between atoms: C_14  and  C_16
REMARK    9  A    between atoms: C_29  and  C_32
REMARK                            x       y       z     vdW  Elec       q    Type
REMARK                         _______ _______ _______ _____ _____    ______ ____
ROOT
ATOM      1  C   UNL     1      -1.279   2.914  -0.360  0.00  0.00    +0.065 C 
ATOM      2  C   UNL     1      -1.208   1.627   0.017  0.00  0.00    +0.016 C 
ATOM      3  N   UNL     1      -0.011   0.966   0.007  0.00  0.00    -0.321 N 
ATOM      4  C   UNL     1       1.169   1.660  -0.000  0.00  0.00    +0.016 C 
ATOM      5  C   UNL     1       1.200   2.954  -0.385  0.00  0.00    +0.024 C 
ATOM      6  C   UNL     1      -0.060   3.659  -0.819  0.00  0.00    +0.094 C 
ATOM      7  C   UNL     1       2.405   3.678  -0.397  0.00  0.00    +0.162 C 
ATOM      8  O   UNL     1       2.395   4.846  -0.733  0.00  0.00    -0.292 OA
ATOM      9  C   UNL     1       3.705   3.034  -0.002  0.00  0.00    +0.088 C 
ATOM     10  C   UNL     1       3.631   1.534  -0.306  0.00  0.00    +0.032 C 
ATOM     11  C   UNL     1       2.426   0.948   0.435  0.00  0.00    +0.059 C 
ATOM     12  C   UNL     1      -2.457   0.908   0.458  0.00  0.00    +0.061 C 
ATOM     13  H   UNL     1       0.010  -0.134   0.006  0.00  0.00    +0.152 HD
ENDROOT
BRANCH   6  14
ATOM     14  C   UNL     1      -0.080   3.758  -2.323  0.00  0.00    -0.013 A 
ATOM     15  C   UNL     1      -0.052   2.608  -3.090  0.00  0.00    +0.055 A 
ATOM     16  C   UNL     1      -0.070   2.696  -4.472  0.00  0.00    +0.167 A 
ATOM     17  C   UNL     1      -0.115   3.946  -5.087  0.00  0.00    +0.168 A 
ATOM     18  C   UNL     1      -0.141   5.094  -4.312  0.00  0.00    +0.069 A 
ATOM     19  C   UNL     1      -0.130   4.998  -2.932  0.00  0.00    +0.049 A 
ATOM     20 CL   UNL     1      -0.171   6.439  -1.963  0.00  0.00    -0.083 Cl
ATOM     21  O   UNL     1      -0.124   3.767  -6.440  0.00  0.00    -0.453 OA
ATOM     22  C   UNL     1      -0.497   2.391  -6.643  0.00  0.00    +0.466 C 
ATOM     23  O   UNL     1      -0.051   1.735  -5.441  0.00  0.00    -0.453 OA
ENDBRANCH   6  14
BRANCH  10  24
ATOM     24  C   UNL     1       4.892   0.858   0.166  0.00  0.00    -0.044 A 
ATOM     25  C   UNL     1       5.260   0.931   1.496  0.00  0.00    +0.004 A 
ATOM     26  C   UNL     1       6.415   0.307   1.930  0.00  0.00    +0.000 A 
ATOM     27  C   UNL     1       7.207  -0.381   1.030  0.00  0.00    +0.000 A 
ATOM     28  C   UNL     1       6.843  -0.450  -0.301  0.00  0.00    +0.000 A 
ATOM     29  C   UNL     1       5.685   0.170  -0.734  0.00  0.00    +0.004 A 
ENDBRANCH  10  24
BRANCH   1  30
ATOM     30  C   UNL     1      -2.528   3.578  -0.328  0.00  0.00    +0.338 C 
ATOM     31  O   UNL     1      -3.523   2.985   0.042  0.00  0.00    -0.245 OA
BRANCH  30  32
ATOM     32  O   UNL     1      -2.614   4.870  -0.709  0.00  0.00    -0.458 OA
BRANCH  32  33
ATOM     33  C   UNL     1      -3.906   5.478  -0.652  0.00  0.00    +0.173 C 
ATOM     34  C   UNL     1      -4.624   5.278  -1.988  0.00  0.00    +0.052 C 
BRANCH  33  36
ATOM     35  C   UNL     1      -3.150   7.176   1.018  0.00  0.00    +0.007 C 
ATOM     36  C   UNL     1      -3.754   6.975  -0.374  0.00  0.00    +0.041 C 
ENDBRANCH  33  36
ENDBRANCH  32  33
ENDBRANCH  30  32
ENDBRANCH   1  30
TORSDOF 6
