REMARK  Name = ZINC39601407
REMARK  8 active torsions:
REMARK  status: ('A' for Active; 'I' for Inactive)
REMARK    1  A    between atoms: C_1  and  C_2
REMARK    2  A    between atoms: C_2  and  C_3
REMARK    3  A    between atoms: C_2  and  C_4
REMARK    4  A    between atoms: C_4  and  C_5
REMARK    5  A    between atoms: C_5  and  N_6
REMARK    6  A    between atoms: C_7  and  C_9
REMARK    7  A    between atoms: C_20  and  C_22
REMARK    8  A    between atoms: C_25  and  C_27
REMARK                            x       y       z     vdW  Elec       q    Type
REMARK                         _______ _______ _______ _____ _____    ______ ____
ROOT
ATOM      1  C   UNL     1      -4.435  -4.410  -0.207  0.00  0.00    +0.100 C 
ATOM      2  C   UNL     1      -5.073  -4.205   1.185  0.00  0.00    +0.121 C 
ATOM      3  N   UNL     1      -5.902  -5.415   1.399  0.00  0.00    -0.294 N 
ATOM      4  C   UNL     1      -5.088  -6.523   0.845  0.00  0.00    +0.115 C 
ATOM      5  C   UNL     1      -4.446  -5.932  -0.426  0.00  0.00    -0.004 C 
ATOM      6  C   UNL     1      -5.283  -6.283  -1.653  0.00  0.00    -0.010 C 
ATOM      7  C   UNL     1      -5.232  -7.796  -1.883  0.00  0.00    -0.082 C 
ATOM      8  N   UNL     1      -3.839  -8.216  -2.080  0.00  0.00    +0.379 N 
ATOM      9  C   UNL     1      -3.061  -7.959  -0.862  0.00  0.00    -0.082 C 
ATOM     10  C   UNL     1      -3.021  -6.453  -0.588  0.00  0.00    -0.010 C 
ATOM     11  C   UNL     1      -7.122  -5.491   1.967  0.00  0.00    +0.282 C 
ATOM     12  O   UNL     1      -7.679  -6.568   2.071  0.00  0.00    -0.267 OA
ATOM     13  H   UNL     1      -3.814  -9.202  -2.293  0.00  0.00    -0.086 HD
ATOM     14  H   UNL     1      -3.439  -7.699  -2.849  0.00  0.00    -0.086 HD
ENDROOT
BRANCH  11  15
ATOM     15  C   UNL     1      -7.777  -4.277   2.460  0.00  0.00    +0.190 A 
ATOM     16  C   UNL     1      -9.013  -4.213   3.064  0.00  0.00    +0.055 A 
ATOM     17  C   UNL     1      -9.243  -2.869   3.372  0.00  0.00    +0.050 A 
ATOM     18  C   UNL     1      -8.151  -2.167   2.950  0.00  0.00    +0.136 A 
ATOM     19  O   UNL     1      -7.271  -3.026   2.408  0.00  0.00    -0.450 OA
BRANCH  18  20
ATOM     20  C   UNL     1      -7.964  -0.708   3.074  0.00  0.00    +0.017 A 
ATOM     21  C   UNL     1      -8.953   0.077   3.670  0.00  0.00    +0.014 A 
ATOM     22  C   UNL     1      -8.773   1.440   3.784  0.00  0.00    +0.039 A 
ATOM     23  C   UNL     1      -7.613   2.030   3.307  0.00  0.00    +0.123 A 
ATOM     24  C   UNL     1      -6.628   1.256   2.713  0.00  0.00    +0.039 A 
ATOM     25  C   UNL     1      -6.795  -0.108   2.600  0.00  0.00    +0.014 A 
ATOM     26  F   UNL     1      -7.442   3.365   3.421  0.00  0.00    -0.205 F 
ENDBRANCH  18  20
ENDBRANCH  11  15
BRANCH   1  28
ATOM     27  N   UNL     1      -2.480  -3.431  -1.364  0.00  0.00    -0.315 N 
ATOM     28  C   UNL     1      -3.021  -3.888  -0.217  0.00  0.00    +0.218 C 
ATOM     29  O   UNL     1      -2.370  -3.880   0.806  0.00  0.00    -0.275 OA
ATOM     30  H   UNL     1      -3.001  -3.438  -2.183  0.00  0.00    +0.149 HD
BRANCH  27  31
ATOM     31  C   UNL     1      -1.105  -2.924  -1.375  0.00  0.00    +0.104 C 
BRANCH  31  32
ATOM     32  C   UNL     1      -0.740  -2.471  -2.789  0.00  0.00    +0.022 C 
BRANCH  32  34
ATOM     33  C   UNL     1       1.104  -1.605  -4.236  0.00  0.00    +0.007 C 
ATOM     34  C   UNL     1       0.696  -1.941  -2.800  0.00  0.00    -0.016 C 
ATOM     35  C   UNL     1       0.781  -0.681  -1.937  0.00  0.00    +0.007 C 
ENDBRANCH  32  34
ENDBRANCH  31  32
ENDBRANCH  27  31
ENDBRANCH   1  28
TORSDOF 6
