REMARK  Name = ZINC44020300
REMARK  6 active torsions:
REMARK  status: ('A' for Active; 'I' for Inactive)
REMARK    1  A    between atoms: C_1  and  C_2
REMARK    2  A    between atoms: C_2  and  C_3
REMARK    3  A    between atoms: C_2  and  C_4
REMARK    4  A    between atoms: C_2  and  N_5
REMARK    5  A    between atoms: C_9  and  N_14
REMARK    6  A    between atoms: N_14  and  C_15
REMARK                            x       y       z     vdW  Elec       q    Type
REMARK                         _______ _______ _______ _____ _____    ______ ____
ROOT
ATOM      1  N   UNL     1       0.739  -0.391  -1.208  0.00  0.00    -0.256 N 
ATOM      2  C   UNL     1       0.078  -1.218  -2.042  0.00  0.00    +0.259 A 
ATOM      3  O   UNL     1      -1.070  -1.547  -1.797  0.00  0.00    -0.267 OA
ATOM      4  C   UNL     1       0.720  -1.698  -3.195  0.00  0.00    +0.112 A 
ATOM      5  C   UNL     1       2.007  -1.313  -3.447  0.00  0.00    +0.109 A 
ATOM      6  N   UNL     1       2.643  -0.468  -2.569  0.00  0.00    -0.295 N 
ATOM      7  H   UNL     1       3.557  -0.192  -2.742  0.00  0.00    +0.172 HD
ATOM      8  C   UNL     1       2.004  -0.018  -1.474  0.00  0.00    +0.331 A 
ATOM      9  O   UNL     1       2.580   0.733  -0.711  0.00  0.00    -0.246 OA
ENDROOT
BRANCH   1  11
ATOM     10  C   UNL     1       0.006   1.639  -0.057  0.00  0.00    +0.034 C 
ATOM     11  C   UNL     1       0.072   0.111  -0.004  0.00  0.00    +0.045 C 
ATOM     12  C   UNL     1       0.859  -0.323   1.234  0.00  0.00    +0.034 C 
ATOM     13  C   UNL     1      -1.347  -0.458   0.068  0.00  0.00    +0.034 C 
ENDBRANCH   1  11
BRANCH   5  14
ATOM     14  N   UNL     1       2.659  -1.767  -4.566  0.00  0.00    -0.301 N 
ATOM     15  H   UNL     1       2.281  -1.609  -5.445  0.00  0.00    +0.154 HD
BRANCH  14  16
ATOM     16  C   UNL     1       3.869  -2.459  -4.439  0.00  0.00    +0.035 A 
ATOM     17  C   UNL     1       4.339  -2.812  -3.181  0.00  0.00    +0.026 A 
ATOM     18  C   UNL     1       5.533  -3.494  -3.056  0.00  0.00    +0.043 A 
ATOM     19  C   UNL     1       6.263  -3.827  -4.185  0.00  0.00    +0.159 A 
ATOM     20  C   UNL     1       5.796  -3.476  -5.442  0.00  0.00    +0.160 A 
ATOM     21  C   UNL     1       4.597  -2.798  -5.571  0.00  0.00    +0.064 A 
ATOM     22  F   UNL     1       6.510  -3.801  -6.543  0.00  0.00    -0.202 F 
ATOM     23  F   UNL     1       7.431  -4.495  -4.060  0.00  0.00    -0.202 F 
ENDBRANCH  14  16
ENDBRANCH   5  14
TORSDOF 3
