REMARK  Name = ZINC14953743
REMARK  7 active torsions:
REMARK  status: ('A' for Active; 'I' for Inactive)
REMARK    1  A    between atoms: C_1  and  C_2
REMARK    2  A    between atoms: C_7  and  O_8
REMARK    3  A    between atoms: O_8  and  C_9
REMARK    4  A    between atoms: C_9  and  C_11
REMARK    5  A    between atoms: C_9  and  C_12
REMARK    6  A    between atoms: C_21  and  C_23
REMARK    7  A    between atoms: N_28  and  C_31
REMARK                            x       y       z     vdW  Elec       q    Type
REMARK                         _______ _______ _______ _____ _____    ______ ____
ROOT
ATOM      1  C   UNL     1      -3.270   1.597  -1.338  0.00  0.00    +0.256 C 
ATOM      2  O   UNL     1      -2.245   1.350  -0.739  0.00  0.00    -0.272 OA
ATOM      3  N   UNL     1      -4.345   0.796  -1.192  0.00  0.00    -0.298 N 
ATOM      4  C   UNL     1      -4.319  -0.313  -0.230  0.00  0.00    +0.108 C 
ATOM      5  C   UNL     1      -5.490  -0.136   0.753  0.00  0.00    +0.026 C 
ATOM      6  C   UNL     1      -6.779   0.064  -0.050  0.00  0.00    -0.015 C 
ATOM      7  C   UNL     1      -6.745   1.220  -1.055  0.00  0.00    +0.026 C 
ATOM      8  C   UNL     1      -5.552   1.020  -1.997  0.00  0.00    +0.108 C 
ATOM      9  C   UNL     1      -7.580  -1.181  -0.427  0.00  0.00    +0.021 C 
ATOM     10  C   UNL     1      -8.105  -0.230   0.650  0.00  0.00    +0.082 C 
ENDROOT
BRANCH  10  11
ATOM     11  C   UNL     1      -9.286   0.638   0.298  0.00  0.00    +0.219 C 
ATOM     12  O   UNL     1      -9.950   0.388  -0.685  0.00  0.00    -0.275 OA
ATOM     13  N   UNL     1      -9.603   1.692   1.076  0.00  0.00    -0.298 N 
ATOM     14  C   UNL     1      -8.814   2.009   2.276  0.00  0.00    +0.126 C 
ATOM     15  C   UNL     1      -8.418   3.492   2.215  0.00  0.00    +0.125 C 
ATOM     16  N   UNL     1      -9.625   4.309   2.033  0.00  0.00    -0.314 N 
ATOM     17  C   UNL     1     -10.282   4.011   0.753  0.00  0.00    +0.125 C 
ATOM     18  C   UNL     1     -10.751   2.552   0.751  0.00  0.00    +0.126 C 
BRANCH  16  19
ATOM     19  C   UNL     1      -9.331   5.663   2.138  0.00  0.00    +0.099 A 
ATOM     20  C   UNL     1      -8.710   6.147   3.285  0.00  0.00    +0.042 A 
ATOM     21  C   UNL     1      -8.418   7.496   3.373  0.00  0.00    +0.005 A 
ATOM     22  C   UNL     1      -8.768   8.321   2.313  0.00  0.00    +0.018 A 
ATOM     23  C   UNL     1      -9.388   7.775   1.207  0.00  0.00    +0.084 A 
ATOM     24  N   UNL     1      -9.685   6.454   1.083  0.00  0.00    -0.350 N 
ATOM     25  H   UNL     1     -10.147   6.074   0.248  0.00  0.00    +0.166 HD
ENDBRANCH  16  19
ENDBRANCH  10  11
BRANCH   1  26
ATOM     26  C   UNL     1      -3.343   2.798  -2.245  0.00  0.00    +0.256 C 
ATOM     27  C   UNL     1      -3.434   2.334  -3.700  0.00  0.00    +0.062 C 
BRANCH  26  28
ATOM     28  O   UNL     1      -2.171   3.597  -2.072  0.00  0.00    -0.480 OA
BRANCH  28  35
ATOM     29  C   UNL     1       0.086   5.225  -1.588  0.00  0.00    +0.047 C 
ATOM     30  C   UNL     1      -1.200   5.767  -2.159  0.00  0.00    -0.007 A 
ATOM     31  C   UNL     1      -1.308   7.110  -2.465  0.00  0.00    +0.027 A 
ATOM     32  C   UNL     1      -2.488   7.608  -2.987  0.00  0.00    +0.041 A 
ATOM     33  C   UNL     1      -3.562   6.762  -3.206  0.00  0.00    +0.023 A 
ATOM     34  C   UNL     1      -3.457   5.419  -2.902  0.00  0.00    +0.047 A 
ATOM     35  C   UNL     1      -2.275   4.918  -2.377  0.00  0.00    +0.125 A 
ATOM     36 CL   UNL     1      -2.623   9.296  -3.370  0.00  0.00    -0.084 Cl
ENDBRANCH  28  35
ENDBRANCH  26  28
ENDBRANCH   1  26
TORSDOF 5
