REMARK  Name = ZINC54479582
REMARK  13 active torsions:
REMARK  status: ('A' for Active; 'I' for Inactive)
REMARK    1  A    between atoms: C_1  and  C_2
REMARK    2  A    between atoms: C_2  and  N_3
REMARK    3  A    between atoms: N_3  and  C_4
REMARK    4  A    between atoms: N_3  and  C_11
REMARK    5  A    between atoms: C_4  and  C_5
REMARK    6  A    between atoms: C_5  and  N_6
REMARK    7  A    between atoms: N_6  and  S_7
REMARK    8  A    between atoms: S_7  and  C_10
REMARK    9  A    between atoms: C_14  and  N_18
REMARK   10  A    between atoms: C_15  and  C_17
REMARK   11  A    between atoms: N_18  and  C_19
REMARK   12  A    between atoms: C_21  and  C_33
REMARK   13  A    between atoms: C_27  and  C_29
REMARK                            x       y       z     vdW  Elec       q    Type
REMARK                         _______ _______ _______ _____ _____    ______ ____
ROOT
ATOM      1  C   UNL     1      -0.640   0.348  -2.430  0.00  0.00    +0.030 A 
ATOM      2  C   UNL     1       0.213  -0.181  -3.390  0.00  0.00    +0.025 A 
ATOM      3  C   UNL     1      -0.306  -0.766  -4.527  0.00  0.00    +0.025 A 
ATOM      4  C   UNL     1      -1.681  -0.825  -4.712  0.00  0.00    +0.034 A 
ATOM      5  C   UNL     1      -2.534  -0.296  -3.752  0.00  0.00    -0.028 A 
ATOM      6  C   UNL     1      -2.015   0.284  -2.612  0.00  0.00    +0.028 A 
ATOM      7  C   UNL     1      -4.026  -0.359  -3.953  0.00  0.00    +0.046 C 
ENDROOT
BRANCH   4   8
ATOM      8  N   UNL     1      -2.208  -1.417  -5.866  0.00  0.00    -0.314 N 
ATOM      9  H   UNL     1      -2.973  -2.009  -5.801  0.00  0.00    +0.152 HD
BRANCH   8  10
ATOM     10  C   UNL     1      -1.635  -1.157  -7.102  0.00  0.00    +0.042 A 
ATOM     11  C   UNL     1      -0.615  -0.228  -7.236  0.00  0.00    +0.044 A 
ATOM     12  C   UNL     1      -0.062   0.010  -8.487  0.00  0.00    +0.015 A 
ATOM     13  N   UNL     1      -0.476  -0.623  -9.560  0.00  0.00    -0.358 N 
ATOM     14  C   UNL     1      -1.456  -1.532  -9.505  0.00  0.00    +0.049 A 
ATOM     15  C   UNL     1      -2.069  -1.836  -8.266  0.00  0.00    +0.019 A 
ATOM     16  C   UNL     1      -3.092  -2.793  -8.213  0.00  0.00    +0.012 A 
ATOM     17  C   UNL     1      -3.482  -3.426  -9.355  0.00  0.00    +0.013 A 
ATOM     18  C   UNL     1      -2.877  -3.133 -10.575  0.00  0.00    +0.057 A 
ATOM     19  C   UNL     1      -1.889  -2.200 -10.663  0.00  0.00    +0.038 A 
ATOM     20  C   UNL     1       1.046   1.023  -8.617  0.00  0.00    +0.063 C 
ATOM     21  H   UNL     1      -0.062  -0.426 -10.414  0.00  0.00    +0.166 HD
BRANCH  18  22
ATOM     22  C   UNL     1      -3.332  -3.850 -11.820  0.00  0.00    +0.417 C 
ATOM     23  F   UNL     1      -4.356  -4.747 -11.493  0.00  0.00    -0.166 F 
ATOM     24  F   UNL     1      -3.807  -2.918 -12.748  0.00  0.00    -0.166 F 
ATOM     25  F   UNL     1      -2.256  -4.553 -12.373  0.00  0.00    -0.166 F 
ENDBRANCH  18  22
ENDBRANCH   8  10
ENDBRANCH   4   8
BRANCH   1  26
ATOM     26  N   UNL     1      -0.114   0.941  -1.277  0.00  0.00    -0.329 N 
BRANCH  26  28
ATOM     27  C   UNL     1      -1.297   2.964  -0.578  0.00  0.00    +0.024 C 
ATOM     28  C   UNL     1      -1.014   1.495  -0.262  0.00  0.00    +0.102 C 
ENDBRANCH  26  28
BRANCH  26  29
ATOM     29  C   UNL     1       1.337   1.009  -1.085  0.00  0.00    +0.122 C 
BRANCH  29  30
ATOM     30  C   UNL     1       1.813  -0.245  -0.348  0.00  0.00    +0.124 C 
BRANCH  30  31
ATOM     31  N   UNL     1       3.264  -0.177  -0.155  0.00  0.00    -0.193 NA
ATOM     32  H   UNL     1       3.790   0.463  -0.659  0.00  0.00    +0.148 HD
BRANCH  31  33
ATOM     33  S   UNL     1       4.004  -1.194   0.922  0.00  0.00    +0.027 S 
ATOM     34  O   UNL     1       5.380  -0.840   0.868  0.00  0.00    -0.158 OA
ATOM     35  O   UNL     1       3.265  -1.047   2.126  0.00  0.00    -0.158 OA
ATOM     36  C   UNL     1       3.760  -2.856   0.238  0.00  0.00    +0.214 C 
ENDBRANCH  31  33
ENDBRANCH  30  31
ENDBRANCH  29  30
ENDBRANCH  26  29
ENDBRANCH   1  26
TORSDOF 9
