REMARK  Name = ZINC39607119
REMARK  10 active torsions:
REMARK  status: ('A' for Active; 'I' for Inactive)
REMARK    1  A    between atoms: C_1  and  C_2
REMARK    2  A    between atoms: C_9  and  C_14
REMARK    3  A    between atoms: C_14  and  O_16
REMARK    4  A    between atoms: O_16  and  C_17
REMARK    5  A    between atoms: C_17  and  C_18
REMARK    6  A    between atoms: N_20  and  C_21
REMARK    7  A    between atoms: N_20  and  C_22
REMARK    8  A    between atoms: C_22  and  C_23
REMARK    9  A    between atoms: C_26  and  O_29
REMARK   10  A    between atoms: O_29  and  C_30
REMARK                            x       y       z     vdW  Elec       q    Type
REMARK                         _______ _______ _______ _____ _____    ______ ____
ROOT
ATOM      1  O   UNL     1       0.005  -7.299   2.196  0.00  0.00    -0.452 OA
ENDROOT
BRANCH   1   2
ATOM      2  C   UNL     1      -0.819  -6.371   1.671  0.00  0.00    +0.340 C 
ATOM      3  O   UNL     1      -1.904  -6.700   1.233  0.00  0.00    -0.245 OA
BRANCH   2  11
ATOM      4  C   UNL     1      -0.019   1.526   0.010  0.00  0.00    +0.029 C 
ATOM      5  C   UNL     1       0.002  -0.004   0.002  0.00  0.00    +0.134 C 
ATOM      6  C   UNL     1      -1.408  -0.527   0.019  0.00  0.00    +0.230 C 
ATOM      7  O   UNL     1      -2.287   0.178  -0.429  0.00  0.00    -0.274 OA
ATOM      8  N   UNL     1      -1.745  -1.722   0.500  0.00  0.00    -0.284 N 
ATOM      9  C   UNL     1      -0.877  -2.667   1.042  0.00  0.00    +0.048 A 
ATOM     10  C   UNL     1      -1.262  -3.997   1.083  0.00  0.00    +0.039 A 
ATOM     11  C   UNL     1      -0.406  -4.958   1.628  0.00  0.00    +0.061 A 
ATOM     12  C   UNL     1       0.843  -4.580   2.133  0.00  0.00    +0.016 A 
ATOM     13  C   UNL     1       1.227  -3.258   2.090  0.00  0.00    +0.017 A 
ATOM     14  C   UNL     1       0.377  -2.304   1.547  0.00  0.00    +0.030 A 
ATOM     15  S   UNL     1       0.874  -0.610   1.478  0.00  0.00    -0.111 S 
ATOM     16  H   UNL     1      -2.685  -1.956   0.469  0.00  0.00    +0.155 HD
ENDBRANCH   2  11
ENDBRANCH   1   2
BRANCH   1  17
ATOM     17  C   UNL     1      -0.460  -8.650   2.204  0.00  0.00    +0.328 C 
BRANCH  17  18
ATOM     18  C   UNL     1       0.588  -9.538   2.824  0.00  0.00    +0.253 C 
ATOM     19  O   UNL     1       1.630  -9.061   3.219  0.00  0.00    -0.272 OA
ATOM     20  N   UNL     1       0.366 -10.863   2.939  0.00  0.00    -0.297 N 
ATOM     21  C   UNL     1      -0.894 -11.439   2.462  0.00  0.00    +0.132 C 
BRANCH  20  22
ATOM     22  C   UNL     1       1.385 -11.726   3.542  0.00  0.00    +0.142 C 
BRANCH  22  23
ATOM     23  C   UNL     1       1.154 -11.814   5.028  0.00  0.00    -0.030 A 
ATOM     24  C   UNL     1       1.752 -10.899   5.875  0.00  0.00    +0.009 A 
ATOM     25  C   UNL     1       1.542 -10.977   7.238  0.00  0.00    +0.046 A 
ATOM     26  C   UNL     1       0.730 -11.975   7.758  0.00  0.00    +0.127 A 
ATOM     27  C   UNL     1       0.131 -12.892   6.906  0.00  0.00    +0.046 A 
ATOM     28  C   UNL     1       0.339 -12.806   5.543  0.00  0.00    +0.009 A 
BRANCH  26  29
ATOM     29  O   UNL     1       0.523 -12.054   9.098  0.00  0.00    -0.434 OA
BRANCH  29  30
ATOM     30  C   UNL     1      -0.325 -13.107   9.562  0.00  0.00    +0.541 C 
ATOM     31  F   UNL     1      -1.595 -12.968   8.993  0.00  0.00    -0.166 F 
ATOM     32  F   UNL     1       0.220 -14.342   9.192  0.00  0.00    -0.166 F 
ENDBRANCH  29  30
ENDBRANCH  26  29
ENDBRANCH  22  23
ENDBRANCH  20  22
ENDBRANCH  17  18
ENDBRANCH   1  17
TORSDOF 8
