REMARK  Name = ZINC00710486
REMARK  5 active torsions:
REMARK  status: ('A' for Active; 'I' for Inactive)
REMARK    1  A    between atoms: C_4  and  N_7
REMARK    2  A    between atoms: C_8  and  C_10
REMARK    3  A    between atoms: N_15  and  C_26
REMARK    4  A    between atoms: N_17  and  C_18
REMARK    5  A    between atoms: C_26  and  C_27
REMARK                            x       y       z     vdW  Elec       q    Type
REMARK                         _______ _______ _______ _____ _____    ______ ____
ROOT
ATOM      1  C   UNL     1       5.699  -2.478   0.249  0.00  0.00    +0.149 C 
ATOM      2  C   UNL     1       5.118  -3.795  -0.269  0.00  0.00    +0.120 C 
ATOM      3  C   UNL     1       5.921  -4.977   0.152  0.00  0.00    +0.223 C 
ATOM      4  O   UNL     1       5.875  -5.936  -0.589  0.00  0.00    -0.275 OA
ATOM      5  N   UNL     1       6.679  -5.120   1.229  0.00  0.00    -0.246 N 
ATOM      6  C   UNL     1       6.972  -4.099   2.116  0.00  0.00    +0.164 C 
ATOM      7  N   UNL     1       7.960  -4.202   2.973  0.00  0.00    -0.226 NA
ATOM      8  S   UNL     1       5.958  -2.647   2.046  0.00  0.00    -0.077 S 
ENDROOT
BRANCH   7   9
ATOM      9  C   UNL     1       9.046  -4.984   2.677  0.00  0.00    +0.067 A 
ATOM     10  C   UNL     1       9.730  -4.805   1.473  0.00  0.00    +0.030 A 
ATOM     11  C   UNL     1      10.823  -5.595   1.181  0.00  0.00    +0.040 A 
ATOM     12  C   UNL     1      11.241  -6.564   2.078  0.00  0.00    +0.124 A 
ATOM     13  C   UNL     1      10.565  -6.746   3.274  0.00  0.00    +0.040 A 
ATOM     14  C   UNL     1       9.475  -5.958   3.580  0.00  0.00    +0.030 A 
ATOM     15  F   UNL     1      12.311  -7.336   1.786  0.00  0.00    -0.205 F 
ENDBRANCH   7   9
BRANCH   1  17
ATOM     16  N   UNL     1       5.200  -0.123  -0.318  0.00  0.00    -0.285 N 
ATOM     17  C   UNL     1       4.735  -1.353  -0.023  0.00  0.00    +0.231 C 
ATOM     18  O   UNL     1       3.540  -1.554   0.022  0.00  0.00    -0.274 OA
ATOM     19  H   UNL     1       6.153   0.021  -0.431  0.00  0.00    +0.155 HD
BRANCH  16  23
ATOM     20  C   UNL     1       2.549   3.062  -0.742  0.00  0.00    +0.000 A 
ATOM     21  C   UNL     1       2.290   2.067   0.182  0.00  0.00    +0.002 A 
ATOM     22  C   UNL     1       3.167   1.010   0.326  0.00  0.00    +0.023 A 
ATOM     23  C   UNL     1       4.310   0.947  -0.461  0.00  0.00    +0.033 A 
ATOM     24  C   UNL     1       4.567   1.947  -1.389  0.00  0.00    +0.023 A 
ATOM     25  C   UNL     1       3.686   3.002  -1.527  0.00  0.00    +0.002 A 
ENDBRANCH  16  23
ENDBRANCH   1  17
BRANCH   5  26
ATOM     26  C   UNL     1       7.244  -6.445   1.498  0.00  0.00    +0.150 C 
BRANCH  26  27
ATOM     27  C   UNL     1       6.127  -7.440   1.677  0.00  0.00    -0.026 A 
ATOM     28  C   UNL     1       5.478  -7.537   2.893  0.00  0.00    +0.009 A 
ATOM     29  C   UNL     1       4.452  -8.449   3.062  0.00  0.00    +0.050 A 
ATOM     30  C   UNL     1       4.073  -9.268   2.011  0.00  0.00    +0.166 A 
ATOM     31  C   UNL     1       4.727  -9.171   0.786  0.00  0.00    +0.167 A 
ATOM     32  C   UNL     1       5.750  -8.251   0.622  0.00  0.00    +0.054 A 
ATOM     33  O   UNL     1       4.176 -10.074  -0.076  0.00  0.00    -0.453 OA
ATOM     34  C   UNL     1       3.455 -11.006   0.752  0.00  0.00    +0.466 C 
ATOM     35  O   UNL     1       3.111 -10.232   1.917  0.00  0.00    -0.453 OA
ENDBRANCH  26  27
ENDBRANCH   5  26
TORSDOF 5
