REMARK  Name = ZINC02737395
REMARK  5 active torsions:
REMARK  status: ('A' for Active; 'I' for Inactive)
REMARK    1  A    between atoms: C_1  and  N_43
REMARK    2  A    between atoms: C_12  and  C_15
REMARK    3  A    between atoms: C_17  and  O_23
REMARK    4  A    between atoms: C_18  and  O_22
REMARK    5  A    between atoms: O_23  and  C_24
REMARK                            x       y       z     vdW  Elec       q    Type
REMARK                         _______ _______ _______ _____ _____    ______ ____
ROOT
ATOM      1  C   UNL     1       0.117   1.428  -2.386  0.00  0.00    -0.096 C 
ATOM      2  C   UNL     1      -0.013   1.086   0.008  0.00  0.00    -0.074 C 
ATOM      3  C   UNL     1      -0.724   1.577   1.272  0.00  0.00    +0.018 C 
ATOM      4  C   UNL     1      -2.199   1.215   1.162  0.00  0.00    -0.027 A 
ATOM      5  C   UNL     1      -2.729   0.900  -0.042  0.00  0.00    -0.021 A 
ATOM      6  S   UNL     1      -4.432   0.542   0.288  0.00  0.00    -0.080 S 
ATOM      7  C   UNL     1      -4.438   0.806   1.980  0.00  0.00    +0.080 A 
ATOM      8  C   UNL     1      -3.119   1.176   2.285  0.00  0.00    +0.068 A 
ATOM      9  C   UNL     1      -2.803   1.475   3.701  0.00  0.00    +0.248 C 
ATOM     10  O   UNL     1      -1.660   1.682   4.065  0.00  0.00    -0.270 OA
ATOM     11  N   UNL     1      -3.834   1.507   4.571  0.00  0.00    -0.289 N 
ATOM     12  C   UNL     1      -5.235   1.498   4.160  0.00  0.00    +0.190 C 
ATOM     13  N   UNL     1      -5.425   0.713   2.927  0.00  0.00    -0.316 N 
ATOM     14  C   UNL     1      -2.005   0.868  -1.352  0.00  0.00    -0.036 C 
ATOM     15  H   UNL     1      -3.634   1.539   5.519  0.00  0.00    +0.151 HD
ATOM     16  H   UNL     1      -6.209   0.157   2.793  0.00  0.00    +0.149 HD
ATOM     17  N   UNL     1      -0.725   1.596  -1.182  0.00  0.00    +0.381 N 
ATOM     18  H   UNL     1      -0.923   2.595  -1.050  0.00  0.00    -0.082 HD
ENDROOT
BRANCH  12  19
ATOM     19  C   UNL     1      -5.687   2.915   3.917  0.00  0.00    -0.005 A 
ATOM     20  C   UNL     1      -5.117   3.953   4.629  0.00  0.00    +0.056 A 
ATOM     21  C   UNL     1      -5.530   5.256   4.406  0.00  0.00    +0.163 A 
ATOM     22  C   UNL     1      -6.521   5.517   3.465  0.00  0.00    +0.173 A 
ATOM     23  C   UNL     1      -7.090   4.472   2.754  0.00  0.00    +0.063 A 
ATOM     24  C   UNL     1      -6.668   3.173   2.978  0.00  0.00    +0.026 A 
ATOM     25 BR   UNL     1      -8.436   4.821   1.473  0.00  0.00    -0.046 Br
BRANCH  22  26
ATOM     26  O   UNL     1      -6.931   6.795   3.242  0.00  0.00    -0.503 OA
ATOM     27  H   UNL     1      -6.432   7.253   2.552  0.00  0.00    +0.292 HD
ENDBRANCH  22  26
BRANCH  21  28
ATOM     28  O   UNL     1      -4.970   6.279   5.106  0.00  0.00    -0.491 OA
ATOM     29  C   UNL     1      -3.959   5.937   6.057  0.00  0.00    +0.277 C 
ENDBRANCH  21  28
ENDBRANCH  12  19
TORSDOF 3
