REMARK  Name = ZINC27020235
REMARK  7 active torsions:
REMARK  status: ('A' for Active; 'I' for Inactive)
REMARK    1  A    between atoms: C_1  and  C_2
REMARK    2  A    between atoms: C_5  and  C_8
REMARK    3  A    between atoms: C_8  and  N_9
REMARK    4  A    between atoms: C_10  and  C_21
REMARK    5  A    between atoms: N_14  and  C_15
REMARK    6  A    between atoms: C_24  and  S_27
REMARK    7  A    between atoms: S_27  and  N_30
REMARK                            x       y       z     vdW  Elec       q    Type
REMARK                         _______ _______ _______ _____ _____    ______ ____
ROOT
ATOM      1  N   UNL     1       1.406   5.996   6.324  0.00  0.00    -0.316 N 
ATOM      2  C   UNL     1       2.444   5.352   5.706  0.00  0.00    +0.058 A 
ATOM      3  C   UNL     1       3.580   5.109   6.390  0.00  0.00    +0.075 A 
ATOM      4  S   UNL     1       3.214   5.818   7.988  0.00  0.00    -0.059 S 
ATOM      5  C   UNL     1       1.558   6.384   7.634  0.00  0.00    +0.152 A 
ATOM      6  N   UNL     1       0.704   7.010   8.422  0.00  0.00    -0.336 N 
ATOM      7  H   UNL     1      -0.256   7.365   8.021  0.00  0.00    +0.168 HD
ENDROOT
BRANCH   6   8
ATOM      8  C   UNL     1       1.014   7.216   9.738  0.00  0.00    +0.041 A 
ATOM      9  C   UNL     1       0.750   6.223  10.685  0.00  0.00    +0.025 A 
ATOM     10  C   UNL     1       1.070   6.436  12.010  0.00  0.00    +0.002 A 
ATOM     11  C   UNL     1       1.641   7.634  12.403  0.00  0.00    +0.000 A 
ATOM     12  C   UNL     1       1.899   8.624  11.472  0.00  0.00    +0.002 A 
ATOM     13  C   UNL     1       1.590   8.423  10.143  0.00  0.00    +0.025 A 
ENDBRANCH   6   8
BRANCH   2  14
ATOM     14  C   UNL     1       2.317   4.920   4.297  0.00  0.00    -0.001 A 
ATOM     15  C   UNL     1       1.932   5.834   3.316  0.00  0.00    +0.012 A 
ATOM     16  C   UNL     1       1.816   5.424   2.003  0.00  0.00    +0.029 A 
ATOM     17  C   UNL     1       2.081   4.111   1.660  0.00  0.00    +0.106 A 
ATOM     18  C   UNL     1       2.458   3.198   2.629  0.00  0.00    +0.029 A 
ATOM     19  C   UNL     1       2.583   3.596   3.944  0.00  0.00    +0.012 A 
BRANCH  17  20
ATOM     20  S   UNL     1       1.930   3.595  -0.019  0.00  0.00    +0.061 S 
ATOM     21  O   UNL     1       1.031   4.502  -0.642  0.00  0.00    -0.153 OA
ATOM     22  O   UNL     1       1.703   2.193   0.006  0.00  0.00    -0.153 OA
BRANCH  20  23
ATOM     23  N   UNL     1       3.405   3.824  -0.735  0.00  0.00    -0.177 NA
ATOM     24  C   UNL     1       4.491   2.834  -0.795  0.00  0.00    +0.109 C 
ATOM     25  C   UNL     1       5.654   3.477  -1.579  0.00  0.00    +0.018 C 
ATOM     26  C   UNL     1       4.947   4.584  -2.405  0.00  0.00    +0.018 C 
ATOM     27  C   UNL     1       3.847   5.052  -1.419  0.00  0.00    +0.109 C 
ENDBRANCH  20  23
ENDBRANCH  17  20
ENDBRANCH   2  14
BRANCH   1  28
ATOM     28  C   UNL     1       0.159   6.266   5.604  0.00  0.00    +0.159 C 
BRANCH  28  33
ATOM     29  C   UNL     1      -3.657   2.075   6.728  0.00  0.00    +0.044 C 
ATOM     30  C   UNL     1      -2.663   3.168   6.434  0.00  0.00    -0.050 A 
ATOM     31  C   UNL     1      -2.677   4.333   7.178  0.00  0.00    +0.004 A 
ATOM     32  C   UNL     1      -1.764   5.336   6.909  0.00  0.00    +0.005 A 
ATOM     33  C   UNL     1      -0.836   5.173   5.897  0.00  0.00    -0.028 A 
ATOM     34  C   UNL     1      -0.825   4.009   5.150  0.00  0.00    +0.005 A 
ATOM     35  C   UNL     1      -1.736   3.005   5.422  0.00  0.00    +0.004 A 
ENDBRANCH  28  33
ENDBRANCH   1  28
TORSDOF 6
