REMARK  Name = ZINC12428468
REMARK  7 active torsions:
REMARK  status: ('A' for Active; 'I' for Inactive)
REMARK    1  A    between atoms: C_3  and  N_14
REMARK    2  A    between atoms: C_4  and  N_11
REMARK    3  A    between atoms: C_6  and  C_7
REMARK    4  A    between atoms: C_17  and  C_24
REMARK    5  A    between atoms: C_19  and  C_22
REMARK    6  A    between atoms: C_20  and  N_21
REMARK    7  A    between atoms: C_27  and  N_29
REMARK                            x       y       z     vdW  Elec       q    Type
REMARK                         _______ _______ _______ _____ _____    ______ ____
ROOT
ATOM      1  N   UNL     1      -3.026   7.265   0.021  0.00  0.00    -0.258 N 
ATOM      2  C   UNL     1      -3.495   6.794   1.219  0.00  0.00    +0.025 C 
ATOM      3  C   UNL     1      -4.155   5.618   1.285  0.00  0.00    +0.026 C 
ATOM      4  C   UNL     1      -4.378   4.785   0.048  0.00  0.00    +0.104 C 
ATOM      5  C   UNL     1      -4.196   5.602  -1.196  0.00  0.00    +0.077 C 
ATOM      6  C   UNL     1      -3.536   6.789  -1.166  0.00  0.00    +0.107 C 
ATOM      7  C   UNL     1      -4.655   5.136   2.507  0.00  0.00    +0.162 C 
ATOM      8  O   UNL     1      -5.236   4.069   2.534  0.00  0.00    -0.292 OA
ATOM      9  C   UNL     1      -4.485   5.915   3.782  0.00  0.00    +0.080 C 
ATOM     10  C   UNL     1      -4.406   7.408   3.446  0.00  0.00    +0.014 C 
ATOM     11  C   UNL     1      -3.258   7.623   2.457  0.00  0.00    +0.052 C 
ENDROOT
BRANCH   1  14
ATOM     12  C   UNL     1       0.305   8.823  -0.035  0.00  0.00    +0.014 A 
ATOM     13  C   UNL     1      -0.685   7.860  -0.013  0.00  0.00    +0.026 A 
ATOM     14  C   UNL     1      -2.021   8.239   0.003  0.00  0.00    +0.070 A 
ATOM     15  C   UNL     1      -2.357   9.587   0.007  0.00  0.00    +0.148 A 
ATOM     16  C   UNL     1      -1.363  10.545  -0.010  0.00  0.00    +0.047 A 
ATOM     17  C   UNL     1      -0.034  10.164  -0.031  0.00  0.00    +0.057 A 
BRANCH  17  18
ATOM     18  C   UNL     1       1.049  11.212  -0.049  0.00  0.00    +0.417 C 
ATOM     19  F   UNL     1       1.405  11.538   1.264  0.00  0.00    -0.166 F 
ATOM     20  F   UNL     1       2.168  10.716  -0.726  0.00  0.00    -0.166 F 
ATOM     21  F   UNL     1       0.579  12.357  -0.702  0.00  0.00    -0.166 F 
ENDBRANCH  17  18
BRANCH  15  22
ATOM     22  N   UNL     1      -3.780   9.995   0.028  0.00  0.00    +0.058 N 
ATOM     23  O   UNL     1      -4.074  11.177   0.032  0.00  0.00    -0.126 OA
ATOM     24  O   UNL     1      -4.656   9.149   0.043  0.00  0.00    -0.126 OA
ENDBRANCH  15  22
ENDBRANCH   1  14
BRANCH   4  25
ATOM     25  C   UNL     1      -3.395   3.643   0.038  0.00  0.00    +0.005 A 
ATOM     26  C   UNL     1      -3.636   2.309   0.032  0.00  0.00    +0.014 A 
ATOM     27  C   UNL     1      -2.565   1.434   0.017  0.00  0.00    +0.041 A 
ATOM     28  C   UNL     1      -1.306   1.937   0.019  0.00  0.00    +0.164 A 
ATOM     29  S   UNL     1      -1.611   3.696   0.029  0.00  0.00    -0.068 S 
BRANCH  28  30
ATOM     30  N   UNL     1      -0.014   1.214   0.009  0.00  0.00    +0.063 N 
ATOM     31  O   UNL     1       0.002  -0.004   0.002  0.00  0.00    -0.126 OA
ATOM     32  O   UNL     1       1.032   1.837   0.002  0.00  0.00    -0.126 OA
ENDBRANCH  28  30
ENDBRANCH   4  25
BRANCH   6  33
ATOM     33  N   UNL     1      -3.377   7.515  -2.322  0.00  0.00    -0.345 N 
ATOM     34  H   UNL     1      -2.906   8.363  -2.301  0.00  0.00    +0.144 HD
ATOM     35  H   UNL     1      -3.736   7.181  -3.158  0.00  0.00    +0.144 HD
ENDBRANCH   6  33
BRANCH   5  36
ATOM     36  C   UNL     1      -4.728   5.123  -2.437  0.00  0.00    +0.099 C 
ATOM     37  N   UNL     1      -5.149   4.744  -3.421  0.00  0.00    -0.191 NA
ENDBRANCH   5  36
TORSDOF 7
