REMARK  Name = ZINC38547655
REMARK  11 active torsions:
REMARK  status: ('A' for Active; 'I' for Inactive)
REMARK    1  A    between atoms: C_1  and  C_2
REMARK    2  A    between atoms: N_8  and  C_9
REMARK    3  A    between atoms: C_9  and  C_11
REMARK    4  A    between atoms: C_9  and  C_20
REMARK    5  A    between atoms: C_14  and  C_17
REMARK    6  A    between atoms: C_17  and  C_18
REMARK    7  A    between atoms: C_17  and  C_19
REMARK    8  A    between atoms: C_21  and  C_34
REMARK    9  A    between atoms: C_22  and  C_33
REMARK   10  A    between atoms: C_24  and  N_25
REMARK   11  A    between atoms: C_26  and  C_28
REMARK                            x       y       z     vdW  Elec       q    Type
REMARK                         _______ _______ _______ _____ _____    ______ ____
ROOT
ATOM      1  C   UNL     1      -0.095  -2.026   3.580  0.00  0.00    +0.135 C 
ENDROOT
BRANCH   1   9
ATOM      2  C   UNL     1      -2.591  -6.423   4.430  0.00  0.00    +0.044 C 
ATOM      3  C   UNL     1      -1.863  -5.819   3.257  0.00  0.00    -0.046 A 
ATOM      4  C   UNL     1      -1.732  -6.519   2.065  0.00  0.00    +0.021 A 
ATOM      5  C   UNL     1      -1.059  -5.938   1.009  0.00  0.00    +0.084 A 
ATOM      6  N   UNL     1      -0.541  -4.729   1.120  0.00  0.00    -0.350 N 
ATOM      7  C   UNL     1      -0.644  -4.030   2.239  0.00  0.00    +0.097 A 
ATOM      8  C   UNL     1      -1.314  -4.552   3.341  0.00  0.00    +0.045 A 
ATOM      9  N   UNL     1      -0.082  -2.760   2.312  0.00  0.00    -0.320 N 
ATOM     10  H   UNL     1       0.318  -2.361   1.524  0.00  0.00    +0.148 HD
ATOM     11  H   UNL     1      -0.073  -4.344   0.363  0.00  0.00    +0.166 HD
ENDBRANCH   1   9
BRANCH   1  12
ATOM     12  C   UNL     1      -1.447  -1.390   3.779  0.00  0.00    +0.009 A 
ATOM     13  C   UNL     1      -2.057  -1.407   5.019  0.00  0.00    -0.033 A 
ATOM     14  C   UNL     1      -3.272  -0.826   5.164  0.00  0.00    -0.008 A 
ATOM     15  S   UNL     1      -3.597  -0.226   3.514  0.00  0.00    -0.078 S 
ATOM     16  C   UNL     1      -2.088  -0.784   2.740  0.00  0.00    +0.078 A 
ATOM     17  C   UNL     1      -4.130  -0.716   6.398  0.00  0.00    +0.052 C 
ATOM     18  C   UNL     1      -1.380  -2.063   6.195  0.00  0.00    +0.045 C 
BRANCH  16  19
ATOM     19  N   UNL     1      -1.673  -0.638   1.415  0.00  0.00    -0.273 N 
ATOM     20  C   UNL     1      -2.402   0.104   0.558  0.00  0.00    +0.284 C 
ATOM     21  O   UNL     1      -3.371   0.722   0.961  0.00  0.00    -0.266 OA
ATOM     22  H   UNL     1      -0.860  -1.072   1.111  0.00  0.00    +0.156 HD
BRANCH  20  23
ATOM     23  C   UNL     1      -2.027   0.169  -0.858  0.00  0.00    +0.189 A 
ATOM     24  C   UNL     1      -2.614   0.956  -1.808  0.00  0.00    +0.054 A 
ATOM     25  C   UNL     1      -1.943   0.700  -3.014  0.00  0.00    +0.042 A 
ATOM     26  C   UNL     1      -0.989  -0.220  -2.751  0.00  0.00    +0.196 A 
ATOM     27  O   UNL     1      -1.040  -0.534  -1.449  0.00  0.00    -0.458 OA
ENDBRANCH  20  23
ENDBRANCH  16  19
ENDBRANCH   1  12
BRANCH   1  28
ATOM     28  C   UNL     1       0.964  -0.954   3.550  0.00  0.00    -0.023 A 
ATOM     29  C   UNL     1       1.242  -0.289   2.370  0.00  0.00    +0.006 A 
ATOM     30  C   UNL     1       2.213   0.694   2.343  0.00  0.00    +0.004 A 
ATOM     31  C   UNL     1       2.907   1.012   3.495  0.00  0.00    -0.045 A 
ATOM     32  C   UNL     1       2.629   0.348   4.675  0.00  0.00    +0.004 A 
ATOM     33  C   UNL     1       1.655  -0.632   4.703  0.00  0.00    +0.006 A 
BRANCH  31  34
ATOM     34  C   UNL     1       3.967   2.083   3.465  0.00  0.00    +0.013 C 
ATOM     35  C   UNL     1       3.590   3.201   4.438  0.00  0.00    +0.012 C 
ATOM     36  C   UNL     1       5.312   1.481   3.876  0.00  0.00    +0.012 C 
ENDBRANCH  31  34
ENDBRANCH   1  28
TORSDOF 6
