REMARK  Name = ZINC62127084
REMARK  11 active torsions:
REMARK  status: ('A' for Active; 'I' for Inactive)
REMARK    1  A    between atoms: C_1  and  C_2
REMARK    2  A    between atoms: C_2  and  C_4
REMARK    3  A    between atoms: C_8  and  C_10
REMARK    4  A    between atoms: C_10  and  C_11
REMARK    5  A    between atoms: C_10  and  C_12
REMARK    6  A    between atoms: C_10  and  N_13
REMARK    7  A    between atoms: C_22  and  C_24
REMARK    8  A    between atoms: C_24  and  C_25
REMARK    9  A    between atoms: C_25  and  N_26
REMARK   10  A    between atoms: N_26  and  C_27
REMARK   11  A    between atoms: N_26  and  C_28
REMARK                            x       y       z     vdW  Elec       q    Type
REMARK                         _______ _______ _______ _____ _____    ______ ____
ROOT
ATOM      1  N   UNL     1      -2.069  -3.599  -4.566  0.00  0.00    -0.290 N 
ATOM      2  C   UNL     1      -3.045  -4.316  -5.157  0.00  0.00    +0.303 C 
ATOM      3  O   UNL     1      -4.117  -4.459  -4.601  0.00  0.00    -0.253 OA
ATOM      4  N   UNL     1      -2.833  -4.875  -6.365  0.00  0.00    -0.283 N 
ATOM      5  C   UNL     1      -1.583  -4.624  -7.097  0.00  0.00    +0.128 C 
ATOM      6  C   UNL     1      -0.934  -5.972  -7.433  0.00  0.00    +0.127 C 
ATOM      7  N   UNL     1      -1.948  -6.843  -8.043  0.00  0.00    -0.299 N 
ATOM      8  C   UNL     1      -3.198  -7.094  -7.311  0.00  0.00    +0.127 C 
ATOM      9  C   UNL     1      -3.845  -5.750  -6.972  0.00  0.00    +0.128 C 
ATOM     10  C   UNL     1      -1.736  -7.402  -9.251  0.00  0.00    +0.214 C 
ATOM     11  O   UNL     1      -0.701  -7.187  -9.845  0.00  0.00    -0.276 OA
ATOM     12  H   UNL     1      -1.242  -3.422  -5.040  0.00  0.00    +0.151 HD
ENDROOT
BRANCH   1  13
ATOM     13  C   UNL     1      -2.258  -3.086  -3.207  0.00  0.00    +0.056 C 
ATOM     14  C   UNL     1      -2.514  -4.254  -2.252  0.00  0.00    +0.036 C 
ATOM     15  C   UNL     1      -3.456  -2.135  -3.182  0.00  0.00    +0.036 C 
BRANCH  13  20
ATOM     16  C   UNL     1       0.967  -1.109  -3.316  0.00  0.00    -0.022 A 
ATOM     17  C   UNL     1       1.256  -0.986  -1.956  0.00  0.00    +0.008 A 
ATOM     18  C   UNL     1       0.409  -1.541  -1.020  0.00  0.00    +0.001 A 
ATOM     19  C   UNL     1      -0.726  -2.219  -1.427  0.00  0.00    +0.006 A 
ATOM     20  C   UNL     1      -1.019  -2.345  -2.773  0.00  0.00    -0.024 A 
ATOM     21  C   UNL     1      -0.182  -1.790  -3.719  0.00  0.00    +0.014 A 
BRANCH  16  23
ATOM     22  C   UNL     1       3.275  -1.042  -4.479  0.00  0.00    +0.044 C 
ATOM     23  C   UNL     1       1.871  -0.516  -4.324  0.00  0.00    -0.050 C 
ATOM     24  C   UNL     1       1.446   0.478  -5.092  0.00  0.00    +0.012 C 
ENDBRANCH  16  23
ENDBRANCH  13  20
ENDBRANCH   1  13
BRANCH  10  25
ATOM     25  C   UNL     1      -2.786  -8.293  -9.863  0.00  0.00    +0.077 C 
BRANCH  25  26
ATOM     26  C   UNL     1      -2.299  -8.792 -11.225  0.00  0.00    -0.070 C 
BRANCH  26  27
ATOM     27  N   UNL     1      -3.322  -9.661 -11.822  0.00  0.00    +0.376 N 
ATOM     28  C   UNL     1      -4.529  -8.873 -12.106  0.00  0.00    -0.097 C 
ATOM     29  C   UNL     1      -2.808 -10.236 -13.072  0.00  0.00    -0.097 C 
ATOM     30  H   UNL     1      -3.550 -10.404 -11.179  0.00  0.00    -0.083 HD
ENDBRANCH  26  27
ENDBRANCH  25  26
ENDBRANCH  10  25
TORSDOF 6
