REMARK  Name = ZINC67292386
REMARK  4 active torsions:
REMARK  status: ('A' for Active; 'I' for Inactive)
REMARK    1  A    between atoms: C_3  and  N_9
REMARK    2  A    between atoms: C_11  and  C_21
REMARK    3  A    between atoms: N_23  and  C_24
REMARK    4  A    between atoms: C_24  and  C_25
REMARK                            x       y       z     vdW  Elec       q    Type
REMARK                         _______ _______ _______ _____ _____    ______ ____
ROOT
ATOM      1  N   UNL     1       3.567   2.125  -0.067  0.00  0.00    -0.323 N 
ATOM      2  C   UNL     1       3.688   3.201   0.678  0.00  0.00    +0.212 A 
ATOM      3  C   UNL     1       4.980   3.908   0.790  0.00  0.00    +0.097 A 
ATOM      4  C   UNL     1       4.935   5.264   1.083  0.00  0.00    +0.030 A 
ATOM      5  C   UNL     1       3.614   5.873   1.253  0.00  0.00    +0.019 A 
ATOM      6  C   UNL     1       3.465   7.265   1.282  0.00  0.00    +0.026 A 
ATOM      7  C   UNL     1       2.211   7.812   1.441  0.00  0.00    +0.019 A 
ATOM      8  C   UNL     1       1.098   6.991   1.570  0.00  0.00    +0.019 A 
ATOM      9  C   UNL     1       1.230   5.617   1.545  0.00  0.00    +0.048 A 
ATOM     10  C   UNL     1       2.484   5.045   1.388  0.00  0.00    +0.137 A 
ATOM     11  O   UNL     1       2.628   3.700   1.364  0.00  0.00    -0.439 OA
ATOM     12 BR   UNL     1       2.003   9.691   1.482  0.00  0.00    -0.050 Br
ATOM     13  H   UNL     1       4.329   1.794  -0.569  0.00  0.00    +0.169 HD
ENDROOT
BRANCH   1  16
ATOM     14  C   UNL     1      -0.031   1.530  -0.261  0.00  0.00    +0.040 A 
ATOM     15  C   UNL     1       1.176   2.195  -0.193  0.00  0.00    +0.031 A 
ATOM     16  C   UNL     1       2.367   1.470  -0.134  0.00  0.00    +0.078 A 
ATOM     17  C   UNL     1       2.329   0.072  -0.144  0.00  0.00    +0.149 A 
ATOM     18  C   UNL     1       1.115  -0.582  -0.212  0.00  0.00    +0.078 A 
ATOM     19  C   UNL     1      -0.064   0.145  -0.271  0.00  0.00    +0.126 A 
ATOM     20  F   UNL     1      -1.249  -0.500  -0.337  0.00  0.00    -0.205 F 
ATOM     21  F   UNL     1       3.478  -0.637  -0.087  0.00  0.00    -0.203 F 
ENDBRANCH   1  16
BRANCH   3  22
ATOM     22  C   UNL     1       6.260   3.204   0.601  0.00  0.00    +0.249 C 
ATOM     23  O   UNL     1       6.267   2.032   0.276  0.00  0.00    -0.270 OA
ATOM     24  N   UNL     1       7.423   3.859   0.788  0.00  0.00    -0.309 N 
ATOM     25  H   UNL     1       7.419   4.768   1.126  0.00  0.00    +0.149 HD
BRANCH  24  26
ATOM     26  C   UNL     1       8.694   3.197   0.481  0.00  0.00    +0.136 C 
BRANCH  26  27
ATOM     27  C   UNL     1       9.851   4.152   0.780  0.00  0.00    +0.135 C 
ATOM     28  C   UNL     1      11.204   3.484   0.429  0.00  0.00    +0.035 C 
ATOM     29  C   UNL     1      12.093   4.732   0.177  0.00  0.00    +0.031 C 
ATOM     30  C   UNL     1      11.090   5.728  -0.446  0.00  0.00    +0.160 C 
ATOM     31  O   UNL     1       9.772   5.311  -0.065  0.00  0.00    -0.375 OA
ENDBRANCH  26  27
ENDBRANCH  24  26
ENDBRANCH   3  22
TORSDOF 4
