REMARK  Name = ZINC35404844
REMARK  15 active torsions:
REMARK  status: ('A' for Active; 'I' for Inactive)
REMARK    1  A    between atoms: C_1  and  C_2
REMARK    2  A    between atoms: C_2  and  C_3
REMARK    3  A    between atoms: C_2  and  C_4
REMARK    4  A    between atoms: C_4  and  N_5
REMARK    5  A    between atoms: C_6  and  C_8
REMARK    6  A    between atoms: C_11  and  C_13
REMARK    7  A    between atoms: C_13  and  N_14
REMARK    8  A    between atoms: N_14  and  C_15
REMARK    9  A    between atoms: N_14  and  C_26
REMARK   10  A    between atoms: C_15  and  C_16
REMARK   11  A    between atoms: C_19  and  C_22
REMARK   12  A    between atoms: C_22  and  C_23
REMARK   13  A    between atoms: C_22  and  C_24
REMARK   14  A    between atoms: C_22  and  C_25
REMARK   15  A    between atoms: C_26  and  C_27
REMARK                            x       y       z     vdW  Elec       q    Type
REMARK                         _______ _______ _______ _____ _____    ______ ____
ROOT
ATOM      1  N   UNL     1       0.714  -7.116   1.308  0.00  0.00    +0.389 N 
ATOM      2  H   UNL     1       0.857  -6.420   2.024  0.00  0.00    -0.080 HD
ENDROOT
BRANCH   1   3
ATOM      3  C   UNL     1       0.211  -6.469   0.089  0.00  0.00    -0.014 C 
BRANCH   3   7
ATOM      4  C   UNL     1      -2.326  -3.921   1.031  0.00  0.00    +0.133 A 
ATOM      5  C   UNL     1      -3.383  -4.774   0.860  0.00  0.00    +0.079 A 
ATOM      6  S   UNL     1      -2.626  -6.197   0.384  0.00  0.00    -0.082 S 
ATOM      7  C   UNL     1      -1.030  -5.678   0.416  0.00  0.00    +0.063 A 
ATOM      8  N   UNL     1      -1.115  -4.429   0.784  0.00  0.00    -0.241 NA
BRANCH   4  10
ATOM      9  N   UNL     1      -1.445  -1.716   1.607  0.00  0.00    -0.310 N 
ATOM     10  C   UNL     1      -2.514  -2.523   1.457  0.00  0.00    +0.263 C 
ATOM     11  O   UNL     1      -3.633  -2.098   1.672  0.00  0.00    -0.269 OA
ATOM     12  H   UNL     1      -0.553  -2.055   1.436  0.00  0.00    +0.149 HD
BRANCH   9  13
ATOM     13  C   UNL     1      -1.631  -0.326   2.031  0.00  0.00    +0.107 C 
BRANCH  13  15
ATOM     14  C   UNL     1      -0.472   1.848   2.444  0.00  0.00    +0.009 C 
ATOM     15  C   UNL     1      -0.270   0.366   2.124  0.00  0.00    -0.000 C 
ATOM     16  C   UNL     1       0.559  -0.287   3.232  0.00  0.00    +0.009 C 
ENDBRANCH  13  15
ENDBRANCH   9  13
ENDBRANCH   4  10
ENDBRANCH   3   7
ENDBRANCH   1   3
BRANCH   1  17
ATOM     17  C   UNL     1       1.987  -7.788   1.016  0.00  0.00    -0.042 C 
BRANCH  17  18
ATOM     18  C   UNL     1       3.030  -6.757   0.668  0.00  0.00    -0.064 A 
ATOM     19  C   UNL     1       3.281  -6.448  -0.656  0.00  0.00    +0.002 A 
ATOM     20  C   UNL     1       4.238  -5.503  -0.975  0.00  0.00    +0.004 A 
ATOM     21  C   UNL     1       4.944  -4.867   0.029  0.00  0.00    -0.042 A 
ATOM     22  C   UNL     1       4.692  -5.176   1.353  0.00  0.00    +0.004 A 
ATOM     23  C   UNL     1       3.732  -6.118   1.673  0.00  0.00    +0.002 A 
BRANCH  21  24
ATOM     24  C   UNL     1       5.987  -3.837  -0.319  0.00  0.00    -0.013 C 
ATOM     25  C   UNL     1       5.357  -2.746  -1.187  0.00  0.00    +0.015 C 
ATOM     26  C   UNL     1       6.537  -3.213   0.966  0.00  0.00    +0.015 C 
ATOM     27  C   UNL     1       7.127  -4.506  -1.089  0.00  0.00    +0.015 C 
ENDBRANCH  21  24
ENDBRANCH  17  18
ENDBRANCH   1  17
BRANCH   1  28
ATOM     28  C   UNL     1      -0.265  -8.106   1.777  0.00  0.00    -0.042 C 
BRANCH  28  29
ATOM     29  C   UNL     1       0.193  -8.682   3.092  0.00  0.00    -0.060 A 
ATOM     30  C   UNL     1       0.897  -9.872   3.115  0.00  0.00    +0.005 A 
ATOM     31  C   UNL     1       1.321 -10.404   4.319  0.00  0.00    +0.050 A 
ATOM     32  C   UNL     1       1.038  -9.747   5.505  0.00  0.00    +0.166 A 
ATOM     33  C   UNL     1       0.328  -8.549   5.481  0.00  0.00    +0.166 A 
ATOM     34  C   UNL     1      -0.087  -8.018   4.271  0.00  0.00    +0.051 A 
ATOM     35  O   UNL     1       0.180  -8.104   6.763  0.00  0.00    -0.453 OA
ATOM     36  C   UNL     1       0.449  -9.245   7.600  0.00  0.00    +0.466 C 
ATOM     37  O   UNL     1       1.335 -10.053   6.802  0.00  0.00    -0.453 OA
ENDBRANCH  28  29
ENDBRANCH   1  28
TORSDOF 10
