REMARK  Name = ZINC01116536
REMARK  6 active torsions:
REMARK  status: ('A' for Active; 'I' for Inactive)
REMARK    1  A    between atoms: C_6  and  S_11
REMARK    2  A    between atoms: S_11  and  N_14
REMARK    3  A    between atoms: N_14  and  C_15
REMARK    4  A    between atoms: C_18  and  S_21
REMARK    5  A    between atoms: S_21  and  N_24
REMARK    6  A    between atoms: N_24  and  C_25
REMARK                            x       y       z     vdW  Elec       q    Type
REMARK                         _______ _______ _______ _____ _____    ______ ____
ROOT
ATOM      1  C   UNL     1      -0.362   3.488   1.835  0.00  0.00    +0.048 A 
ATOM      2  C   UNL     1       1.021   3.621   1.805  0.00  0.00    +0.026 A 
ATOM      3  C   UNL     1       1.650   4.476   2.688  0.00  0.00    +0.030 A 
ATOM      4  C   UNL     1       0.906   5.192   3.609  0.00  0.00    +0.109 A 
ATOM      5  C   UNL     1      -0.470   5.057   3.645  0.00  0.00    +0.030 A 
ATOM      6  C   UNL     1      -1.106   4.208   2.761  0.00  0.00    +0.026 A 
ENDROOT
BRANCH   4   7
ATOM      7  S   UNL     1       1.713   6.276   4.739  0.00  0.00    +0.072 S 
ATOM      8  O   UNL     1       3.000   6.542   4.198  0.00  0.00    -0.150 OA
ATOM      9  O   UNL     1       0.786   7.309   5.043  0.00  0.00    -0.150 OA
BRANCH   7  10
ATOM     10  N   UNL     1       1.955   5.429   6.142  0.00  0.00    -0.216 N 
ATOM     11  H   UNL     1       1.501   5.699   6.956  0.00  0.00    +0.174 HD
BRANCH  10  12
ATOM     12  C   UNL     1       2.813   4.326   6.153  0.00  0.00    +0.048 A 
ATOM     13  C   UNL     1       2.293   3.041   6.234  0.00  0.00    +0.027 A 
ATOM     14  C   UNL     1       3.143   1.952   6.240  0.00  0.00    +0.040 A 
ATOM     15  C   UNL     1       4.513   2.141   6.176  0.00  0.00    +0.124 A 
ATOM     16  C   UNL     1       5.034   3.422   6.101  0.00  0.00    +0.040 A 
ATOM     17  C   UNL     1       4.188   4.513   6.089  0.00  0.00    +0.027 A 
ATOM     18  F   UNL     1       5.342   1.075   6.187  0.00  0.00    -0.205 F 
ENDBRANCH  10  12
ENDBRANCH   7  10
ENDBRANCH   4   7
BRANCH   1  19
ATOM     19  N   UNL     1      -1.002   2.628   0.939  0.00  0.00    -0.216 N 
ATOM     20  H   UNL     1      -1.683   2.016   1.258  0.00  0.00    +0.174 HD
BRANCH  19  21
ATOM     21  S   UNL     1      -0.596   2.653  -0.666  0.00  0.00    +0.072 S 
ATOM     22  O   UNL     1      -1.480   1.754  -1.322  0.00  0.00    -0.150 OA
ATOM     23  O   UNL     1       0.817   2.514  -0.730  0.00  0.00    -0.150 OA
BRANCH  21  29
ATOM     24  C   UNL     1      -0.980   9.064  -2.607  0.00  0.00    +0.001 A 
ATOM     25  C   UNL     1       0.247   8.833  -1.988  0.00  0.00    +0.001 A 
ATOM     26  C   UNL     1       0.567   7.602  -1.503  0.00  0.00    +0.008 A 
ATOM     27  C   UNL     1      -0.352   6.546  -1.625  0.00  0.00    -0.016 A 
ATOM     28  C   UNL     1      -0.058   5.262  -1.137  0.00  0.00    +0.037 A 
ATOM     29  C   UNL     1      -0.972   4.263  -1.274  0.00  0.00    +0.109 A 
ATOM     30  C   UNL     1      -2.200   4.494  -1.892  0.00  0.00    +0.029 A 
ATOM     31  C   UNL     1      -2.520   5.725  -2.377  0.00  0.00    +0.010 A 
ATOM     32  C   UNL     1      -1.600   6.781  -2.254  0.00  0.00    -0.018 A 
ATOM     33  C   UNL     1      -1.895   8.065  -2.744  0.00  0.00    +0.008 A 
ENDBRANCH  21  29
ENDBRANCH  19  21
ENDBRANCH   1  19
TORSDOF 6
