REMARK  Name = ZINC06197169
REMARK  16 active torsions:
REMARK  status: ('A' for Active; 'I' for Inactive)
REMARK    1  A    between atoms: C_1  and  C_2
REMARK    2  A    between atoms: C_2  and  O_3
REMARK    3  A    between atoms: O_3  and  C_4
REMARK    4  A    between atoms: C_9  and  C_10
REMARK    5  A    between atoms: C_15  and  C_20
REMARK    6  A    between atoms: C_23  and  O_28
REMARK    7  A    between atoms: C_24  and  O_26
REMARK    8  A    between atoms: O_26  and  C_27
REMARK    9  A    between atoms: O_28  and  C_29
REMARK   10  A    between atoms: C_31  and  C_40
REMARK   11  A    between atoms: C_32  and  C_33
REMARK   12  A    between atoms: C_33  and  O_35
REMARK   13  A    between atoms: O_35  and  C_36
REMARK   14  A    between atoms: C_36  and  C_37
REMARK   15  A    between atoms: C_37  and  C_38
REMARK   16  A    between atoms: C_37  and  C_39
REMARK                            x       y       z     vdW  Elec       q    Type
REMARK                         _______ _______ _______ _____ _____    ______ ____
ROOT
ATOM      1  C   UNL     1       0.249  -2.172   1.177  0.00  0.00    +0.096 C 
ATOM      2  C   UNL     1       0.527  -2.708  -0.205  0.00  0.00    +0.024 C 
ATOM      3  C   UNL     1       0.291  -1.952  -1.298  0.00  0.00    +0.016 C 
ATOM      4  C   UNL     1       0.569  -2.480  -2.683  0.00  0.00    +0.059 C 
ATOM      5  C   UNL     1       0.375  -3.998  -2.704  0.00  0.00    +0.032 C 
ATOM      6  C   UNL     1       1.317  -4.622  -1.669  0.00  0.00    +0.088 C 
ATOM      7  C   UNL     1       1.035  -4.014  -0.322  0.00  0.00    +0.162 C 
ATOM      8  O   UNL     1       1.250  -4.663   0.683  0.00  0.00    -0.292 OA
ATOM      9  N   UNL     1      -0.210  -0.682  -1.170  0.00  0.00    -0.321 N 
ATOM     10  C   UNL     1      -0.096  -0.009   0.014  0.00  0.00    +0.016 C 
ATOM     11  C   UNL     1       0.124  -0.677   1.159  0.00  0.00    +0.065 C 
ATOM     12  C   UNL     1      -0.226   1.493   0.036  0.00  0.00    +0.061 C 
ATOM     13  H   UNL     1      -0.707  -0.199  -2.023  0.00  0.00    +0.152 HD
ENDROOT
BRANCH   1  19
ATOM     14  C   UNL     1      -1.026  -3.558   2.832  0.00  0.00    +0.125 A 
ATOM     15  C   UNL     1      -2.210  -4.104   3.306  0.00  0.00    +0.046 A 
ATOM     16  C   UNL     1      -3.394  -3.869   2.634  0.00  0.00    +0.004 A 
ATOM     17  C   UNL     1      -3.400  -3.087   1.493  0.00  0.00    +0.001 A 
ATOM     18  C   UNL     1      -2.222  -2.538   1.022  0.00  0.00    +0.008 A 
ATOM     19  C   UNL     1      -1.035  -2.770   1.691  0.00  0.00    +0.006 A 
BRANCH  14  20
ATOM     20  O   UNL     1       0.141  -3.793   3.488  0.00  0.00    -0.492 OA
BRANCH  20  22
ATOM     21  C   UNL     1       1.476  -4.763   5.253  0.00  0.00    +0.048 C 
ATOM     22  C   UNL     1       0.076  -4.614   4.656  0.00  0.00    +0.225 C 
ENDBRANCH  20  22
ENDBRANCH  14  20
ENDBRANCH   1  19
BRANCH   5  23
ATOM     23  C   UNL     1       0.703  -4.532  -4.074  0.00  0.00    -0.040 A 
ATOM     24  C   UNL     1       1.961  -4.329  -4.610  0.00  0.00    +0.008 A 
ATOM     25  C   UNL     1       2.269  -4.822  -5.865  0.00  0.00    +0.049 A 
ATOM     26  C   UNL     1       1.312  -5.512  -6.592  0.00  0.00    +0.161 A 
ATOM     27  C   UNL     1       0.045  -5.712  -6.054  0.00  0.00    +0.162 A 
ATOM     28  C   UNL     1      -0.256  -5.220  -4.794  0.00  0.00    +0.053 A 
BRANCH  27  29
ATOM     29  O   UNL     1      -0.898  -6.388  -6.764  0.00  0.00    -0.491 OA
ATOM     30  C   UNL     1      -2.177  -6.556  -6.149  0.00  0.00    +0.277 C 
ENDBRANCH  27  29
BRANCH  26  31
ATOM     31  O   UNL     1       1.612  -5.992  -7.828  0.00  0.00    -0.491 OA
ATOM     32  C   UNL     1       2.933  -5.750  -8.316  0.00  0.00    +0.277 C 
ENDBRANCH  26  31
ENDBRANCH   5  23
BRANCH  11  33
ATOM     33  C   UNL     1       0.240   0.043   2.371  0.00  0.00    +0.338 C 
ATOM     34  O   UNL     1       1.340   0.282   2.834  0.00  0.00    -0.245 OA
BRANCH  33  35
ATOM     35  O   UNL     1      -0.869   0.466   3.014  0.00  0.00    -0.461 OA
BRANCH  35  36
ATOM     36  C   UNL     1      -0.677   1.187   4.233  0.00  0.00    +0.235 C 
BRANCH  36  37
ATOM     37  C   UNL     1      -2.037   1.580   4.813  0.00  0.00    +0.020 C 
ATOM     38  C   UNL     1      -2.807   0.318   5.207  0.00  0.00    +0.010 C 
ATOM     39  C   UNL     1      -1.831   2.458   6.049  0.00  0.00    +0.010 C 
ENDBRANCH  36  37
ENDBRANCH  35  36
ENDBRANCH  33  35
ENDBRANCH  11  33
TORSDOF 10
