REMARK  Name = ZINC14161325
REMARK  6 active torsions:
REMARK  status: ('A' for Active; 'I' for Inactive)
REMARK    1  A    between atoms: C_1  and  C_2
REMARK    2  A    between atoms: C_4  and  C_32
REMARK    3  A    between atoms: N_10  and  C_11
REMARK    4  A    between atoms: C_11  and  N_13
REMARK    5  A    between atoms: N_13  and  C_14
REMARK    6  A    between atoms: N_22  and  C_25
REMARK                            x       y       z     vdW  Elec       q    Type
REMARK                         _______ _______ _______ _____ _____    ______ ____
ROOT
ATOM      1  C   UNL     1      -0.736   5.610  -1.569  0.00  0.00    +0.066 C 
ATOM      2  C   UNL     1      -1.512   4.705  -2.491  0.00  0.00    +0.044 A 
ATOM      3  C   UNL     1      -2.410   5.237  -3.404  0.00  0.00    +0.046 A 
ATOM      4  C   UNL     1      -3.103   4.369  -4.233  0.00  0.00    +0.044 A 
ATOM      5  N   UNL     1      -2.888   3.067  -4.129  0.00  0.00    -0.219 NA
ATOM      6  C   UNL     1      -2.023   2.593  -3.246  0.00  0.00    +0.222 A 
ATOM      7  N   UNL     1      -1.349   3.394  -2.436  0.00  0.00    -0.219 NA
ATOM      8  N   UNL     1      -1.823   1.221  -3.164  0.00  0.00    -0.258 N 
ATOM      9  C   UNL     1      -1.016   0.705  -2.187  0.00  0.00    +0.180 C 
ATOM     10  N   UNL     1      -0.759  -0.592  -2.158  0.00  0.00    -0.164 NA
ATOM     11  N   UNL     1      -0.475   1.528  -1.242  0.00  0.00    -0.302 N 
ATOM     12  C   UNL     1       0.955   1.869  -1.266  0.00  0.00    +0.126 C 
ATOM     13  C   UNL     1       1.547   1.603   0.122  0.00  0.00    +0.124 C 
ATOM     14  N   UNL     1       0.752   2.314   1.133  0.00  0.00    -0.327 N 
ATOM     15  C   UNL     1      -0.631   1.821   1.174  0.00  0.00    +0.124 C 
ATOM     16  C   UNL     1      -1.308   2.099  -0.172  0.00  0.00    +0.126 C 
ATOM     17  C   UNL     1      -4.089   4.901  -5.241  0.00  0.00    +0.066 C 
ATOM     18  H   UNL     1      -2.255   0.629  -3.799  0.00  0.00    +0.157 HD
ENDROOT
BRANCH  14  19
ATOM     19  C   UNL     1       1.352   2.227   2.393  0.00  0.00    +0.030 A 
ATOM     20  C   UNL     1       0.634   1.728   3.472  0.00  0.00    +0.024 A 
ATOM     21  C   UNL     1       1.231   1.637   4.714  0.00  0.00    +0.022 A 
ATOM     22  C   UNL     1       2.539   2.055   4.886  0.00  0.00    +0.041 A 
ATOM     23  C   UNL     1       3.255   2.558   3.814  0.00  0.00    +0.022 A 
ATOM     24  C   UNL     1       2.665   2.645   2.569  0.00  0.00    +0.024 A 
ATOM     25 CL   UNL     1       3.284   1.947   6.451  0.00  0.00    -0.084 Cl
ENDBRANCH  14  19
BRANCH  10  26
ATOM     26  C   UNL     1      -0.118  -1.125  -1.108  0.00  0.00    +0.157 C 
ATOM     27  S   UNL     1      -0.782  -0.983   0.463  0.00  0.00    -0.017 S 
BRANCH  26  28
ATOM     28  N   UNL     1       1.050  -1.774  -1.290  0.00  0.00    -0.322 N 
ATOM     29  H   UNL     1       1.426  -1.854  -2.180  0.00  0.00    +0.148 HD
BRANCH  28  30
ATOM     30  C   UNL     1       1.750  -2.356  -0.143  0.00  0.00    +0.072 C 
ATOM     31  C   UNL     1       2.683  -1.307   0.496  0.00  0.00    +0.022 C 
ATOM     32  C   UNL     1       3.930  -2.118   0.925  0.00  0.00    +0.002 C 
ATOM     33  C   UNL     1       4.094  -3.132  -0.234  0.00  0.00    +0.002 C 
ATOM     34  C   UNL     1       2.647  -3.517  -0.607  0.00  0.00    +0.022 C 
ENDBRANCH  28  30
ENDBRANCH  26  28
ENDBRANCH  10  26
TORSDOF 4
