REMARK  Name = ZINC43591268
REMARK  8 active torsions:
REMARK  status: ('A' for Active; 'I' for Inactive)
REMARK    1  A    between atoms: C_1  and  C_2
REMARK    2  A    between atoms: C_2  and  O_3
REMARK    3  A    between atoms: O_3  and  C_4
REMARK    4  A    between atoms: C_7  and  C_10
REMARK    5  A    between atoms: N_15  and  C_16
REMARK    6  A    between atoms: C_16  and  N_17
REMARK    7  A    between atoms: C_21  and  C_29
REMARK    8  A    between atoms: C_26  and  C_28
REMARK                            x       y       z     vdW  Elec       q    Type
REMARK                         _______ _______ _______ _____ _____    ______ ____
ROOT
ATOM      1  C   UNL     1      -2.631  -7.390   1.915  0.00  0.00    +0.043 C 
ENDROOT
BRANCH   1   2
ATOM      2  N   UNL     1      -3.712  -7.668   2.864  0.00  0.00    -0.241 N 
ATOM      3  C   UNL     1      -3.951  -6.939   3.974  0.00  0.00    +0.245 C 
ATOM      4  O   UNL     1      -3.338  -5.968   4.361  0.00  0.00    -0.273 OA
ATOM      5  C   UNL     1      -5.146  -7.589   4.633  0.00  0.00    +0.118 C 
ATOM      6  C   UNL     1      -6.310  -6.607   4.711  0.00  0.00    +0.019 C 
ATOM      7  C   UNL     1      -5.925  -5.428   5.609  0.00  0.00    +0.006 C 
ATOM      8  C   UNL     1      -5.578  -5.946   7.006  0.00  0.00    +0.001 C 
ATOM      9  C   UNL     1      -4.396  -6.914   6.915  0.00  0.00    +0.006 C 
ATOM     10  C   UNL     1      -4.776  -8.098   6.022  0.00  0.00    +0.019 C 
ATOM     11  C   UNL     1      -3.588  -9.056   5.913  0.00  0.00    +0.010 C 
ATOM     12  C   UNL     1      -6.637  -6.092   3.308  0.00  0.00    +0.010 C 
ATOM     13  N   UNL     1      -5.478  -8.710   3.745  0.00  0.00    -0.284 N 
ATOM     14  C   UNL     1      -4.587  -8.672   2.735  0.00  0.00    +0.308 C 
ATOM     15  O   UNL     1      -4.576  -9.463   1.812  0.00  0.00    -0.252 OA
ATOM     16  H   UNL     1      -6.198  -9.350   3.860  0.00  0.00    +0.151 HD
ENDBRANCH   1   2
BRANCH   1  21
ATOM     17  C   UNL     1      -2.001  -6.092  -0.011  0.00  0.00    -0.036 C 
ATOM     18  C   UNL     1      -2.362  -6.572  -1.433  0.00  0.00    -0.012 C 
ATOM     19  C   UNL     1      -3.402  -7.693  -1.169  0.00  0.00    -0.020 C 
ATOM     20  C   UNL     1      -4.158  -7.135   0.062  0.00  0.00    -0.076 C 
ATOM     21  N   UNL     1      -3.115  -6.469   0.878  0.00  0.00    +0.395 N 
ATOM     22  H   UNL     1      -3.498  -5.642   1.311  0.00  0.00    -0.079 HD
BRANCH  17  26
ATOM     23  C   UNL     1      -1.498  -1.848   0.006  0.00  0.00    +0.121 A 
ATOM     24  C   UNL     1      -0.388  -2.679  -0.003  0.00  0.00    +0.046 A 
ATOM     25  C   UNL     1      -0.553  -4.051  -0.008  0.00  0.00    +0.005 A 
ATOM     26  C   UNL     1      -1.823  -4.596  -0.005  0.00  0.00    -0.061 A 
ATOM     27  C   UNL     1      -2.932  -3.769   0.004  0.00  0.00    +0.005 A 
ATOM     28  C   UNL     1      -2.772  -2.397   0.016  0.00  0.00    +0.046 A 
BRANCH  23  29
ATOM     29  O   UNL     1      -1.339  -0.499   0.012  0.00  0.00    -0.492 OA
BRANCH  29  31
ATOM     30  C   UNL     1      -0.019   1.526   0.010  0.00  0.00    +0.048 C 
ATOM     31  C   UNL     1       0.002  -0.004   0.002  0.00  0.00    +0.225 C 
ENDBRANCH  29  31
ENDBRANCH  23  29
ENDBRANCH  17  26
ENDBRANCH   1  21
TORSDOF 5
