REMARK  Name = ZINC22108484
REMARK  12 active torsions:
REMARK  status: ('A' for Active; 'I' for Inactive)
REMARK    1  A    between atoms: C_1  and  C_2
REMARK    2  A    between atoms: C_2  and  C_4
REMARK    3  A    between atoms: C_2  and  N_14
REMARK    4  A    between atoms: N_14  and  C_15
REMARK    5  A    between atoms: C_15  and  C_16
REMARK    6  A    between atoms: C_19  and  C_21
REMARK    7  A    between atoms: C_23  and  C_31
REMARK    8  A    between atoms: C_25  and  C_27
REMARK    9  A    between atoms: C_27  and  O_29
REMARK   10  A    between atoms: O_29  and  C_30
REMARK   11  A    between atoms: C_31  and  O_33
REMARK   12  A    between atoms: O_33  and  C_34
REMARK                            x       y       z     vdW  Elec       q    Type
REMARK                         _______ _______ _______ _____ _____    ______ ____
ROOT
ATOM      1  C   UNL     1       3.021  -3.954  -3.873  0.00  0.00    +0.089 A 
ATOM      2  C   UNL     1       1.938  -4.754  -3.936  0.00  0.00    +0.043 A 
ATOM      3  C   UNL     1       2.403  -6.083  -3.878  0.00  0.00    +0.050 A 
ATOM      4  C   UNL     1       3.756  -6.020  -3.773  0.00  0.00    +0.135 A 
ATOM      5  O   UNL     1       4.117  -4.723  -3.771  0.00  0.00    -0.462 OA
ENDROOT
BRANCH   4   6
ATOM      6  C   UNL     1       4.674  -7.176  -3.677  0.00  0.00    +0.019 A 
ATOM      7  C   UNL     1       4.163  -8.473  -3.685  0.00  0.00    +0.026 A 
ATOM      8  C   UNL     1       5.029  -9.564  -3.599  0.00  0.00    +0.060 A 
ATOM      9  C   UNL     1       6.404  -9.356  -3.495  0.00  0.00    +0.030 A 
ATOM     10  C   UNL     1       6.914  -8.058  -3.482  0.00  0.00    +0.060 A 
ATOM     11  C   UNL     1       6.048  -6.968  -3.574  0.00  0.00    +0.026 A 
BRANCH  10  12
ATOM     12  C   UNL     1       8.371  -7.838  -3.371  0.00  0.00    +0.339 C 
ATOM     13  O   UNL     1       8.815  -6.707  -3.359  0.00  0.00    -0.245 OA
BRANCH  12  14
ATOM     14  O   UNL     1       9.206  -8.891  -3.283  0.00  0.00    -0.464 OA
ATOM     15  C   UNL     1      10.625  -8.599  -3.176  0.00  0.00    +0.280 C 
ENDBRANCH  12  14
ENDBRANCH  10  12
BRANCH   8  16
ATOM     16  C   UNL     1       4.489 -10.939  -3.613  0.00  0.00    +0.339 C 
ATOM     17  O   UNL     1       3.291 -11.120  -3.704  0.00  0.00    -0.245 OA
BRANCH  16  18
ATOM     18  O   UNL     1       5.324 -11.992  -3.525  0.00  0.00    -0.464 OA
ATOM     19  C   UNL     1       4.723 -13.314  -3.544  0.00  0.00    +0.280 C 
ENDBRANCH  16  18
ENDBRANCH   8  16
ENDBRANCH   4   6
BRANCH   1  20
ATOM     20  C   UNL     1       3.003  -2.448  -3.905  0.00  0.00    -0.007 C 
BRANCH  20  21
ATOM     21  N   UNL     1       2.890  -1.930  -2.534  0.00  0.00    +0.386 N 
ATOM     22  H   UNL     1       3.750  -2.288  -1.950  0.00  0.00    -0.085 HD
ATOM     23  H   UNL     1       1.959  -2.312  -2.089  0.00  0.00    -0.085 HD
BRANCH  21  25
ATOM     24  C   UNL     1       4.305   0.068  -2.537  0.00  0.00    -0.013 C 
ATOM     25  C   UNL     1       2.870  -0.461  -2.526  0.00  0.00    -0.068 C 
BRANCH  25  26
ATOM     26  C   UNL     1       2.154   0.032  -1.268  0.00  0.00    -0.041 C 
ATOM     27  C   UNL     1       0.718  -0.497  -1.257  0.00  0.00    +0.009 C 
ATOM     28  C   UNL     1       0.002  -0.004   0.002  0.00  0.00    -0.010 C 
ATOM     29  C   UNL     1      -0.019   1.526   0.010  0.00  0.00    +0.007 C 
ATOM     30  C   UNL     1       1.417   2.055  -0.000  0.00  0.00    -0.010 C 
ATOM     31  C   UNL     1       2.133   1.562  -1.259  0.00  0.00    +0.009 C 
ATOM     32  C   UNL     1       2.157   1.548   1.239  0.00  0.00    +0.007 C 
ATOM     33  C   UNL     1       2.178   0.019   1.231  0.00  0.00    -0.010 C 
ATOM     34  C   UNL     1       0.742  -0.511   1.242  0.00  0.00    +0.007 C 
ATOM     35  C   UNL     1       2.894  -0.475  -0.028  0.00  0.00    +0.009 C 
ENDBRANCH  25  26
ENDBRANCH  21  25
ENDBRANCH  20  21
ENDBRANCH   1  20
TORSDOF 9
