REMARK  Name = ZINC36245337
REMARK  15 active torsions:
REMARK  status: ('A' for Active; 'I' for Inactive)
REMARK    1  A    between atoms: C_1  and  C_2
REMARK    2  A    between atoms: C_7  and  N_12
REMARK    3  A    between atoms: C_9  and  C_11
REMARK    4  A    between atoms: C_13  and  C_15
REMARK    5  A    between atoms: C_15  and  C_17
REMARK    6  A    between atoms: C_15  and  O_18
REMARK    7  A    between atoms: O_18  and  C_19
REMARK    8  A    between atoms: C_19  and  C_21
REMARK    9  A    between atoms: C_26  and  S_27
REMARK   10  A    between atoms: S_27  and  C_28
REMARK   11  A    between atoms: C_28  and  C_30
REMARK   12  A    between atoms: C_28  and  C_31
REMARK   13  A    between atoms: N_33  and  C_34
REMARK   14  A    between atoms: C_39  and  C_44
REMARK   15  A    between atoms: C_41  and  C_43
REMARK                            x       y       z     vdW  Elec       q    Type
REMARK                         _______ _______ _______ _____ _____    ______ ____
ROOT
ATOM      1  C   UNL     1      -3.573  -7.165   3.765  0.00  0.00    +0.091 A 
ATOM      2  C   UNL     1      -2.499  -8.064   3.783  0.00  0.00    +0.019 A 
ATOM      3  C   UNL     1      -2.653  -9.258   4.464  0.00  0.00    +0.021 A 
ATOM      4  C   UNL     1      -3.851  -9.530   5.102  0.00  0.00    +0.112 A 
ATOM      5  N   UNL     1      -4.851  -8.672   5.074  0.00  0.00    -0.248 NA
ATOM      6  C   UNL     1      -4.757  -7.511   4.441  0.00  0.00    +0.112 A 
ENDROOT
BRANCH   1   7
ATOM      7  C   UNL     1      -3.463  -5.880   3.055  0.00  0.00    +0.342 C 
ATOM      8  O   UNL     1      -4.401  -5.106   3.050  0.00  0.00    -0.245 OA
BRANCH   7   9
ATOM      9  O   UNL     1      -2.324  -5.561   2.411  0.00  0.00    -0.449 OA
BRANCH   9  10
ATOM     10  C   UNL     1      -2.287  -4.298   1.743  0.00  0.00    +0.259 C 
ATOM     11  C   UNL     1      -2.779  -4.467   0.305  0.00  0.00    +0.062 C 
BRANCH  10  13
ATOM     12  N   UNL     1      -0.612  -2.548   1.244  0.00  0.00    -0.309 N 
ATOM     13  C   UNL     1      -0.873  -3.776   1.733  0.00  0.00    +0.254 C 
ATOM     14  O   UNL     1       0.030  -4.462   2.164  0.00  0.00    -0.272 OA
ATOM     15  H   UNL     1      -1.333  -2.000   0.898  0.00  0.00    +0.149 HD
BRANCH  12  21
ATOM     16  C   UNL     1      -0.019   1.526   0.010  0.00  0.00    +0.008 C 
ATOM     17  C   UNL     1       0.002  -0.004   0.002  0.00  0.00    -0.009 C 
ATOM     18  C   UNL     1       0.718  -0.497  -1.257  0.00  0.00    +0.003 C 
ATOM     19  C   UNL     1       0.739  -2.027  -1.265  0.00  0.00    +0.002 C 
ATOM     20  C   UNL     1       1.479  -2.534  -0.026  0.00  0.00    +0.022 C 
ATOM     21  C   UNL     1       0.763  -2.041   1.233  0.00  0.00    +0.076 C 
ATOM     22  C   UNL     1       0.742  -0.511   1.242  0.00  0.00    +0.009 C 
ATOM     23  C   UNL     1       0.026  -0.018   2.500  0.00  0.00    +0.009 C 
ENDBRANCH  12  21
ENDBRANCH  10  13
ENDBRANCH   9  10
ENDBRANCH   7   9
ENDBRANCH   1   7
BRANCH   6  24
ATOM     24  S   UNL     1      -6.124  -6.399   4.442  0.00  0.00    -0.093 S 
BRANCH  24  25
ATOM     25  C   UNL     1      -7.388  -7.258   5.418  0.00  0.00    +0.135 C 
ATOM     26  C   UNL     1      -6.905  -7.406   6.862  0.00  0.00    +0.029 C 
BRANCH  25  27
ATOM     27  C   UNL     1      -8.667  -6.461   5.396  0.00  0.00    +0.226 C 
ATOM     28  O   UNL     1      -8.643  -5.282   5.112  0.00  0.00    -0.275 OA
ATOM     29  N   UNL     1      -9.839  -7.059   5.691  0.00  0.00    -0.311 N 
ATOM     30  H   UNL     1      -9.859  -8.002   5.918  0.00  0.00    +0.149 HD
BRANCH  29  31
ATOM     31  C   UNL     1     -11.082  -6.284   5.669  0.00  0.00    +0.076 C 
ATOM     32  C   UNL     1     -11.269  -5.582   7.016  0.00  0.00    +0.022 C 
ATOM     33  C   UNL     1     -12.567  -4.773   6.993  0.00  0.00    +0.002 C 
ATOM     34  C   UNL     1     -13.749  -5.712   6.739  0.00  0.00    +0.003 C 
ATOM     35  C   UNL     1     -13.562  -6.414   5.393  0.00  0.00    -0.009 C 
ATOM     36  C   UNL     1     -12.263  -7.223   5.415  0.00  0.00    +0.009 C 
ATOM     37  C   UNL     1     -12.333  -8.268   6.530  0.00  0.00    +0.009 C 
ATOM     38  C   UNL     1     -14.743  -7.353   5.139  0.00  0.00    +0.008 C 
ENDBRANCH  29  31
ENDBRANCH  25  27
ENDBRANCH  24  25
ENDBRANCH   6  24
TORSDOF 9
