REMARK  Name = ZINC35892030
REMARK  6 active torsions:
REMARK  status: ('A' for Active; 'I' for Inactive)
REMARK    1  A    between atoms: C_7  and  C_11
REMARK    2  A    between atoms: C_11  and  C_13
REMARK    3  A    between atoms: C_11  and  C_29
REMARK    4  A    between atoms: C_13  and  C_14
REMARK    5  A    between atoms: N_19  and  C_22
REMARK    6  A    between atoms: C_33  and  N_35
REMARK                            x       y       z     vdW  Elec       q    Type
REMARK                         _______ _______ _______ _____ _____    ______ ____
ROOT
ATOM      1  C   UNL     1       0.666  -3.275  -0.021  0.00  0.00    +0.060 C 
ENDROOT
BRANCH   1   8
ATOM      2  C   UNL     1      -0.017   1.362   0.009  0.00  0.00    +0.001 A 
ATOM      3  C   UNL     1       1.170   2.083   0.002  0.00  0.00    +0.002 A 
ATOM      4  C   UNL     1       2.386   1.436  -0.013  0.00  0.00    +0.026 A 
ATOM      5  C   UNL     1       2.428   0.046  -0.021  0.00  0.00    +0.047 A 
ATOM      6  C   UNL     1       1.223  -0.681  -0.013  0.00  0.00    +0.003 A 
ATOM      7  C   UNL     1       0.002  -0.004   0.002  0.00  0.00    +0.010 A 
ATOM      8  C   UNL     1       1.604  -2.095  -0.025  0.00  0.00    -0.015 A 
ATOM      9  C   UNL     1       2.945  -2.141  -0.038  0.00  0.00    +0.087 A 
ATOM     10  N   UNL     1       3.455  -0.871  -0.036  0.00  0.00    -0.360 N 
ATOM     11  H   UNL     1       4.399  -0.650  -0.044  0.00  0.00    +0.165 HD
ENDBRANCH   1   8
BRANCH   1  12
ATOM     12  C   UNL     1       0.898  -4.104  -1.258  0.00  0.00    -0.037 A 
ATOM     13  C   UNL     1       2.138  -4.669  -1.490  0.00  0.00    +0.004 A 
ATOM     14  C   UNL     1       2.350  -5.429  -2.625  0.00  0.00    +0.003 A 
ATOM     15  C   UNL     1       1.322  -5.625  -3.528  0.00  0.00    +0.033 A 
ATOM     16  C   UNL     1       0.082  -5.061  -3.296  0.00  0.00    +0.126 A 
ATOM     17  C   UNL     1      -0.132  -4.304  -2.159  0.00  0.00    +0.037 A 
BRANCH  16  18
ATOM     18  N   UNL     1      -1.019  -5.270  -4.263  0.00  0.00    +0.056 N 
ATOM     19  O   UNL     1      -0.833  -5.934  -5.256  0.00  0.00    -0.126 OA
ATOM     20  O   UNL     1      -2.104  -4.776  -4.060  0.00  0.00    -0.126 OA
ENDBRANCH  16  18
ENDBRANCH   1  12
BRANCH   1  21
ATOM     21  C   UNL     1       0.927  -4.130   1.221  0.00  0.00    +0.109 C 
BRANCH  21  22
ATOM     22  C   UNL     1      -0.090  -5.240   1.289  0.00  0.00    +0.217 C 
ATOM     23  O   UNL     1      -0.939  -5.338   0.429  0.00  0.00    -0.276 OA
ATOM     24  N   UNL     1      -0.055  -6.124   2.306  0.00  0.00    -0.298 N 
ATOM     25  C   UNL     1       0.964  -6.014   3.359  0.00  0.00    +0.126 C 
ATOM     26  C   UNL     1       0.259  -5.944   4.719  0.00  0.00    +0.124 C 
ATOM     27  N   UNL     1      -0.723  -7.035   4.795  0.00  0.00    -0.325 N 
ATOM     28  C   UNL     1      -1.742  -7.146   3.743  0.00  0.00    +0.124 C 
ATOM     29  C   UNL     1      -1.040  -7.212   2.385  0.00  0.00    +0.126 C 
BRANCH  27  30
ATOM     30  C   UNL     1      -0.687  -7.952   5.850  0.00  0.00    +0.065 A 
ATOM     31  C   UNL     1      -1.408  -7.706   7.011  0.00  0.00    +0.026 A 
ATOM     32  C   UNL     1      -1.371  -8.614   8.051  0.00  0.00    +0.002 A 
ATOM     33  C   UNL     1      -0.617  -9.768   7.939  0.00  0.00    +0.003 A 
ATOM     34  C   UNL     1       0.104 -10.017   6.785  0.00  0.00    +0.040 A 
ATOM     35  C   UNL     1       0.067  -9.116   5.737  0.00  0.00    +0.144 A 
ATOM     36  F   UNL     1       0.766  -9.362   4.608  0.00  0.00    -0.204 F 
ENDBRANCH  27  30
ENDBRANCH  21  22
ENDBRANCH   1  21
TORSDOF 6
