REMARK  Name = ZINC42714609
REMARK  5 active torsions:
REMARK  status: ('A' for Active; 'I' for Inactive)
REMARK    1  A    between atoms: C_1  and  C_2
REMARK    2  A    between atoms: C_2  and  O_3
REMARK    3  A    between atoms: O_3  and  C_4
REMARK    4  A    between atoms: C_4  and  C_6
REMARK    5  A    between atoms: C_12  and  C_14
REMARK                            x       y       z     vdW  Elec       q    Type
REMARK                         _______ _______ _______ _____ _____    ______ ____
ROOT
ATOM      1  C   UNL     1      -3.110  -2.459  -0.094  0.00  0.00    +0.185 C 
ATOM      2  C   UNL     1      -4.110  -2.083   1.020  0.00  0.00    +0.035 C 
ATOM      3  C   UNL     1      -4.934  -3.385   1.202  0.00  0.00    +0.021 C 
ATOM      4  C   UNL     1      -3.856  -4.471   0.965  0.00  0.00    +0.109 C 
ATOM      5  N   UNL     1      -2.997  -3.925  -0.106  0.00  0.00    -0.283 N 
ATOM      6  C   UNL     1      -2.237  -4.647  -0.953  0.00  0.00    +0.264 C 
ATOM      7  O   UNL     1      -1.648  -4.095  -1.864  0.00  0.00    -0.268 OA
ENDROOT
BRANCH   6   8
ATOM      8  C   UNL     1      -2.120  -6.098  -0.777  0.00  0.00    +0.104 A 
ATOM      9  C   UNL     1      -1.484  -6.974  -1.633  0.00  0.00    +0.053 A 
ATOM     10  C   UNL     1      -1.613  -8.252  -1.083  0.00  0.00    +0.078 A 
ATOM     11  C   UNL     1      -2.311  -8.139   0.075  0.00  0.00    +0.126 A 
ATOM     12  N   UNL     1      -2.620  -6.833   0.275  0.00  0.00    -0.341 N 
ATOM     13  H   UNL     1      -3.112  -6.477   1.031  0.00  0.00    +0.167 HD
ATOM     14 CL   UNL     1      -2.734  -9.450   1.133  0.00  0.00    -0.063 Cl
ATOM     15 CL   UNL     1      -0.991  -9.724  -1.762  0.00  0.00    -0.080 Cl
ENDBRANCH   6   8
BRANCH   1  16
ATOM     16  C   UNL     1      -1.765  -1.844   0.194  0.00  0.00    +0.328 C 
ATOM     17  O   UNL     1      -0.802  -2.552   0.367  0.00  0.00    -0.249 OA
BRANCH  16  18
ATOM     18  O   UNL     1      -1.638  -0.509   0.258  0.00  0.00    -0.464 OA
BRANCH  18  20
ATOM     19  C   UNL     1      -0.386   1.534   0.570  0.00  0.00    +0.048 C 
ATOM     20  C   UNL     1      -0.334   0.005   0.536  0.00  0.00    +0.229 C 
ENDBRANCH  18  20
ENDBRANCH  16  18
ENDBRANCH   1  16
TORSDOF 4
