REMARK  Name = ZINC01098554
REMARK  8 active torsions:
REMARK  status: ('A' for Active; 'I' for Inactive)
REMARK    1  A    between atoms: C_1  and  C_2
REMARK    2  A    between atoms: C_3  and  C_33
REMARK    3  A    between atoms: C_4  and  C_24
REMARK    4  A    between atoms: C_10  and  C_11
REMARK    5  A    between atoms: C_29  and  O_30
REMARK    6  A    between atoms: O_30  and  C_31
REMARK    7  A    between atoms: C_33  and  O_35
REMARK    8  A    between atoms: O_35  and  C_36
REMARK                            x       y       z     vdW  Elec       q    Type
REMARK                         _______ _______ _______ _____ _____    ______ ____
ROOT
ATOM      1  C   UNL     1      -1.915  -1.990  -1.020  0.00  0.00    +0.066 C 
ATOM      2  C   UNL     1      -0.575  -1.355  -0.754  0.00  0.00    +0.053 C 
ATOM      3  C   UNL     1       0.550  -2.132  -0.728  0.00  0.00    +0.085 C 
ATOM      4  C   UNL     1       1.876  -1.458  -0.457  0.00  0.00    +0.165 C 
ATOM      5  N   UNL     1       1.856   0.014  -0.237  0.00  0.00    -0.275 N 
ATOM      6  C   UNL     1       2.913   0.795   0.016  0.00  0.00    +0.268 A 
ATOM      7  O   UNL     1       4.030   0.315   0.085  0.00  0.00    -0.266 OA
ATOM      8  C   UNL     1       2.719   2.190   0.202  0.00  0.00    +0.081 A 
ATOM      9  C   UNL     1       3.636   3.163   0.465  0.00  0.00    +0.030 C 
ATOM     10  S   UNL     1       0.950   2.327  -0.003  0.00  0.00    -0.046 S 
ATOM     11  C   UNL     1       0.613   0.604  -0.306  0.00  0.00    +0.178 A 
ATOM     12  N   UNL     1      -0.496  -0.046  -0.546  0.00  0.00    -0.228 NA
ENDROOT
BRANCH   9  13
ATOM     13  C   UNL     1       3.233   4.569   0.461  0.00  0.00    +0.001 A 
ATOM     14  C   UNL     1       1.956   5.054   0.518  0.00  0.00    +0.091 A 
ATOM     15  N   UNL     1       1.982   6.411   0.495  0.00  0.00    -0.360 N 
ATOM     16  H   UNL     1       1.197   6.980   0.528  0.00  0.00    +0.165 HD
ATOM     17  C   UNL     1       3.282   6.867   0.412  0.00  0.00    +0.047 A 
ATOM     18  C   UNL     1       4.123   5.743   0.387  0.00  0.00    +0.007 A 
ATOM     19  C   UNL     1       5.503   5.905   0.306  0.00  0.00    +0.010 A 
ATOM     20  C   UNL     1       6.039   7.174   0.251  0.00  0.00    +0.001 A 
ATOM     21  C   UNL     1       5.210   8.285   0.276  0.00  0.00    +0.002 A 
ATOM     22  C   UNL     1       3.842   8.139   0.356  0.00  0.00    +0.026 A 
ENDBRANCH   9  13
BRANCH   4  23
ATOM     23  C   UNL     1       2.786  -1.740  -1.625  0.00  0.00    +0.023 A 
ATOM     24  C   UNL     1       3.755  -2.720  -1.525  0.00  0.00    +0.029 A 
ATOM     25  C   UNL     1       4.587  -2.983  -2.598  0.00  0.00    +0.042 A 
ATOM     26  C   UNL     1       4.458  -2.258  -3.770  0.00  0.00    +0.023 A 
ATOM     27  C   UNL     1       3.495  -1.274  -3.872  0.00  0.00    +0.047 A 
ATOM     28  C   UNL     1       2.656  -1.012  -2.798  0.00  0.00    +0.126 A 
ATOM     29 CL   UNL     1       5.800  -4.220  -2.472  0.00  0.00    -0.084 Cl
BRANCH  28  30
ATOM     30  O   UNL     1       1.707  -0.044  -2.897  0.00  0.00    -0.495 OA
ATOM     31  C   UNL     1       1.553   0.586  -4.170  0.00  0.00    +0.277 C 
ENDBRANCH  28  30
ENDBRANCH   4  23
BRANCH   3  32
ATOM     32  C   UNL     1       0.476  -3.517  -0.948  0.00  0.00    +0.339 C 
ATOM     33  O   UNL     1      -0.610  -4.061  -1.041  0.00  0.00    -0.245 OA
BRANCH  32  34
ATOM     34  O   UNL     1       1.608  -4.245  -1.055  0.00  0.00    -0.465 OA
ATOM     35  C   UNL     1       1.462  -5.625  -1.398  0.00  0.00    +0.280 C 
ENDBRANCH  32  34
ENDBRANCH   3  32
TORSDOF 5
