REMARK  Name = ZINC32814870
REMARK  5 active torsions:
REMARK  status: ('A' for Active; 'I' for Inactive)
REMARK    1  A    between atoms: C_1  and  C_2
REMARK    2  A    between atoms: C_9  and  N_14
REMARK    3  A    between atoms: N_14  and  C_15
REMARK    4  A    between atoms: C_15  and  C_16
REMARK    5  A    between atoms: C_22  and  C_27
REMARK                            x       y       z     vdW  Elec       q    Type
REMARK                         _______ _______ _______ _____ _____    ______ ____
ROOT
ATOM      1  C   UNL     1       8.388   0.449   2.116  0.00  0.00    +0.128 A 
ATOM      2  N   UNL     1       9.245   0.673   3.145  0.00  0.00    -0.309 N 
ATOM      3  H   UNL     1       8.895   0.757   4.046  0.00  0.00    +0.170 HD
ATOM      4  C   UNL     1      10.571   0.782   2.939  0.00  0.00    +0.260 A 
ATOM      5  O   UNL     1      11.327   0.983   3.874  0.00  0.00    -0.267 OA
ATOM      6  C   UNL     1      11.079   0.658   1.607  0.00  0.00    +0.080 A 
ATOM      7  C   UNL     1      12.455   0.735   1.133  0.00  0.00    +0.004 A 
ATOM      8  C   UNL     1      12.698   0.584  -0.191  0.00  0.00    +0.056 A 
ATOM      9  S   UNL     1      11.075   0.326  -0.881  0.00  0.00    -0.076 S 
ATOM     10  C   UNL     1      10.118   0.427   0.609  0.00  0.00    +0.116 A 
ATOM     11  N   UNL     1       8.821   0.326   0.891  0.00  0.00    -0.225 NA
ENDROOT
BRANCH   7  12
ATOM     12  C   UNL     1      13.568   0.976   2.083  0.00  0.00    -0.016 A 
ATOM     13  C   UNL     1      13.491   2.023   2.999  0.00  0.00    +0.011 A 
ATOM     14  C   UNL     1      14.529   2.243   3.881  0.00  0.00    +0.039 A 
ATOM     15  C   UNL     1      15.647   1.425   3.856  0.00  0.00    +0.123 A 
ATOM     16  C   UNL     1      15.728   0.383   2.947  0.00  0.00    +0.039 A 
ATOM     17  C   UNL     1      14.692   0.151   2.065  0.00  0.00    +0.011 A 
ATOM     18  F   UNL     1      16.661   1.644   4.721  0.00  0.00    -0.205 F 
ENDBRANCH   7  12
BRANCH   1  19
ATOM     19  C   UNL     1       6.911   0.334   2.395  0.00  0.00    +0.176 C 
BRANCH  19  20
ATOM     20  N   UNL     1       6.196   0.088   1.140  0.00  0.00    -0.337 N 
ATOM     21  H   UNL     1       6.687   0.024   0.306  0.00  0.00    +0.147 HD
BRANCH  20  29
ATOM     22  C   UNL     1      -0.019   1.526   0.010  0.00  0.00    +0.062 C 
ATOM     23  C   UNL     1       0.002  -0.004   0.002  0.00  0.00    +0.256 C 
ATOM     24  C   UNL     1       0.706  -0.490  -1.239  0.00  0.00    +0.258 C 
ATOM     25  O   UNL     1       0.074  -0.718  -2.249  0.00  0.00    -0.271 OA
ATOM     26  N   UNL     1       2.045  -0.669  -1.223  0.00  0.00    -0.279 N 
ATOM     27  C   UNL     1       2.748  -0.432  -0.033  0.00  0.00    +0.077 A 
ATOM     28  C   UNL     1       4.126  -0.290  -0.044  0.00  0.00    +0.050 A 
ATOM     29  C   UNL     1       4.804  -0.056   1.145  0.00  0.00    +0.029 A 
ATOM     30  C   UNL     1       4.101   0.034   2.340  0.00  0.00    +0.026 A 
ATOM     31  C   UNL     1       2.726  -0.107   2.350  0.00  0.00    +0.049 A 
ATOM     32  C   UNL     1       2.046  -0.339   1.167  0.00  0.00    +0.143 A 
ATOM     33  O   UNL     1       0.693  -0.477   1.161  0.00  0.00    -0.478 OA
ATOM     34  H   UNL     1       2.513  -0.958  -2.022  0.00  0.00    +0.155 HD
ENDBRANCH  20  29
ENDBRANCH  19  20
ENDBRANCH   1  19
TORSDOF 4
