REMARK  Name = ZINC45305881
REMARK  4 active torsions:
REMARK  status: ('A' for Active; 'I' for Inactive)
REMARK    1  A    between atoms: C_9  and  N_11
REMARK    2  A    between atoms: N_14  and  N_15
REMARK    3  A    between atoms: N_15  and  C_16
REMARK    4  A    between atoms: C_20  and  C_22
REMARK                            x       y       z     vdW  Elec       q    Type
REMARK                         _______ _______ _______ _____ _____    ______ ____
ROOT
ATOM      1  N   UNL     1       4.577  -0.496  -0.997  0.00  0.00    -0.291 N 
ATOM      2  C   UNL     1       5.524   0.384  -0.617  0.00  0.00    +0.316 C 
ATOM      3  O   UNL     1       5.538   0.808   0.522  0.00  0.00    -0.251 OA
ATOM      4  N   UNL     1       6.456   0.794  -1.500  0.00  0.00    -0.220 N 
ATOM      5  H   UNL     1       4.566  -0.835  -1.906  0.00  0.00    +0.151 HD
ATOM      6  H   UNL     1       7.138   1.428  -1.226  0.00  0.00    +0.174 HD
ENDROOT
BRANCH   1  15
ATOM      7  C   UNL     1      -0.017   1.377   0.010  0.00  0.00    +0.000 A 
ATOM      8  C   UNL     1       1.172   2.083   0.002  0.00  0.00    +0.000 A 
ATOM      9  C   UNL     1       2.376   1.406  -0.013  0.00  0.00    +0.006 A 
ATOM     10  C   UNL     1       2.396   0.021  -0.021  0.00  0.00    -0.024 A 
ATOM     11  C   UNL     1       1.208  -0.685  -0.013  0.00  0.00    -0.042 A 
ATOM     12  C   UNL     1       0.002  -0.004   0.002  0.00  0.00    +0.004 A 
ATOM     13  C   UNL     1       1.496  -2.171  -0.025  0.00  0.00    +0.037 C 
ATOM     14  C   UNL     1       2.966  -2.294  -0.480  0.00  0.00    +0.032 C 
ATOM     15  C   UNL     1       3.564  -0.942  -0.037  0.00  0.00    +0.105 C 
ENDBRANCH   1  15
BRANCH   4  16
ATOM     16  N   UNL     1       6.441   0.305  -2.813  0.00  0.00    -0.263 N 
ATOM     17  H   UNL     1       5.759  -0.328  -3.086  0.00  0.00    +0.170 HD
BRANCH  16  18
ATOM     18  C   UNL     1       7.407   0.730  -3.728  0.00  0.00    +0.046 A 
ATOM     19  C   UNL     1       8.387   1.634  -3.334  0.00  0.00    +0.024 A 
ATOM     20  C   UNL     1       9.345   2.058  -4.236  0.00  0.00    +0.003 A 
ATOM     21  C   UNL     1       9.335   1.587  -5.533  0.00  0.00    +0.019 A 
ATOM     22  C   UNL     1       8.355   0.679  -5.939  0.00  0.00    +0.054 A 
ATOM     23  C   UNL     1       7.391   0.247  -5.027  0.00  0.00    +0.043 A 
BRANCH  22  24
ATOM     24  C   UNL     1       8.343   0.189  -7.284  0.00  0.00    +0.099 C 
ATOM     25  N   UNL     1       8.333  -0.200  -8.351  0.00  0.00    -0.191 NA
ENDBRANCH  22  24
ENDBRANCH  16  18
ENDBRANCH   4  16
TORSDOF 4
