REMARK  Name = ZINC04043846
REMARK  13 active torsions:
REMARK  status: ('A' for Active; 'I' for Inactive)
REMARK    1  A    between atoms: C_1  and  C_2
REMARK    2  A    between atoms: C_2  and  N_3
REMARK    3  A    between atoms: N_3  and  C_4
REMARK    4  A    between atoms: N_3  and  C_6
REMARK    5  A    between atoms: C_4  and  C_5
REMARK    6  A    between atoms: C_9  and  C_12
REMARK    7  A    between atoms: C_17  and  C_21
REMARK    8  A    between atoms: C_17  and  C_22
REMARK    9  A    between atoms: C_24  and  C_31
REMARK   10  A    between atoms: C_25  and  C_26
REMARK   11  A    between atoms: C_26  and  O_28
REMARK   12  A    between atoms: O_28  and  C_29
REMARK   13  A    between atoms: C_29  and  C_30
REMARK                            x       y       z     vdW  Elec       q    Type
REMARK                         _______ _______ _______ _____ _____    ______ ____
ROOT
ATOM      1  C   UNL     1      -0.060   3.662  -0.809  0.00  0.00    +0.092 C 
ATOM      2  C   UNL     1       1.199   2.957  -0.374  0.00  0.00    +0.024 C 
ATOM      3  C   UNL     1       1.169   1.660  -0.000  0.00  0.00    +0.016 C 
ATOM      4  C   UNL     1       2.429   0.941   0.414  0.00  0.00    +0.058 C 
ATOM      5  C   UNL     1       3.396   1.933   1.064  0.00  0.00    -0.023 C 
ATOM      6  C   UNL     1       3.696   3.050   0.058  0.00  0.00    +0.086 C 
ATOM      7  C   UNL     1       2.402   3.685  -0.370  0.00  0.00    +0.162 C 
ATOM      8  O   UNL     1       2.395   4.848  -0.720  0.00  0.00    -0.292 OA
ATOM      9  C   UNL     1       2.754   2.530   2.318  0.00  0.00    +0.011 C 
ATOM     10  C   UNL     1       4.693   1.215   1.443  0.00  0.00    +0.011 C 
ATOM     11  N   UNL     1      -0.011   0.966   0.007  0.00  0.00    -0.321 N 
ATOM     12  C   UNL     1      -1.208   1.626   0.017  0.00  0.00    +0.016 C 
ATOM     13  C   UNL     1      -1.280   2.914  -0.355  0.00  0.00    +0.065 C 
ATOM     14  C   UNL     1      -2.457   0.905   0.454  0.00  0.00    +0.061 C 
ATOM     15  H   UNL     1      -0.003  -0.134   0.006  0.00  0.00    +0.152 HD
ENDROOT
BRANCH   1  19
ATOM     16  C   UNL     1      -0.101   3.956  -5.073  0.00  0.00    +0.030 A 
ATOM     17  C   UNL     1      -0.132   5.107  -4.296  0.00  0.00    +0.023 A 
ATOM     18  C   UNL     1      -0.118   5.008  -2.918  0.00  0.00    +0.006 A 
ATOM     19  C   UNL     1      -0.075   3.765  -2.313  0.00  0.00    -0.035 A 
ATOM     20  C   UNL     1      -0.038   2.618  -3.084  0.00  0.00    +0.006 A 
ATOM     21  C   UNL     1      -0.057   2.709  -4.462  0.00  0.00    +0.023 A 
BRANCH  16  22
ATOM     22  N   UNL     1      -0.114   4.052  -6.466  0.00  0.00    -0.330 N 
BRANCH  22  24
ATOM     23  C   UNL     1      -1.512   2.369  -7.560  0.00  0.00    +0.024 C 
ATOM     24  C   UNL     1      -0.081   2.837  -7.285  0.00  0.00    +0.102 C 
ENDBRANCH  22  24
BRANCH  22  25
ATOM     25  C   UNL     1      -0.160   5.367  -7.110  0.00  0.00    +0.102 C 
ATOM     26  C   UNL     1       1.266   5.871  -7.343  0.00  0.00    +0.024 C 
ENDBRANCH  22  25
ENDBRANCH  16  22
ENDBRANCH   1  19
BRANCH  13  27
ATOM     27  C   UNL     1      -2.529   3.577  -0.325  0.00  0.00    +0.338 C 
ATOM     28  O   UNL     1      -3.525   2.982   0.041  0.00  0.00    -0.245 OA
BRANCH  27  29
ATOM     29  O   UNL     1      -2.616   4.870  -0.703  0.00  0.00    -0.462 OA
BRANCH  29  30
ATOM     30  C   UNL     1      -3.909   5.477  -0.647  0.00  0.00    +0.229 C 
ATOM     31  C   UNL     1      -3.809   6.932  -1.109  0.00  0.00    +0.048 C 
ENDBRANCH  29  30
ENDBRANCH  27  29
ENDBRANCH  13  27
TORSDOF 7
