REMARK  Name = ZINC66658703
REMARK  6 active torsions:
REMARK  status: ('A' for Active; 'I' for Inactive)
REMARK    1  A    between atoms: C_13  and  C_16
REMARK    2  A    between atoms: N_18  and  C_19
REMARK    3  A    between atoms: C_19  and  C_20
REMARK    4  A    between atoms: C_20  and  O_22
REMARK    5  A    between atoms: O_22  and  C_23
REMARK    6  A    between atoms: C_23  and  C_24
REMARK                            x       y       z     vdW  Elec       q    Type
REMARK                         _______ _______ _______ _____ _____    ______ ____
ROOT
ATOM      1  C   UNL     1      -0.017   1.366   0.010  0.00  0.00    +0.002 A 
ATOM      2  C   UNL     1       1.156   2.107   0.002  0.00  0.00    +0.001 A 
ATOM      3  C   UNL     1       2.373   1.449  -0.013  0.00  0.00    +0.017 A 
ATOM      4  C   UNL     1       2.401   0.077  -0.020  0.00  0.00    +0.041 A 
ATOM      5  C   UNL     1       1.227  -0.710  -0.013  0.00  0.00    +0.080 A 
ATOM      6  C   UNL     1       0.002  -0.004   0.002  0.00  0.00    +0.029 A 
ATOM      7  N   UNL     1       1.419  -2.047  -0.023  0.00  0.00    -0.225 NA
ATOM      8  C   UNL     1       2.616  -2.588  -0.037  0.00  0.00    +0.162 A 
ATOM      9  S   UNL     1       3.682  -1.153  -0.040  0.00  0.00    -0.052 S 
ATOM     10  N   UNL     1       2.963  -3.924  -0.048  0.00  0.00    -0.310 N 
ATOM     11  C   UNL     1       1.927  -4.966  -0.050  0.00  0.00    +0.108 C 
ATOM     12  C   UNL     1       2.196  -5.930   1.109  0.00  0.00    +0.032 C 
ATOM     13  C   UNL     1       3.625  -6.465   1.001  0.00  0.00    +0.078 C 
ATOM     14  C   UNL     1       4.616  -5.303   1.101  0.00  0.00    +0.032 C 
ATOM     15  C   UNL     1       4.374  -4.331  -0.064  0.00  0.00    +0.108 C 
ENDROOT
BRANCH  13  16
ATOM     16  C   UNL     1       3.882  -7.441   2.121  0.00  0.00    +0.217 C 
ATOM     17  O   UNL     1       3.008  -7.684   2.926  0.00  0.00    -0.276 OA
ATOM     18  N   UNL     1       5.083  -8.043   2.228  0.00  0.00    -0.305 N 
ATOM     19  H   UNL     1       5.782  -7.848   1.584  0.00  0.00    +0.149 HD
BRANCH  18  20
ATOM     20  C   UNL     1       5.333  -8.991   3.316  0.00  0.00    +0.224 C 
BRANCH  20  21
ATOM     21  C   UNL     1       6.741  -9.518   3.211  0.00  0.00    +0.324 C 
ATOM     22  O   UNL     1       7.462  -9.140   2.317  0.00  0.00    -0.249 OA
BRANCH  21  23
ATOM     23  O   UNL     1       7.194 -10.407   4.108  0.00  0.00    -0.463 OA
BRANCH  23  24
ATOM     24  C   UNL     1       8.539 -10.864   3.947  0.00  0.00    +0.235 C 
BRANCH  24  25
ATOM     25  C   UNL     1       8.873 -11.864   5.055  0.00  0.00    +0.027 C 
ATOM     26  C   UNL     1       9.977 -11.481   6.043  0.00  0.00    +0.007 C 
ATOM     27  C   UNL     1      10.234 -12.560   4.991  0.00  0.00    +0.007 C 
ENDBRANCH  24  25
ENDBRANCH  23  24
ENDBRANCH  21  23
ENDBRANCH  20  21
ENDBRANCH  18  20
ENDBRANCH  13  16
TORSDOF 6
