REMARK  Name = ZINC08820280
REMARK  6 active torsions:
REMARK  status: ('A' for Active; 'I' for Inactive)
REMARK    1  A    between atoms: C_3  and  C_6
REMARK    2  A    between atoms: N_10  and  C_14
REMARK    3  A    between atoms: C_14  and  C_15
REMARK    4  A    between atoms: C_15  and  C_16
REMARK    5  A    between atoms: N_18  and  C_19
REMARK    6  A    between atoms: C_20  and  C_28
REMARK                            x       y       z     vdW  Elec       q    Type
REMARK                         _______ _______ _______ _____ _____    ______ ____
ROOT
ATOM      1  C   UNL     1      -6.668   0.386   2.651  0.00  0.00    +0.219 C 
ATOM      2  O   UNL     1      -6.841   0.142   1.475  0.00  0.00    -0.275 OA
ATOM      3  N   UNL     1      -5.453   0.775   3.086  0.00  0.00    -0.279 N 
ATOM      4  H   UNL     1      -5.314   0.970   4.026  0.00  0.00    +0.155 HD
ENDROOT
BRANCH   3   5
ATOM      5  C   UNL     1      -4.402   0.896   2.190  0.00  0.00    +0.084 A 
ATOM      6  C   UNL     1      -3.092   1.279   2.444  0.00  0.00    +0.068 A 
ATOM      7  C   UNL     1      -2.176   1.326   1.317  0.00  0.00    -0.023 A 
ATOM      8  C   UNL     1      -2.712   0.986   0.125  0.00  0.00    -0.004 A 
ATOM      9  S   UNL     1      -4.404   0.607   0.482  0.00  0.00    -0.077 S 
ATOM     10  C   UNL     1      -2.015   0.945  -1.200  0.00  0.00    +0.043 C 
ATOM     11  C   UNL     1      -0.688   1.706  -1.072  0.00  0.00    +0.005 C 
ATOM     12  C   UNL     1       0.035   1.230   0.192  0.00  0.00    +0.005 C 
ATOM     13  C   UNL     1      -0.712   1.724   1.432  0.00  0.00    +0.037 C 
BRANCH   6  14
ATOM     14  C   UNL     1      -2.650   1.622   3.799  0.00  0.00    +0.244 C 
ATOM     15  O   UNL     1      -2.727   2.771   4.192  0.00  0.00    -0.270 OA
ATOM     16  N   UNL     1      -2.157   0.664   4.610  0.00  0.00    -0.325 N 
ATOM     17  H   UNL     1      -2.096  -0.252   4.297  0.00  0.00    +0.145 HD
ATOM     18  H   UNL     1      -1.864   0.891   5.506  0.00  0.00    +0.145 HD
ENDBRANCH   6  14
ENDBRANCH   3   5
BRANCH   1  19
ATOM     19  C   UNL     1      -7.811   0.255   3.624  0.00  0.00    +0.115 C 
BRANCH  19  20
ATOM     20  C   UNL     1      -9.067  -0.198   2.878  0.00  0.00    +0.124 C 
BRANCH  20  25
ATOM     21  C   UNL     1     -11.957  -2.594   6.124  0.00  0.00    +0.066 C 
ATOM     22  C   UNL     1     -11.514  -1.549   5.369  0.00  0.00    +0.080 C 
ATOM     23  C   UNL     1     -10.386  -1.485   4.425  0.00  0.00    +0.258 C 
ATOM     24  O   UNL     1      -9.676  -2.451   4.211  0.00  0.00    -0.269 OA
ATOM     25  N   UNL     1     -10.178  -0.325   3.824  0.00  0.00    -0.255 N 
ATOM     26  C   UNL     1     -10.970   0.741   4.059  0.00  0.00    +0.121 C 
ATOM     27  S   UNL     1     -10.870   2.310   3.382  0.00  0.00    -0.027 S 
ATOM     28  S   UNL     1     -12.148   0.118   5.248  0.00  0.00    -0.061 S 
BRANCH  21  31
ATOM     29  C   UNL     1     -10.962  -6.062   6.115  0.00  0.00    +0.042 A 
ATOM     30  C   UNL     1     -11.806  -5.040   6.575  0.00  0.00    +0.049 A 
ATOM     31  C   UNL     1     -11.388  -3.878   5.957  0.00  0.00    +0.129 A 
ATOM     32  O   UNL     1     -10.337  -4.186   5.169  0.00  0.00    -0.463 OA
ATOM     33  C   UNL     1     -10.078  -5.498   5.263  0.00  0.00    +0.195 A 
ENDBRANCH  21  31
ENDBRANCH  20  25
ENDBRANCH  19  20
ENDBRANCH   1  19
TORSDOF 6
