REMARK  Name = ZINC14990785
REMARK  8 active torsions:
REMARK  status: ('A' for Active; 'I' for Inactive)
REMARK    1  A    between atoms: C_1  and  C_2
REMARK    2  A    between atoms: C_3  and  C_4
REMARK    3  A    between atoms: C_3  and  C_5
REMARK    4  A    between atoms: C_10  and  C_13
REMARK    5  A    between atoms: C_10  and  O_35
REMARK    6  A    between atoms: C_20  and  C_22
REMARK    7  A    between atoms: N_24  and  C_25
REMARK    8  A    between atoms: C_25  and  C_26
REMARK                            x       y       z     vdW  Elec       q    Type
REMARK                         _______ _______ _______ _____ _____    ______ ____
ROOT
ATOM      1  C   UNL     1      -4.185   9.835  -7.764  0.00  0.00    -0.015 A 
ATOM      2  C   UNL     1      -4.397   8.677  -8.500  0.00  0.00    +0.010 A 
ATOM      3  C   UNL     1      -4.660   7.480  -7.870  0.00  0.00    +0.047 A 
ATOM      4  C   UNL     1      -4.716   7.426  -6.481  0.00  0.00    +0.136 A 
ATOM      5  C   UNL     1      -4.501   8.603  -5.740  0.00  0.00    +0.021 A 
ATOM      6  C   UNL     1      -4.236   9.806  -6.399  0.00  0.00    +0.018 A 
ATOM      7  C   UNL     1      -4.625   8.215  -4.336  0.00  0.00    +0.063 A 
ATOM      8  C   UNL     1      -4.895   6.884  -4.336  0.00  0.00    +0.190 A 
ATOM      9  O   UNL     1      -4.941   6.428  -5.605  0.00  0.00    -0.450 OA
ENDROOT
BRANCH   1  15
ATOM     10  C   UNL     1      -4.484  13.395 -11.853  0.00  0.00    +0.242 C 
ATOM     11  O   UNL     1      -5.569  13.929 -11.985  0.00  0.00    -0.270 OA
ATOM     12  N   UNL     1      -4.101  12.934 -10.646  0.00  0.00    -0.298 N 
ATOM     13  C   UNL     1      -2.859  12.165 -10.498  0.00  0.00    +0.111 C 
ATOM     14  C   UNL     1      -3.179  10.842  -9.794  0.00  0.00    +0.058 C 
ATOM     15  C   UNL     1      -3.899  11.132  -8.475  0.00  0.00    +0.094 C 
ATOM     16  C   UNL     1      -5.216  11.858  -8.761  0.00  0.00    +0.058 C 
ATOM     17  C   UNL     1      -4.919  13.192  -9.453  0.00  0.00    +0.111 C 
BRANCH  10  20
ATOM     18  C   UNL     1      -3.176  13.092 -15.430  0.00  0.00    +0.035 C 
ATOM     19  C   UNL     1      -4.093  13.238 -14.243  0.00  0.00    -0.022 C 
ATOM     20  C   UNL     1      -3.589  13.253 -13.012  0.00  0.00    +0.007 C 
ATOM     21  C   UNL     1      -2.102  13.124 -12.804  0.00  0.00    +0.049 C 
ENDBRANCH  10  20
BRANCH  15  22
ATOM     22  O   UNL     1      -3.071  11.954  -7.651  0.00  0.00    -0.384 OA
ATOM     23  H   UNL     1      -3.466  12.178  -6.796  0.00  0.00    +0.211 HD
ENDBRANCH  15  22
ENDBRANCH   1  15
BRANCH   8  24
ATOM     24  C   UNL     1      -5.101   6.063  -3.134  0.00  0.00    +0.280 C 
ATOM     25  O   UNL     1      -5.033   6.571  -2.031  0.00  0.00    -0.267 OA
ATOM     26  N   UNL     1      -5.364   4.746  -3.254  0.00  0.00    -0.303 N 
ATOM     27  H   UNL     1      -5.418   4.341  -4.134  0.00  0.00    +0.150 HD
BRANCH  26  28
ATOM     28  C   UNL     1      -5.569   3.928  -2.057  0.00  0.00    +0.167 C 
BRANCH  28  29
ATOM     29  C   UNL     1      -5.844   2.503  -2.463  0.00  0.00    +0.097 A 
ATOM     30  N   UNL     1      -4.991   1.536  -2.649  0.00  0.00    -0.242 NA
ATOM     31  C   UNL     1      -5.371   0.294  -3.015  0.00  0.00    +0.079 A 
ATOM     32  C   UNL     1      -4.574  -0.848  -3.253  0.00  0.00    +0.029 A 
ATOM     33  C   UNL     1      -5.143  -2.028  -3.619  0.00  0.00    +0.002 A 
ATOM     34  C   UNL     1      -6.517  -2.157  -3.773  0.00  0.00    +0.001 A 
ATOM     35  C   UNL     1      -7.331  -1.062  -3.556  0.00  0.00    +0.017 A 
ATOM     36  C   UNL     1      -6.766   0.133  -3.180  0.00  0.00    +0.039 A 
ATOM     37  S   UNL     1      -7.376   1.756  -2.797  0.00  0.00    -0.071 S 
ENDBRANCH  28  29
ENDBRANCH  26  28
ENDBRANCH   8  24
TORSDOF 6
