REMARK  Name = ZINC65027427
REMARK  6 active torsions:
REMARK  status: ('A' for Active; 'I' for Inactive)
REMARK    1  A    between atoms: C_1  and  C_2
REMARK    2  A    between atoms: C_2  and  C_3
REMARK    3  A    between atoms: N_5  and  C_6
REMARK    4  A    between atoms: C_9  and  C_12
REMARK    5  A    between atoms: C_12  and  C_18
REMARK    6  A    between atoms: C_24  and  C_27
REMARK                            x       y       z     vdW  Elec       q    Type
REMARK                         _______ _______ _______ _____ _____    ______ ____
ROOT
ATOM      1  C   UNL     1      -7.036  -3.611  -0.317  0.00  0.00    +0.072 C 
ATOM      2  C   UNL     1      -7.598  -3.184  -1.674  0.00  0.00    +0.021 C 
ATOM      3  C   UNL     1      -9.062  -3.615  -1.778  0.00  0.00    +0.001 C 
ATOM      4  C   UNL     1      -9.157  -5.136  -1.643  0.00  0.00    +0.000 C 
ATOM      5  C   UNL     1      -8.595  -5.563  -0.285  0.00  0.00    +0.001 C 
ATOM      6  C   UNL     1      -7.131  -5.132  -0.181  0.00  0.00    +0.021 C 
ENDROOT
BRANCH   1   7
ATOM      7  C   UNL     1      -7.831  -2.958   0.784  0.00  0.00    +0.226 C 
ATOM      8  O   UNL     1      -8.714  -2.173   0.511  0.00  0.00    -0.275 OA
ATOM      9  N   UNL     1      -7.562  -3.248   2.073  0.00  0.00    -0.300 N 
ATOM     10  C   UNL     1      -6.416  -4.096   2.426  0.00  0.00    +0.108 C 
ATOM     11  C   UNL     1      -5.549  -3.355   3.448  0.00  0.00    +0.019 C 
ATOM     12  C   UNL     1      -6.415  -2.941   4.640  0.00  0.00    +0.006 C 
ATOM     13  C   UNL     1      -7.520  -1.994   4.166  0.00  0.00    +0.003 C 
ATOM     14  C   UNL     1      -8.405  -2.715   3.152  0.00  0.00    +0.111 C 
ATOM     15  C   UNL     1      -8.364  -1.554   5.363  0.00  0.00    +0.009 C 
ENDBRANCH   1   7
BRANCH   1  19
ATOM     16  C   UNL     1      -2.946  -2.407  -0.026  0.00  0.00    +0.033 A 
ATOM     17  C   UNL     1      -3.952  -1.450  -0.062  0.00  0.00    +0.023 A 
ATOM     18  C   UNL     1      -5.272  -1.843  -0.156  0.00  0.00    +0.006 A 
ATOM     19  C   UNL     1      -5.594  -3.187  -0.214  0.00  0.00    -0.032 A 
ATOM     20  C   UNL     1      -4.594  -4.142  -0.178  0.00  0.00    +0.006 A 
ATOM     21  C   UNL     1      -3.271  -3.756  -0.090  0.00  0.00    +0.023 A 
BRANCH  16  24
ATOM     22  C   UNL     1      -0.650  -2.716  -0.569  0.00  0.00    +0.217 C 
ATOM     23  O   UNL     1      -0.939  -3.734  -1.161  0.00  0.00    -0.275 OA
ATOM     24  N   UNL     1      -1.606  -2.013   0.070  0.00  0.00    -0.286 N 
ATOM     25  H   UNL     1      -1.366  -1.234   0.595  0.00  0.00    +0.155 HD
BRANCH  22  27
ATOM     26  C   UNL     1       1.655  -3.207  -1.341  0.00  0.00    +0.013 C 
ATOM     27  C   UNL     1       0.779  -2.236  -0.548  0.00  0.00    +0.093 C 
ENDBRANCH  22  27
ENDBRANCH  16  24
ENDBRANCH   1  19
TORSDOF 4
