REMARK  Name = ZINC00985833
REMARK  8 active torsions:
REMARK  status: ('A' for Active; 'I' for Inactive)
REMARK    1  A    between atoms: C_1  and  C_2
REMARK    2  A    between atoms: C_2  and  C_3
REMARK    3  A    between atoms: C_2  and  C_4
REMARK    4  A    between atoms: C_4  and  C_5
REMARK    5  A    between atoms: C_8  and  C_11
REMARK    6  A    between atoms: C_18  and  N_33
REMARK    7  A    between atoms: C_19  and  C_31
REMARK    8  A    between atoms: C_20  and  C_22
REMARK                            x       y       z     vdW  Elec       q    Type
REMARK                         _______ _______ _______ _____ _____    ______ ____
ROOT
ATOM      1  C   UNL     1       6.248   1.101  -1.069  0.00  0.00    +0.100 A 
ATOM      2  C   UNL     1       7.153   0.815  -0.043  0.00  0.00    +0.054 A 
ATOM      3  C   UNL     1       8.357   1.365  -0.375  0.00  0.00    +0.223 A 
ATOM      4  N   UNL     1       8.213   1.977  -1.569  0.00  0.00    -0.246 N 
ATOM      5  H   UNL     1       8.905   2.455  -2.052  0.00  0.00    +0.192 HD
ATOM      6  N   UNL     1       6.887   1.797  -1.991  0.00  0.00    -0.171 NA
ATOM      7  O   UNL     1       9.453   1.262   0.418  0.00  0.00    -0.423 OA
ATOM      8  C   UNL     1       9.413   0.367   1.425  0.00  0.00    +0.200 C 
ATOM      9  C   UNL     1       8.281  -0.235   1.852  0.00  0.00    +0.098 C 
ATOM     10  C   UNL     1       6.934   0.047   1.235  0.00  0.00    +0.102 C 
ENDROOT
BRANCH  10  11
ATOM     11  C   UNL     1       6.101   0.869   2.185  0.00  0.00    -0.031 A 
ATOM     12  C   UNL     1       6.555   2.104   2.609  0.00  0.00    +0.008 A 
ATOM     13  C   UNL     1       5.794   2.862   3.479  0.00  0.00    +0.050 A 
ATOM     14  C   UNL     1       4.574   2.385   3.930  0.00  0.00    +0.166 A 
ATOM     15  C   UNL     1       4.117   1.140   3.504  0.00  0.00    +0.167 A 
ATOM     16  C   UNL     1       4.882   0.389   2.626  0.00  0.00    +0.054 A 
ATOM     17  O   UNL     1       2.905   0.899   4.082  0.00  0.00    -0.453 OA
ATOM     18  C   UNL     1       2.813   1.823   5.183  0.00  0.00    +0.466 C 
ATOM     19  O   UNL     1       3.648   2.923   4.776  0.00  0.00    -0.453 OA
ENDBRANCH  10  11
BRANCH   1  23
ATOM     20  C   UNL     1       2.165  -0.079  -1.208  0.00  0.00    -0.047 A 
ATOM     21  C   UNL     1       2.549   1.139  -1.740  0.00  0.00    +0.004 A 
ATOM     22  C   UNL     1       3.873   1.527  -1.697  0.00  0.00    +0.010 A 
ATOM     23  C   UNL     1       4.823   0.689  -1.118  0.00  0.00    +0.003 A 
ATOM     24  C   UNL     1       4.431  -0.537  -0.584  0.00  0.00    +0.010 A 
ATOM     25  C   UNL     1       3.104  -0.912  -0.627  0.00  0.00    +0.004 A 
BRANCH  20  26
ATOM     26  C   UNL     1       0.718  -0.497  -1.257  0.00  0.00    +0.038 C 
BRANCH  26  28
ATOM     27  C   UNL     1      -0.019   1.526   0.010  0.00  0.00    +0.007 C 
ATOM     28  C   UNL     1       0.002  -0.004   0.002  0.00  0.00    -0.013 C 
ATOM     29  C   UNL     1      -1.433  -0.534   0.013  0.00  0.00    +0.007 C 
ENDBRANCH  26  28
ENDBRANCH  20  26
ENDBRANCH   1  23
BRANCH   8  30
ATOM     30  N   UNL     1      10.591   0.048   2.054  0.00  0.00    -0.328 N 
ATOM     31  H   UNL     1      11.420   0.463   1.770  0.00  0.00    +0.145 HD
ATOM     32  H   UNL     1      10.594  -0.593   2.782  0.00  0.00    +0.145 HD
ENDBRANCH   8  30
BRANCH   9  33
ATOM     33  C   UNL     1       8.363  -1.175   2.930  0.00  0.00    +0.101 C 
ATOM     34  N   UNL     1       8.428  -1.920   3.785  0.00  0.00    -0.191 NA
ENDBRANCH   9  33
TORSDOF 6
