REMARK  Name = ZINC19926254
REMARK  8 active torsions:
REMARK  status: ('A' for Active; 'I' for Inactive)
REMARK    1  A    between atoms: C_1  and  C_2
REMARK    2  A    between atoms: C_5  and  O_38
REMARK    3  A    between atoms: C_18  and  C_37
REMARK    4  A    between atoms: C_19  and  O_36
REMARK    5  A    between atoms: C_21  and  C_32
REMARK    6  A    between atoms: C_23  and  C_25
REMARK    7  A    between atoms: C_32  and  O_34
REMARK    8  A    between atoms: O_34  and  C_35
REMARK                            x       y       z     vdW  Elec       q    Type
REMARK                         _______ _______ _______ _____ _____    ______ ____
ROOT
ATOM      1  C   UNL     1       5.128  -0.171  -4.214  0.00  0.00    +0.012 C 
ATOM      2  C   UNL     1       5.233  -1.401  -3.319  0.00  0.00    -0.026 C 
ATOM      3  C   UNL     1       4.629  -2.603  -4.066  0.00  0.00    +0.010 C 
ATOM      4  C   UNL     1       5.399  -2.886  -5.351  0.00  0.00    +0.032 C 
ATOM      5  C   UNL     1       6.873  -3.152  -5.056  0.00  0.00    +0.115 C 
ATOM      6  C   UNL     1       7.481  -1.969  -4.302  0.00  0.00    +0.035 C 
ATOM      7  C   UNL     1       6.699  -1.722  -3.018  0.00  0.00    -0.002 C 
ATOM      8  C   UNL     1       7.323  -0.586  -2.214  0.00  0.00    +0.004 C 
ATOM      9  C   UNL     1       6.630  -0.497  -0.857  0.00  0.00    +0.007 C 
ATOM     10  C   UNL     1       5.124  -0.296  -0.998  0.00  0.00    +0.025 C 
ATOM     11  C   UNL     1       4.486  -1.215  -2.007  0.00  0.00    +0.001 C 
ATOM     12  C   UNL     1       3.003  -0.947  -2.199  0.00  0.00    +0.005 C 
ATOM     13  C   UNL     1       2.664   0.521  -2.367  0.00  0.00    +0.010 C 
ATOM     14  C   UNL     1       3.275   1.403  -1.308  0.00  0.00    +0.005 C 
ATOM     15  C   UNL     1       4.790   1.181  -1.140  0.00  0.00    +0.076 C 
ATOM     16  C   UNL     1       5.060   1.860   0.239  0.00  0.00    +0.051 C 
ATOM     17  C   UNL     1       3.775   1.656   1.065  0.00  0.00    +0.109 C 
ATOM     18  C   UNL     1       2.697   1.141   0.091  0.00  0.00    +0.044 C 
ATOM     19  C   UNL     1       3.026   2.867  -1.679  0.00  0.00    +0.014 C 
ENDROOT
BRANCH  18  20
ATOM     20  C   UNL     1       1.419   1.915   0.279  0.00  0.00    -0.008 A 
ATOM     21  C   UNL     1       1.463   3.297   0.534  0.00  0.00    +0.014 A 
ATOM     22  C   UNL     1       0.292   3.975   0.706  0.00  0.00    +0.092 A 
ATOM     23  C   UNL     1      -0.923   3.274   0.612  0.00  0.00    +0.337 A 
ATOM     24  O   UNL     1      -1.980   3.865   0.757  0.00  0.00    -0.245 OA
ATOM     25  O   UNL     1      -0.921   1.953   0.366  0.00  0.00    -0.430 OA
ATOM     26  C   UNL     1       0.229   1.283   0.202  0.00  0.00    +0.203 A 
ENDBRANCH  18  20
BRANCH  17  27
ATOM     27  C   UNL     1       3.998   0.681   2.188  0.00  0.00    +0.311 C 
ATOM     28  O   UNL     1       3.363  -0.346   2.231  0.00  0.00    -0.251 OA
BRANCH  27  29
ATOM     29  O   UNL     1       4.902   0.953   3.142  0.00  0.00    -0.468 OA
ATOM     30  C   UNL     1       5.064  -0.033   4.196  0.00  0.00    +0.280 C 
ENDBRANCH  27  29
ENDBRANCH  17  27
BRANCH  15  31
ATOM     31  O   UNL     1       5.537   1.832  -2.174  0.00  0.00    -0.388 OA
ATOM     32  H   UNL     1       5.383   2.903  -2.372  0.00  0.00    +0.210 HD
ENDBRANCH  15  31
BRANCH   5  33
ATOM     33  O   UNL     1       7.000  -4.338  -4.268  0.00  0.00    -0.392 OA
ATOM     34  H   UNL     1       7.996  -4.688  -3.958  0.00  0.00    +0.210 HD
ENDBRANCH   5  33
TORSDOF 5
