REMARK  Name = ZINC25107491
REMARK  11 active torsions:
REMARK  status: ('A' for Active; 'I' for Inactive)
REMARK    1  A    between atoms: CB_1  and  CA_2
REMARK    2  A    between atoms: CA_2  and  C_4
REMARK    3  A    between atoms: CA_2  and  N_6
REMARK    4  A    between atoms: C_4  and  O_5
REMARK    5  A    between atoms: C_7  and  CA_9
REMARK    6  A    between atoms: CA_9  and  CB_11
REMARK    7  A    between atoms: CA_9  and  N_14
REMARK    8  A    between atoms: CB_11  and  CG1_12
REMARK    9  A    between atoms: CB_11  and  CG2_13
REMARK   10  A    between atoms: C_15  and  C_17
REMARK   11  A    between atoms: C_17  and  C_18
REMARK                            x       y       z     vdW  Elec       q    Type
REMARK                         _______ _______ _______ _____ _____    ______ ____
ROOT
ATOM      1  N   VAL A   1      -0.161  -0.939  -4.738  0.00  0.00    -0.303 N 
ATOM      2  C   UNK A   0       0.079  -1.641  -5.863  0.00  0.00    +0.220 C 
ATOM      3  O   UNK A   0       1.071  -2.333  -5.947  0.00  0.00    -0.275 OA
ATOM      4  H   VAL A   1      -0.955  -0.386  -4.671  0.00  0.00    +0.149 HD
ENDROOT
BRANCH   1   5
ATOM      5  CA  VAL A   1       0.778  -1.012  -3.615  0.00  0.00    +0.161 C 
BRANCH   5   7
ATOM      6  N   VAL A   1       0.490  -1.205  -1.166  0.00  0.00    -0.309 N 
ATOM      7  C   VAL A   1       0.055  -0.691  -2.333  0.00  0.00    +0.234 C 
ATOM      8  O   VAL A   1      -0.920   0.031  -2.351  0.00  0.00    -0.274 OA
ATOM      9  H   VAL A   1       1.228  -1.835  -1.159  0.00  0.00    +0.149 HD
BRANCH   6  11
ATOM     10  CB  VAL A   1       0.478   0.487   0.599  0.00  0.00    +0.030 C 
ATOM     11  CA  VAL A   1      -0.149  -0.813   0.092  0.00  0.00    +0.095 C 
BRANCH  11  12
ATOM     12  C   VAL A   1       0.052  -1.916   1.132  0.00  0.00    +0.177 C 
BRANCH  12  13
ATOM     13  O   VAL A   1       1.443  -2.036   1.437  0.00  0.00    -0.393 OA
ATOM     14  H   VAL A   1       1.645  -2.719   2.091  0.00  0.00    +0.209 HD
ENDBRANCH  12  13
ENDBRANCH  11  12
ENDBRANCH   6  11
ENDBRANCH   5   7
BRANCH   5  15
ATOM     15  CB  VAL A   1       1.908  -0.002  -3.830  0.00  0.00    +0.012 C 
ATOM     16  CG1 VAL A   1       2.919  -0.117  -2.687  0.00  0.00    +0.009 C 
ATOM     17  CG2 VAL A   1       2.607  -0.294  -5.160  0.00  0.00    +0.009 C 
ENDBRANCH   5  15
ENDBRANCH   1   5
BRANCH   2  18
ATOM     18  C   UNK A   0      -0.887  -1.567  -7.017  0.00  0.00    +0.153 C 
BRANCH  18  19
ATOM     19  C   UNK A   0      -0.392  -2.437  -8.143  0.00  0.00    +0.078 A 
ATOM     20  C   UNK A   0      -1.158  -2.530  -9.387  0.00  0.00    +0.011 A 
ATOM     21  C   UNK A   0      -2.351  -1.829  -9.572  0.00  0.00    +0.010 A 
ATOM     22  C   UNK A   0      -3.030  -1.948 -10.752  0.00  0.00    +0.001 A 
ATOM     23  C   UNK A   0      -2.549  -2.758 -11.773  0.00  0.00    +0.001 A 
ATOM     24  C   UNK A   0      -1.375  -3.462 -11.619  0.00  0.00    +0.014 A 
ATOM     25  C   UNK A   0      -0.665  -3.355 -10.424  0.00  0.00    +0.050 A 
ATOM     26  C   UNK A   0       0.592  -4.079 -10.198  0.00  0.00    +0.272 A 
ATOM     27  N   UNK A   0       1.224  -3.928  -9.015  0.00  0.00    -0.242 N 
ATOM     28  N   UNK A   0       0.717  -3.101  -8.012  0.00  0.00    -0.175 NA
ATOM     29  O   UNK A   0       1.056  -4.802 -11.061  0.00  0.00    -0.266 OA
ATOM     30  H   UNK A   0       2.056  -4.403  -8.860  0.00  0.00    +0.192 HD
ENDBRANCH  18  19
ENDBRANCH   2  18
TORSDOF 8
