REMARK  Name = ZINC05687541
REMARK  5 active torsions:
REMARK  status: ('A' for Active; 'I' for Inactive)
REMARK    1  A    between atoms: C_10  and  N_12
REMARK    2  A    between atoms: N_12  and  C_13
REMARK    3  A    between atoms: C_16  and  S_22
REMARK    4  A    between atoms: C_18  and  N_19
REMARK    5  A    between atoms: S_22  and  N_25
REMARK                            x       y       z     vdW  Elec       q    Type
REMARK                         _______ _______ _______ _____ _____    ______ ____
ROOT
ATOM      1  C   UNL     1       1.193   3.098   0.085  0.00  0.00    +0.058 A 
ATOM      2  C   UNL     1       1.131   1.711   0.041  0.00  0.00    +0.027 A 
ATOM      3  C   UNL     1      -0.094   1.077  -0.028  0.00  0.00    +0.030 A 
ATOM      4  C   UNL     1      -1.258   1.823  -0.059  0.00  0.00    +0.107 A 
ATOM      5  C   UNL     1      -1.201   3.204  -0.010  0.00  0.00    +0.063 A 
ATOM      6  C   UNL     1       0.022   3.843   0.059  0.00  0.00    +0.149 A 
ENDROOT
BRANCH   6   7
ATOM      7  N   UNL     1       0.083   5.321   0.104  0.00  0.00    +0.058 N 
ATOM      8  O   UNL     1      -0.751   5.946   0.735  0.00  0.00    -0.126 OA
ATOM      9  O   UNL     1       0.967   5.913  -0.489  0.00  0.00    -0.126 OA
ENDBRANCH   6   7
BRANCH   4  10
ATOM     10  S   UNL     1      -2.819   1.011  -0.154  0.00  0.00    +0.056 S 
ATOM     11  O   UNL     1      -3.729   1.945  -0.720  0.00  0.00    -0.153 OA
ATOM     12  O   UNL     1      -2.579  -0.264  -0.733  0.00  0.00    -0.153 OA
BRANCH  10  13
ATOM     13  N   UNL     1      -3.325   0.739   1.399  0.00  0.00    -0.204 NA
ATOM     14  H   UNL     1      -2.774   1.022   2.145  0.00  0.00    +0.144 HD
ATOM     15  H   UNL     1      -4.173   0.297   1.562  0.00  0.00    +0.144 HD
ENDBRANCH  10  13
ENDBRANCH   4  10
BRANCH   1  16
ATOM     16  N   UNL     1       2.431   3.741   0.155  0.00  0.00    -0.335 N 
ATOM     17  H   UNL     1       2.479   4.708   0.090  0.00  0.00    +0.147 HD
BRANCH  16  27
ATOM     18  C   UNL     1       4.122   2.122   4.495  0.00  0.00    +0.000 A 
ATOM     19  C   UNL     1       2.882   2.038   3.890  0.00  0.00    +0.000 A 
ATOM     20  C   UNL     1       2.756   2.314   2.545  0.00  0.00    +0.006 A 
ATOM     21  C   UNL     1       3.866   2.676   1.791  0.00  0.00    -0.024 A 
ATOM     22  C   UNL     1       5.100   2.762   2.393  0.00  0.00    -0.042 A 
ATOM     23  C   UNL     1       5.225   2.483   3.748  0.00  0.00    +0.004 A 
ATOM     24  C   UNL     1       6.344   3.154   1.640  0.00  0.00    +0.035 C 
ATOM     25  C   UNL     1       6.130   3.004   0.135  0.00  0.00    +0.007 C 
ATOM     26  C   UNL     1       4.838   3.737  -0.245  0.00  0.00    +0.027 C 
ATOM     27  C   UNL     1       3.656   2.957   0.326  0.00  0.00    +0.101 C 
ENDBRANCH  16  27
ENDBRANCH   1  16
TORSDOF 5
