REMARK  Name = ZINC36629526
REMARK  7 active torsions:
REMARK  status: ('A' for Active; 'I' for Inactive)
REMARK    1  A    between atoms: C_1  and  C_2
REMARK    2  A    between atoms: C_2  and  O_3
REMARK    3  A    between atoms: O_3  and  C_4
REMARK    4  A    between atoms: C_4  and  C_6
REMARK    5  A    between atoms: C_10  and  N_11
REMARK    6  A    between atoms: C_12  and  C_14
REMARK    7  A    between atoms: N_29  and  C_32
REMARK                            x       y       z     vdW  Elec       q    Type
REMARK                         _______ _______ _______ _____ _____    ______ ____
ROOT
ATOM      1  N   UNL     1      -3.036  -2.524   2.499  0.00  0.00    -0.279 N 
ATOM      2  C   UNL     1      -3.812  -2.868   3.546  0.00  0.00    +0.230 C 
ATOM      3  O   UNL     1      -4.913  -3.339   3.357  0.00  0.00    -0.274 OA
ATOM      4  H   UNL     1      -2.155  -2.147   2.651  0.00  0.00    +0.155 HD
ENDROOT
BRANCH   2   5
ATOM      5  C   UNL     1      -3.311  -2.666   4.953  0.00  0.00    +0.142 C 
ATOM      6  C   UNL     1      -2.038  -3.446   5.144  0.00  0.00    +0.011 A 
ATOM      7  C   UNL     1      -0.853  -2.945   4.635  0.00  0.00    +0.008 A 
ATOM      8  C   UNL     1       0.327  -3.646   4.801  0.00  0.00    +0.001 A 
ATOM      9  C   UNL     1       0.326  -4.852   5.477  0.00  0.00    +0.004 A 
ATOM     10  C   UNL     1      -0.854  -5.357   5.987  0.00  0.00    +0.046 A 
ATOM     11  C   UNL     1      -2.042  -4.654   5.822  0.00  0.00    +0.133 A 
ATOM     12  O   UNL     1      -3.189  -5.164   6.330  0.00  0.00    -0.455 OA
ATOM     13  C   UNL     1      -4.247  -4.352   6.565  0.00  0.00    +0.133 A 
ATOM     14  C   UNL     1      -4.362  -3.127   5.926  0.00  0.00    +0.011 A 
ATOM     15  C   UNL     1      -5.452  -2.316   6.183  0.00  0.00    +0.008 A 
ATOM     16  C   UNL     1      -6.427  -2.721   7.073  0.00  0.00    +0.001 A 
ATOM     17  C   UNL     1      -6.316  -3.943   7.712  0.00  0.00    +0.004 A 
ATOM     18  C   UNL     1      -5.230  -4.758   7.460  0.00  0.00    +0.046 A 
ENDBRANCH   2   5
BRANCH   1  23
ATOM     19  C   UNL     1      -2.842  -2.416   0.016  0.00  0.00    +0.091 A 
ATOM     20  C   UNL     1      -3.547  -2.713  -1.215  0.00  0.00    -0.025 A 
ATOM     21  C   UNL     1      -4.779  -3.242  -1.038  0.00  0.00    -0.021 A 
ATOM     22  S   UNL     1      -4.976  -3.336   0.716  0.00  0.00    -0.079 S 
ATOM     23  C   UNL     1      -3.497  -2.709   1.205  0.00  0.00    +0.086 A 
ATOM     24  C   UNL     1      -5.733  -3.641  -2.119  0.00  0.00    -0.036 C 
ATOM     25  N   UNL     1      -5.287  -3.024  -3.381  0.00  0.00    +0.381 N 
ATOM     26  C   UNL     1      -3.861  -3.306  -3.592  0.00  0.00    -0.074 C 
ATOM     27  C   UNL     1      -3.010  -2.481  -2.621  0.00  0.00    +0.018 C 
ATOM     28  C   UNL     1      -6.065  -3.576  -4.498  0.00  0.00    -0.096 C 
ATOM     29  H   UNL     1      -5.429  -2.026  -3.336  0.00  0.00    -0.082 HD
BRANCH  19  30
ATOM     30  C   UNL     1      -1.497  -1.838   0.006  0.00  0.00    +0.342 C 
ATOM     31  O   UNL     1      -0.523  -2.566  -0.007  0.00  0.00    -0.245 OA
BRANCH  30  32
ATOM     32  O   UNL     1      -1.339  -0.499   0.012  0.00  0.00    -0.461 OA
BRANCH  32  34
ATOM     33  C   UNL     1      -0.019   1.526   0.010  0.00  0.00    +0.048 C 
ATOM     34  C   UNL     1       0.002  -0.004   0.002  0.00  0.00    +0.229 C 
ENDBRANCH  32  34
ENDBRANCH  30  32
ENDBRANCH  19  30
ENDBRANCH   1  23
TORSDOF 5
