REMARK  Name = ZINC09575373
REMARK  10 active torsions:
REMARK  status: ('A' for Active; 'I' for Inactive)
REMARK    1  A    between atoms: C_1  and  C_2
REMARK    2  A    between atoms: C_3  and  C_29
REMARK    3  A    between atoms: C_7  and  S_18
REMARK    4  A    between atoms: C_9  and  C_11
REMARK    5  A    between atoms: C_11  and  N_57
REMARK    6  A    between atoms: C_14  and  C_17
REMARK    7  A    between atoms: S_18  and  C_19
REMARK    8  A    between atoms: C_21  and  C_28
REMARK    9  A    between atoms: C_22  and  C_24
REMARK   10  A    between atoms: C_24  and  C_25
REMARK                            x       y       z     vdW  Elec       q    Type
REMARK                         _______ _______ _______ _____ _____    ______ ____
ROOT
ATOM      1  C   UNL     1      -2.014   7.267  -7.081  0.00  0.00    +0.045 C 
ATOM      2  C   UNL     1      -0.635   6.789  -6.703  0.00  0.00    -0.029 A 
ATOM      3  C   UNL     1       0.263   6.489  -7.653  0.00  0.00    -0.008 A 
ATOM      4  S   UNL     1       1.699   5.986  -6.725  0.00  0.00    -0.074 S 
ATOM      5  C   UNL     1       1.054   6.192  -5.086  0.00  0.00    +0.113 A 
ATOM      6  C   UNL     1      -0.264   6.647  -5.306  0.00  0.00    +0.043 A 
ATOM      7  C   UNL     1      -1.027   6.898  -4.132  0.00  0.00    +0.115 A 
ATOM      8  N   UNL     1      -0.473   6.695  -2.947  0.00  0.00    -0.227 NA
ATOM      9  C   UNL     1       0.769   6.266  -2.816  0.00  0.00    +0.115 A 
ATOM     10  N   UNL     1       1.528   6.021  -3.867  0.00  0.00    -0.227 NA
ATOM     11  C   UNL     1       0.097   6.561  -9.149  0.00  0.00    +0.052 C 
ENDROOT
BRANCH   9  12
ATOM     12  C   UNL     1       1.335   6.058  -1.435  0.00  0.00    -0.001 C 
BRANCH  12  19
ATOM     13  C   UNL     1       2.086   4.323   0.076  0.00  0.00    -0.078 C 
ATOM     14  C   UNL     1       2.057   2.815   0.337  0.00  0.00    -0.016 C 
ATOM     15  C   UNL     1       0.617   2.379   0.622  0.00  0.00    -0.018 C 
ATOM     16  C   UNL     1      -0.269   2.764  -0.566  0.00  0.00    -0.016 C 
ATOM     17  C   UNL     1      -0.172   4.273  -0.800  0.00  0.00    -0.078 C 
ATOM     18  C   UNL     1       0.573   0.863   0.823  0.00  0.00    +0.007 C 
ATOM     19  N   UNL     1       1.234   4.624  -1.093  0.00  0.00    +0.384 N 
ATOM     20  H   UNL     1       1.556   4.067  -1.893  0.00  0.00    -0.081 HD
ENDBRANCH  12  19
ENDBRANCH   9  12
BRANCH   7  21
ATOM     21  S   UNL     1      -2.689   7.471  -4.253  0.00  0.00    -0.042 S 
BRANCH  21  22
ATOM     22  C   UNL     1      -3.037   7.761  -2.551  0.00  0.00    +0.141 A 
ATOM     23  N   UNL     1      -2.277   7.529  -1.498  0.00  0.00    -0.237 NA
ATOM     24  C   UNL     1      -2.696   7.808  -0.278  0.00  0.00    +0.050 A 
ATOM     25  C   UNL     1      -3.932   8.342  -0.126  0.00  0.00    +0.022 A 
ATOM     26  S   UNL     1      -4.466   8.434  -1.829  0.00  0.00    -0.065 S 
ATOM     27  C   UNL     1      -1.820   7.538   0.918  0.00  0.00    +0.066 C 
BRANCH  25  28
ATOM     28  C   UNL     1      -4.653   8.753   1.131  0.00  0.00    +0.139 C 
BRANCH  28  29
ATOM     29  C   UNL     1      -4.343  10.194   1.441  0.00  0.00    +0.215 C 
ATOM     30  O   UNL     1      -3.608  10.827   0.712  0.00  0.00    -0.276 OA
ATOM     31  N   UNL     1      -4.882  10.781   2.528  0.00  0.00    -0.329 N 
ATOM     32  H   UNL     1      -5.470  10.276   3.111  0.00  0.00    +0.145 HD
ATOM     33  H   UNL     1      -4.682  11.710   2.727  0.00  0.00    +0.145 HD
ENDBRANCH  28  29
ENDBRANCH  25  28
ENDBRANCH  21  22
ENDBRANCH   7  21
TORSDOF 6
