REMARK  Name = ZINC39660445
REMARK  13 active torsions:
REMARK  status: ('A' for Active; 'I' for Inactive)
REMARK    1  A    between atoms: C_1  and  C_2
REMARK    2  A    between atoms: C_2  and  C_3
REMARK    3  A    between atoms: C_3  and  C_4
REMARK    4  A    between atoms: C_4  and  C_5
REMARK    5  A    between atoms: C_5  and  C_6
REMARK    6  A    between atoms: C_6  and  N_7
REMARK    7  A    between atoms: C_8  and  C_10
REMARK    8  A    between atoms: C_21  and  C_23
REMARK    9  A    between atoms: C_23  and  C_25
REMARK   10  A    between atoms: C_23  and  O_28
REMARK   11  A    between atoms: C_25  and  C_26
REMARK   12  A    between atoms: C_25  and  C_27
REMARK   13  A    between atoms: O_28  and  C_29
REMARK                            x       y       z     vdW  Elec       q    Type
REMARK                         _______ _______ _______ _____ _____    ______ ____
ROOT
ATOM      1  C   UNL     1       3.047  -6.442  -5.206  0.00  0.00    +0.100 C 
ATOM      2  C   UNL     1       2.216  -6.056  -6.450  0.00  0.00    +0.121 C 
ATOM      3  N   UNL     1       2.347  -7.215  -7.363  0.00  0.00    -0.297 N 
ATOM      4  C   UNL     1       2.287  -8.397  -6.470  0.00  0.00    +0.115 C 
ATOM      5  C   UNL     1       3.091  -7.979  -5.222  0.00  0.00    -0.004 C 
ATOM      6  C   UNL     1       2.438  -8.540  -3.962  0.00  0.00    -0.010 C 
ATOM      7  C   UNL     1       2.546 -10.067  -3.973  0.00  0.00    -0.082 C 
ATOM      8  N   UNL     1       3.960 -10.459  -4.032  0.00  0.00    +0.379 N 
ATOM      9  C   UNL     1       4.556  -9.995  -5.291  0.00  0.00    -0.082 C 
ATOM     10  C   UNL     1       4.533  -8.465  -5.336  0.00  0.00    -0.010 C 
ATOM     11  C   UNL     1       2.490  -7.199  -8.703  0.00  0.00    +0.257 C 
ATOM     12  O   UNL     1       2.585  -8.242  -9.315  0.00  0.00    -0.272 OA
ATOM     13  H   UNL     1       4.455 -10.047  -3.256  0.00  0.00    -0.086 HD
ATOM     14  H   UNL     1       4.031 -11.464  -3.978  0.00  0.00    -0.086 HD
ENDROOT
BRANCH   1  16
ATOM     15  N   UNL     1       3.092  -5.781  -2.823  0.00  0.00    -0.315 N 
ATOM     16  C   UNL     1       2.374  -5.949  -3.951  0.00  0.00    +0.218 C 
ATOM     17  O   UNL     1       1.186  -5.704  -3.956  0.00  0.00    -0.275 OA
ATOM     18  H   UNL     1       4.042  -5.977  -2.819  0.00  0.00    +0.149 HD
BRANCH  15  19
ATOM     19  C   UNL     1       2.437  -5.302  -1.603  0.00  0.00    +0.104 C 
BRANCH  19  20
ATOM     20  C   UNL     1       3.469  -5.200  -0.477  0.00  0.00    +0.019 C 
BRANCH  20  21
ATOM     21  C   UNL     1       2.785  -4.700   0.797  0.00  0.00    +0.002 C 
BRANCH  21  22
ATOM     22  C   UNL     1       3.816  -4.598   1.923  0.00  0.00    -0.000 C 
BRANCH  22  24
ATOM     23  C   UNL     1       4.164  -3.995   4.322  0.00  0.00    +0.004 C 
ATOM     24  C   UNL     1       3.133  -4.098   3.197  0.00  0.00    -0.003 C 
ENDBRANCH  22  24
ENDBRANCH  21  22
ENDBRANCH  20  21
ENDBRANCH  19  20
ENDBRANCH  15  19
ENDBRANCH   1  16
BRANCH  11  25
ATOM     25  C   UNL     1       2.530  -5.886  -9.441  0.00  0.00    +0.261 C 
BRANCH  25  26
ATOM     26  C   UNL     1       1.179  -5.181  -9.302  0.00  0.00    +0.033 C 
ATOM     27  C   UNL     1       1.220  -3.847 -10.051  0.00  0.00    +0.011 C 
ATOM     28  C   UNL     1       0.079  -6.064  -9.893  0.00  0.00    +0.011 C 
ENDBRANCH  25  26
BRANCH  25  29
ATOM     29  O   UNL     1       2.803  -6.124 -10.823  0.00  0.00    -0.479 OA
BRANCH  29  30
ATOM     30  C   UNL     1       3.530  -5.182 -11.480  0.00  0.00    +0.122 A 
ATOM     31  C   UNL     1       4.043  -4.094 -10.790  0.00  0.00    +0.045 A 
ATOM     32  C   UNL     1       4.782  -3.139 -11.460  0.00  0.00    +0.004 A 
ATOM     33  C   UNL     1       5.010  -3.266 -12.817  0.00  0.00    +0.000 A 
ATOM     34  C   UNL     1       4.499  -4.349 -13.508  0.00  0.00    +0.004 A 
ATOM     35  C   UNL     1       3.765  -5.311 -12.841  0.00  0.00    +0.045 A 
ENDBRANCH  29  30
ENDBRANCH  25  29
ENDBRANCH  11  25
TORSDOF 10
