REMARK  Name = ZINC67436837
REMARK  11 active torsions:
REMARK  status: ('A' for Active; 'I' for Inactive)
REMARK    1  A    between atoms: C_1  and  C_2
REMARK    2  A    between atoms: C_4  and  C_24
REMARK    3  A    between atoms: C_6  and  C_23
REMARK    4  A    between atoms: C_7  and  S_8
REMARK    5  A    between atoms: S_8  and  N_11
REMARK    6  A    between atoms: C_15  and  C_18
REMARK    7  A    between atoms: C_18  and  N_19
REMARK    8  A    between atoms: C_20  and  C_22
REMARK    9  A    between atoms: C_24  and  C_25
REMARK   10  A    between atoms: C_24  and  C_26
REMARK   11  A    between atoms: C_24  and  C_27
REMARK                            x       y       z     vdW  Elec       q    Type
REMARK                         _______ _______ _______ _____ _____    ______ ____
ROOT
ATOM      1  S   UNL     1       0.025   0.171   2.726  0.00  0.00    +0.061 S 
ATOM      2  O   UNL     1       0.598  -0.702   3.690  0.00  0.00    -0.153 OA
ATOM      3  O   UNL     1       0.556   1.462   2.457  0.00  0.00    -0.153 OA
ENDROOT
BRANCH   1  10
ATOM      4  C   UNL     1      -0.018   1.503   0.010  0.00  0.00    +0.046 C 
ATOM      5  C   UNL     1       0.002  -0.004   0.002  0.00  0.00    -0.024 A 
ATOM      6  C   UNL     1       0.006  -0.689  -1.199  0.00  0.00    +0.009 A 
ATOM      7  C   UNL     1       0.025  -2.071  -1.206  0.00  0.00    -0.041 A 
ATOM      8  C   UNL     1       0.040  -2.768  -0.013  0.00  0.00    +0.009 A 
ATOM      9  C   UNL     1       0.037  -2.084   1.188  0.00  0.00    -0.024 A 
ATOM     10  C   UNL     1       0.023  -0.702   1.195  0.00  0.00    +0.111 A 
ATOM     11  C   UNL     1       0.054  -2.844   2.489  0.00  0.00    +0.046 C 
BRANCH   7  12
ATOM     12  C   UNL     1       0.027  -2.817  -2.516  0.00  0.00    -0.013 C 
ATOM     13  C   UNL     1       1.267  -2.426  -3.323  0.00  0.00    +0.015 C 
ATOM     14  C   UNL     1       0.049  -4.323  -2.244  0.00  0.00    +0.015 C 
ATOM     15  C   UNL     1      -1.231  -2.460  -3.309  0.00  0.00    +0.015 C 
ENDBRANCH   7  12
ENDBRANCH   1  10
BRANCH   1  16
ATOM     16  N   UNL     1      -1.556   0.392   3.166  0.00  0.00    -0.176 NA
ATOM     17  C   UNL     1      -2.293   1.587   2.734  0.00  0.00    +0.109 C 
ATOM     18  C   UNL     1      -2.893   2.269   3.968  0.00  0.00    +0.017 C 
ATOM     19  C   UNL     1      -3.737   1.257   4.745  0.00  0.00    +0.007 C 
ATOM     20  C   UNL     1      -2.848   0.103   5.215  0.00  0.00    +0.022 C 
ATOM     21  C   UNL     1      -2.249  -0.606   3.991  0.00  0.00    +0.114 C 
BRANCH  20  22
ATOM     22  C   UNL     1      -3.686  -0.892   6.021  0.00  0.00    +0.109 C 
BRANCH  22  23
ATOM     23  N   UNL     1      -4.165  -0.247   7.247  0.00  0.00    -0.315 N 
ATOM     24  C   UNL     1      -4.928  -0.937   8.117  0.00  0.00    +0.210 C 
ATOM     25  O   UNL     1      -5.219  -2.091   7.886  0.00  0.00    -0.276 OA
ATOM     26  C   UNL     1      -5.421  -0.274   9.378  0.00  0.00    +0.109 C 
ATOM     27  H   UNL     1      -3.932   0.676   7.432  0.00  0.00    +0.149 HD
ENDBRANCH  22  23
ENDBRANCH  20  22
ENDBRANCH   1  16
TORSDOF 5
