REMARK  Name = ZINC33597592
REMARK  10 active torsions:
REMARK  status: ('A' for Active; 'I' for Inactive)
REMARK    1  A    between atoms: C_1  and  C_2
REMARK    2  A    between atoms: C_2  and  C_4
REMARK    3  A    between atoms: C_7  and  N_10
REMARK    4  A    between atoms: C_15  and  C_34
REMARK    5  A    between atoms: C_18  and  C_23
REMARK    6  A    between atoms: C_18  and  C_31
REMARK    7  A    between atoms: C_23  and  C_24
REMARK    8  A    between atoms: C_27  and  O_30
REMARK    9  A    between atoms: C_39  and  O_40
REMARK   10  A    between atoms: O_40  and  C_41
REMARK                            x       y       z     vdW  Elec       q    Type
REMARK                         _______ _______ _______ _____ _____    ______ ____
ROOT
ATOM      1  N   UNL     1      -4.900  -2.972   0.008  0.00  0.00    -0.210 N 
ATOM      2  C   UNL     1      -6.123  -2.350   0.027  0.00  0.00    +0.229 C 
ATOM      3  O   UNL     1      -6.365  -1.183  -0.197  0.00  0.00    -0.275 OA
ATOM      4  C   UNL     1      -7.059  -3.395   0.373  0.00  0.00    +0.077 C 
ATOM      5  C   UNL     1      -8.498  -3.687   0.312  0.00  0.00    -0.023 C 
ATOM      6  N   UNL     1      -8.580  -5.177   0.458  0.00  0.00    +0.396 N 
ATOM      7  C   UNL     1      -7.178  -5.707   0.474  0.00  0.00    +0.052 C 
ATOM      8  C   UNL     1      -6.423  -4.646  -0.354  0.00  0.00    +0.086 C 
ATOM      9  C   UNL     1      -4.999  -4.335   0.018  0.00  0.00    +0.229 C 
ATOM     10  O   UNL     1      -4.122  -5.130   0.275  0.00  0.00    -0.275 OA
ATOM     11  H   UNL     1      -9.045  -5.411   1.323  0.00  0.00    -0.083 HD
ATOM     12  H   UNL     1      -9.086  -5.570  -0.322  0.00  0.00    -0.083 HD
ENDROOT
BRANCH   1  16
ATOM     13  C   UNL     1      -1.270  -0.924  -0.086  0.00  0.00    +0.017 A 
ATOM     14  C   UNL     1      -2.477  -0.214  -0.062  0.00  0.00    +0.013 A 
ATOM     15  C   UNL     1      -3.672  -0.895  -0.032  0.00  0.00    +0.024 A 
ATOM     16  C   UNL     1      -3.683  -2.286  -0.024  0.00  0.00    +0.044 A 
ATOM     17  C   UNL     1      -2.487  -2.996  -0.047  0.00  0.00    +0.024 A 
ATOM     18  C   UNL     1      -1.287  -2.324  -0.084  0.00  0.00    +0.013 A 
BRANCH  13  20
ATOM     19  C   UNL     1       0.024   1.304  -0.120  0.00  0.00    +0.091 C 
ATOM     20  C   UNL     1       0.009  -0.203  -0.118  0.00  0.00    +0.160 C 
ATOM     21  O   UNL     1       1.053  -0.820  -0.143  0.00  0.00    -0.292 OA
ENDBRANCH  13  20
ENDBRANCH   1  16
BRANCH   5  22
ATOM     22  C   UNL     1      -9.067  -3.252  -1.014  0.00  0.00    -0.019 A 
ATOM     23  C   UNL     1      -9.127  -4.144  -2.067  0.00  0.00    +0.005 A 
ATOM     24  C   UNL     1      -9.649  -3.746  -3.283  0.00  0.00    +0.000 A 
ATOM     25  C   UNL     1     -10.113  -2.454  -3.450  0.00  0.00    +0.004 A 
ATOM     26  C   UNL     1     -10.055  -1.558  -2.400  0.00  0.00    +0.046 A 
ATOM     27  C   UNL     1      -9.537  -1.957  -1.176  0.00  0.00    +0.122 A 
BRANCH  27  28
ATOM     28  O   UNL     1      -9.484  -1.079  -0.140  0.00  0.00    -0.495 OA
ATOM     29  C   UNL     1      -9.986   0.238  -0.380  0.00  0.00    +0.277 C 
ENDBRANCH  27  28
ENDBRANCH   5  22
BRANCH   7  30
ATOM     30  C   UNL     1      -7.108  -7.052  -0.204  0.00  0.00    +0.347 C 
ATOM     31  O   UNL     1      -8.121  -7.565  -0.646  0.00  0.00    -0.248 OA
ATOM     32  O   UNL     1      -6.037  -7.626  -0.309  0.00  0.00    -0.248 OA
ENDBRANCH   7  30
BRANCH   7  33
ATOM     33  C   UNL     1      -6.647  -5.792   1.906  0.00  0.00    +0.035 C 
BRANCH  33  34
ATOM     34  C   UNL     1      -7.472  -6.779   2.691  0.00  0.00    -0.048 A 
ATOM     35  C   UNL     1      -8.596  -6.351   3.373  0.00  0.00    +0.007 A 
ATOM     36  C   UNL     1      -9.354  -7.254   4.093  0.00  0.00    +0.045 A 
ATOM     37  C   UNL     1      -8.987  -8.591   4.131  0.00  0.00    +0.117 A 
ATOM     38  C   UNL     1      -7.859  -9.018   3.445  0.00  0.00    +0.045 A 
ATOM     39  C   UNL     1      -7.107  -8.113   2.722  0.00  0.00    +0.007 A 
BRANCH  37  40
ATOM     40  O   UNL     1      -9.731  -9.481   4.839  0.00  0.00    -0.507 OA
ATOM     41  H   UNL     1     -10.440  -9.895   4.329  0.00  0.00    +0.292 HD
ENDBRANCH  37  40
ENDBRANCH  33  34
ENDBRANCH   7  33
TORSDOF 8
