REMARK  Name = ZINC09713578
REMARK  6 active torsions:
REMARK  status: ('A' for Active; 'I' for Inactive)
REMARK    1  A    between atoms: C_1  and  C_2
REMARK    2  A    between atoms: C_5  and  C_8
REMARK    3  A    between atoms: C_11  and  C_32
REMARK    4  A    between atoms: C_14  and  C_16
REMARK    5  A    between atoms: C_16  and  N_64
REMARK    6  A    between atoms: C_19  and  C_22
REMARK                            x       y       z     vdW  Elec       q    Type
REMARK                         _______ _______ _______ _____ _____    ______ ____
ROOT
ATOM      1  C   UNL     1      -0.429 -10.979   0.480  0.00  0.00    +0.137 C 
ATOM      2  C   UNL     1      -1.281 -12.244   0.261  0.00  0.00    +0.087 C 
ATOM      3  C   UNL     1      -2.530 -11.730  -0.418  0.00  0.00    +0.075 C 
ATOM      4  N   UNL     1      -2.444 -10.450  -0.565  0.00  0.00    -0.180 NA
ATOM      5  N   UNL     1      -1.258  -9.901  -0.082  0.00  0.00    -0.187 N 
ATOM      6  C   UNL     1      -0.926  -8.595  -0.118  0.00  0.00    +0.219 C 
ATOM      7  O   UNL     1       0.135  -8.226   0.338  0.00  0.00    -0.276 OA
ENDROOT
BRANCH   1  12
ATOM      8  C   UNL     1       4.583 -11.385  -2.368  0.00  0.00    +0.044 C 
ATOM      9  C   UNL     1       3.276 -11.279  -1.625  0.00  0.00    -0.050 A 
ATOM     10  C   UNL     1       3.244 -11.453  -0.254  0.00  0.00    +0.004 A 
ATOM     11  C   UNL     1       2.045 -11.356   0.427  0.00  0.00    +0.006 A 
ATOM     12  C   UNL     1       0.878 -11.085  -0.263  0.00  0.00    -0.025 A 
ATOM     13  C   UNL     1       0.909 -10.916  -1.634  0.00  0.00    +0.006 A 
ATOM     14  C   UNL     1       2.109 -11.009  -2.315  0.00  0.00    +0.004 A 
ENDBRANCH   1  12
BRANCH   3  15
ATOM     15  C   UNL     1      -3.666 -12.556  -0.841  0.00  0.00    +0.035 A 
ATOM     16  C   UNL     1      -4.840 -12.172  -1.464  0.00  0.00    +0.017 A 
ATOM     17  C   UNL     1      -5.768 -13.142  -1.764  0.00  0.00    +0.008 A 
ATOM     18  C   UNL     1      -5.506 -14.435  -1.442  0.00  0.00    +0.046 A 
ATOM     19  S   UNL     1      -3.891 -14.321  -0.691  0.00  0.00    -0.095 S 
ENDBRANCH   3  15
BRANCH   6  20
ATOM     20  C   UNL     1      -1.874  -7.594  -0.727  0.00  0.00    +0.021 C 
BRANCH  20  26
ATOM     21  C   UNL     1      -2.065  -5.286  -1.433  0.00  0.00    -0.077 C 
ATOM     22  C   UNL     1      -1.345  -3.936  -1.444  0.00  0.00    -0.008 C 
ATOM     23  C   UNL     1      -1.185  -3.436  -0.005  0.00  0.00    +0.052 C 
ATOM     24  C   UNL     1      -0.413  -4.480   0.807  0.00  0.00    -0.008 C 
ATOM     25  C   UNL     1      -1.159  -5.816   0.752  0.00  0.00    -0.077 C 
ATOM     26  N   UNL     1      -1.259  -6.253  -0.657  0.00  0.00    +0.385 N 
ATOM     27  H   UNL     1      -0.315  -6.298  -1.060  0.00  0.00    -0.081 HD
BRANCH  23  28
ATOM     28  C   UNL     1      -0.424  -2.135  -0.005  0.00  0.00    +0.111 A 
ATOM     29  N   UNL     1       0.932  -2.026  -0.018  0.00  0.00    -0.342 N 
ATOM     30  H   UNL     1       1.588  -2.780  -0.028  0.00  0.00    +0.167 HD
ATOM     31  C   UNL     1       1.234  -0.679  -0.013  0.00  0.00    +0.066 A 
ATOM     32  C   UNL     1       2.419   0.046  -0.021  0.00  0.00    +0.028 A 
ATOM     33  C   UNL     1       2.376   1.424  -0.013  0.00  0.00    +0.002 A 
ATOM     34  C   UNL     1       1.158   2.090   0.002  0.00  0.00    +0.002 A 
ATOM     35  C   UNL     1      -0.017   1.393   0.010  0.00  0.00    +0.030 A 
ATOM     36  C   UNL     1       0.002  -0.004   0.002  0.00  0.00    +0.089 A 
ATOM     37  N   UNL     1      -0.968  -0.954   0.006  0.00  0.00    -0.232 NA
ENDBRANCH  23  28
ENDBRANCH  20  26
ENDBRANCH   6  20
TORSDOF 5
