REMARK  Name = ZINC00679655
REMARK  11 active torsions:
REMARK  status: ('A' for Active; 'I' for Inactive)
REMARK    1  A    between atoms: C_1  and  C_2
REMARK    2  A    between atoms: C_2  and  O_3
REMARK    3  A    between atoms: O_3  and  C_4
REMARK    4  A    between atoms: C_6  and  C_22
REMARK    5  A    between atoms: C_9  and  O_10
REMARK    6  A    between atoms: O_10  and  C_11
REMARK    7  A    between atoms: C_11  and  C_12
REMARK    8  A    between atoms: N_14  and  C_15
REMARK    9  A    between atoms: C_22  and  N_23
REMARK   10  A    between atoms: N_23  and  N_24
REMARK   11  A    between atoms: C_25  and  C_31
REMARK                            x       y       z     vdW  Elec       q    Type
REMARK                         _______ _______ _______ _____ _____    ______ ____
ROOT
ATOM      1  C   UNL     1       6.343   1.713   2.534  0.00  0.00    +0.163 A 
ATOM      2  C   UNL     1       7.685   2.046   2.623  0.00  0.00    +0.054 A 
ATOM      3  C   UNL     1       8.579   1.572   1.681  0.00  0.00    -0.024 A 
ATOM      4  C   UNL     1       8.137   0.766   0.648  0.00  0.00    +0.024 A 
ATOM      5  C   UNL     1       6.800   0.425   0.557  0.00  0.00    +0.063 A 
ATOM      6  C   UNL     1       5.898   0.902   1.495  0.00  0.00    +0.176 A 
ATOM      7 BR   UNL     1       6.201  -0.685  -0.852  0.00  0.00    -0.046 Br
ENDROOT
BRANCH   1   8
ATOM      8  O   UNL     1       5.463   2.178   3.460  0.00  0.00    -0.489 OA
BRANCH   8  10
ATOM      9  C   UNL     1       4.860   3.429   5.438  0.00  0.00    +0.048 C 
ATOM     10  C   UNL     1       5.991   3.006   4.499  0.00  0.00    +0.226 C 
ENDBRANCH   8  10
ENDBRANCH   1   8
BRANCH   6  11
ATOM     11  O   UNL     1       4.581   0.573   1.404  0.00  0.00    -0.478 OA
BRANCH  11  12
ATOM     12  C   UNL     1       3.745   1.447   0.644  0.00  0.00    +0.324 C 
BRANCH  12  13
ATOM     13  C   UNL     1       2.331   0.926   0.654  0.00  0.00    +0.251 C 
ATOM     14  O   UNL     1       2.066  -0.095   1.254  0.00  0.00    -0.272 OA
ATOM     15  N   UNL     1       1.362   1.593  -0.002  0.00  0.00    -0.310 N 
ATOM     16  H   UNL     1       1.602   2.518  -0.546  0.00  0.00    +0.149 HD
BRANCH  15  17
ATOM     17  C   UNL     1      -0.013   1.086   0.008  0.00  0.00    +0.073 C 
ATOM     18  C   UNL     1      -0.729   1.579   1.267  0.00  0.00    +0.022 C 
ATOM     19  C   UNL     1      -2.164   1.050   1.278  0.00  0.00    +0.002 C 
ATOM     20  C   UNL     1      -2.904   1.556   0.038  0.00  0.00    +0.000 C 
ATOM     21  C   UNL     1      -2.188   1.063  -1.221  0.00  0.00    +0.002 C 
ATOM     22  C   UNL     1      -0.753   1.593  -1.232  0.00  0.00    +0.022 C 
ENDBRANCH  15  17
ENDBRANCH  12  13
ENDBRANCH  11  12
ENDBRANCH   6  11
BRANCH   3  23
ATOM     23  C   UNL     1      10.039   1.934   1.780  0.00  0.00    +0.156 C 
BRANCH  23  24
ATOM     24  N   UNL     1      10.739   0.930   2.592  0.00  0.00    -0.277 N 
ATOM     25  H   UNL     1      10.183   0.080   3.015  0.00  0.00    +0.167 HD
BRANCH  24  26
ATOM     26  N   UNL     1      12.067   1.229   2.702  0.00  0.00    -0.227 N 
ATOM     27  C   UNL     1      13.107   0.433   2.289  0.00  0.00    +0.146 A 
ATOM     28  N   UNL     1      14.223   1.036   2.549  0.00  0.00    -0.157 NA
ATOM     29  N   UNL     1      13.925   2.262   3.158  0.00  0.00    -0.253 N 
ATOM     30  H   UNL     1      14.738   2.936   3.466  0.00  0.00    +0.191 HD
ATOM     31  C   UNL     1      12.581   2.354   3.239  0.00  0.00    +0.193 A 
ATOM     32  S   UNL     1      11.692   3.658   3.902  0.00  0.00    -0.010 S 
ATOM     33  C   UNL     1      12.972  -0.919   1.639  0.00  0.00    +0.090 C 
ENDBRANCH  24  26
ENDBRANCH  23  24
ENDBRANCH   3  23
TORSDOF 9
