REMARK  Name = ZINC19237764
REMARK  8 active torsions:
REMARK  status: ('A' for Active; 'I' for Inactive)
REMARK    1  A    between atoms: C_1  and  C_2
REMARK    2  A    between atoms: C_7  and  C_8
REMARK    3  A    between atoms: C_8  and  N_9
REMARK    4  A    between atoms: N_9  and  C_10
REMARK    5  A    between atoms: C_10  and  C_11
REMARK    6  A    between atoms: C_17  and  C_19
REMARK    7  A    between atoms: C_19  and  C_20
REMARK    8  A    between atoms: N_27  and  C_28
REMARK                            x       y       z     vdW  Elec       q    Type
REMARK                         _______ _______ _______ _____ _____    ______ ____
ROOT
ATOM      1  N   UNL     1       3.948   2.753  -0.670  0.00  0.00    -0.291 N 
ATOM      2  C   UNL     1       3.555   3.720  -1.522  0.00  0.00    +0.215 C 
ATOM      3  O   UNL     1       3.655   3.552  -2.719  0.00  0.00    -0.276 OA
ENDROOT
BRANCH   1   4
ATOM      4  C   UNL     1       3.731   2.913   0.770  0.00  0.00    +0.163 C 
BRANCH   4  11
ATOM      5  C   UNL     1       5.848   1.452   2.087  0.00  0.00    +0.045 C 
ATOM      6  C   UNL     1       5.903   2.955   2.002  0.00  0.00    -0.028 A 
ATOM      7  C   UNL     1       6.969   3.651   2.553  0.00  0.00    +0.006 A 
ATOM      8  C   UNL     1       6.978   5.033   2.451  0.00  0.00    +0.020 A 
ATOM      9  C   UNL     1       5.932   5.668   1.808  0.00  0.00    +0.111 A 
ATOM     10  N   UNL     1       4.935   4.974   1.295  0.00  0.00    -0.258 NA
ATOM     11  C   UNL     1       4.893   3.658   1.374  0.00  0.00    +0.061 A 
ENDBRANCH   4  11
ENDBRANCH   1   4
BRANCH   1  12
ATOM     12  C   UNL     1       4.592   1.542  -1.184  0.00  0.00    +0.143 C 
BRANCH  12  13
ATOM     13  C   UNL     1       3.560   0.457  -1.351  0.00  0.00    -0.030 A 
ATOM     14  C   UNL     1       3.294  -0.412  -0.309  0.00  0.00    +0.005 A 
ATOM     15  C   UNL     1       2.344  -1.404  -0.462  0.00  0.00    +0.000 A 
ATOM     16  C   UNL     1       1.667  -1.535  -1.660  0.00  0.00    +0.000 A 
ATOM     17  C   UNL     1       1.936  -0.669  -2.704  0.00  0.00    +0.000 A 
ATOM     18  C   UNL     1       2.882   0.326  -2.550  0.00  0.00    +0.005 A 
ENDBRANCH  12  13
ENDBRANCH   1  12
BRANCH   2  19
ATOM     19  C   UNL     1       2.991   5.012  -0.987  0.00  0.00    +0.090 C 
BRANCH  19  20
ATOM     20  C   UNL     1       2.509   5.879  -2.152  0.00  0.00    +0.028 C 
ATOM     21  C   UNL     1       3.687   6.288  -2.990  0.00  0.00    +0.200 C 
ATOM     22  O   UNL     1       4.703   6.642  -2.430  0.00  0.00    -0.278 OA
ATOM     23  N   UNL     1       3.662   6.279  -4.327  0.00  0.00    -0.318 N 
ATOM     24  C   UNL     1       2.502   5.837  -5.096  0.00  0.00    +0.085 C 
ATOM     25  C   UNL     1       1.254   5.840  -4.211  0.00  0.00    -0.058 C 
ATOM     26  N   UNL     1       1.555   5.114  -2.967  0.00  0.00    +0.390 N 
ATOM     27  H   UNL     1       4.568   6.625  -4.847  0.00  0.00    +0.149 HD
ATOM     28  H   UNL     1       2.015   4.149  -3.226  0.00  0.00    -0.080 HD
BRANCH  26  29
ATOM     29  C   UNL     1       0.327   4.831  -2.213  0.00  0.00    -0.067 C 
ATOM     30  C   UNL     1       0.600   3.753  -1.144  0.00  0.00    -0.015 C 
ATOM     31  C   UNL     1      -0.694   2.900  -1.125  0.00  0.00    -0.002 C 
ATOM     32  C   UNL     1      -1.091   2.849  -2.621  0.00  0.00    -0.002 C 
ATOM     33  C   UNL     1      -0.748   4.256  -3.152  0.00  0.00    -0.015 C 
ENDBRANCH  26  29
ENDBRANCH  19  20
ENDBRANCH   2  19
TORSDOF 7
