REMARK  Name = ZINC03186418
REMARK  4 active torsions:
REMARK  status: ('A' for Active; 'I' for Inactive)
REMARK    1  A    between atoms: C_1  and  C_2
REMARK    2  A    between atoms: C_3  and  C_24
REMARK    3  A    between atoms: C_4  and  C_14
REMARK    4  A    between atoms: C_17  and  C_20
REMARK                            x       y       z     vdW  Elec       q    Type
REMARK                         _______ _______ _______ _____ _____    ______ ____
ROOT
ATOM      1  C   UNL     1       1.092  -3.876   2.771  0.00  0.00    +0.061 C 
ATOM      2  C   UNL     1       1.289  -2.400   2.543  0.00  0.00    +0.019 C 
ATOM      3  C   UNL     1       2.321  -1.768   3.124  0.00  0.00    +0.058 C 
ATOM      4  C   UNL     1       2.547  -0.298   2.925  0.00  0.00    +0.096 C 
ATOM      5  C   UNL     1       1.785   0.210   1.727  0.00  0.00    +0.024 C 
ATOM      6  C   UNL     1       0.768  -0.506   1.200  0.00  0.00    +0.015 C 
ATOM      7  N   UNL     1       0.414  -1.711   1.744  0.00  0.00    -0.320 N 
ATOM      8  C   UNL     1       0.002  -0.004   0.002  0.00  0.00    +0.051 C 
ATOM      9  C   UNL     1      -0.019   1.526   0.010  0.00  0.00    +0.014 C 
ATOM     10  C   UNL     1       1.428   2.031  -0.001  0.00  0.00    +0.080 C 
ATOM     11  C   UNL     1       2.159   1.449   1.178  0.00  0.00    +0.162 C 
ATOM     12  O   UNL     1       3.090   2.060   1.665  0.00  0.00    -0.292 OA
ATOM     13  H   UNL     1      -0.583  -2.125   1.536  0.00  0.00    +0.152 HD
ENDROOT
BRANCH   4  14
ATOM     14  C   UNL     1       2.088   0.444   4.154  0.00  0.00    -0.035 A 
ATOM     15  C   UNL     1       0.762   0.387   4.540  0.00  0.00    +0.005 A 
ATOM     16  C   UNL     1       0.342   1.064   5.670  0.00  0.00    +0.012 A 
ATOM     17  C   UNL     1       1.246   1.806   6.407  0.00  0.00    +0.055 A 
ATOM     18  C   UNL     1       2.571   1.867   6.018  0.00  0.00    +0.012 A 
ATOM     19  C   UNL     1       2.991   1.186   4.891  0.00  0.00    +0.005 A 
BRANCH  17  20
ATOM     20  C   UNL     1       0.786   2.549   7.636  0.00  0.00    +0.417 C 
ATOM     21  F   UNL     1       0.378   3.837   7.276  0.00  0.00    -0.166 F 
ATOM     22  F   UNL     1      -0.286   1.866   8.220  0.00  0.00    -0.166 F 
ATOM     23  F   UNL     1       1.841   2.632   8.551  0.00  0.00    -0.166 F 
ENDBRANCH  17  20
ENDBRANCH   4  14
BRANCH   3  24
ATOM     24  C   UNL     1       3.224  -2.511   3.950  0.00  0.00    +0.097 C 
ATOM     25  N   UNL     1       3.940  -3.100   4.606  0.00  0.00    -0.191 NA
ENDBRANCH   3  24
TORSDOF 3
