REMARK  Name = ZINC41096143
REMARK  7 active torsions:
REMARK  status: ('A' for Active; 'I' for Inactive)
REMARK    1  A    between atoms: C_1  and  C_2
REMARK    2  A    between atoms: C_2  and  C_3
REMARK    3  A    between atoms: C_3  and  O_4
REMARK    4  A    between atoms: O_4  and  C_5
REMARK    5  A    between atoms: C_7  and  S_12
REMARK    6  A    between atoms: S_12  and  N_15
REMARK    7  A    between atoms: C_17  and  C_22
REMARK                            x       y       z     vdW  Elec       q    Type
REMARK                         _______ _______ _______ _____ _____    ______ ____
ROOT
ATOM      1  S   UNL     1       3.328  -1.463   5.621  0.00  0.00    +0.101 S 
ATOM      2  O   UNL     1       4.332  -2.275   6.213  0.00  0.00    -0.146 OA
ATOM      3  O   UNL     1       3.611  -0.188   5.062  0.00  0.00    -0.146 OA
ENDROOT
BRANCH   1   4
ATOM      4  N   UNL     1       2.168  -1.225   6.778  0.00  0.00    -0.111 NA
ATOM      5  C   UNL     1       2.450  -0.530   7.861  0.00  0.00    +0.155 A 
ATOM      6  C   UNL     1       1.464  -0.330   8.855  0.00  0.00    -0.007 A 
ATOM      7  C   UNL     1       1.776   0.391   9.964  0.00  0.00    +0.008 A 
ATOM      8  C   UNL     1       3.069   0.923  10.107  0.00  0.00    +0.018 A 
ATOM      9  C   UNL     1       3.999   0.724   9.151  0.00  0.00    +0.084 A 
ATOM     10  N   UNL     1       3.707  -0.001   8.034  0.00  0.00    -0.345 N 
ATOM     11  C   UNL     1       0.083  -0.907   8.686  0.00  0.00    +0.047 C 
ATOM     12  H   UNL     1       4.387  -0.140   7.356  0.00  0.00    +0.167 HD
ENDBRANCH   1   4
BRANCH   1  15
ATOM     13  C   UNL     1       1.385  -2.554   2.273  0.00  0.00    +0.136 A 
ATOM     14  C   UNL     1       1.962  -1.798   3.283  0.00  0.00    +0.075 A 
ATOM     15  C   UNL     1       2.595  -2.424   4.339  0.00  0.00    +0.116 A 
ATOM     16  C   UNL     1       2.655  -3.805   4.390  0.00  0.00    +0.030 A 
ATOM     17  C   UNL     1       2.082  -4.562   3.385  0.00  0.00    +0.021 A 
ATOM     18  C   UNL     1       1.442  -3.940   2.329  0.00  0.00    +0.060 A 
ATOM     19 BR   UNL     1       0.650  -4.976   0.960  0.00  0.00    -0.047 Br
BRANCH  13  20
ATOM     20  O   UNL     1       0.761  -1.940   1.234  0.00  0.00    -0.491 OA
BRANCH  20  21
ATOM     21  C   UNL     1       0.742  -0.511   1.242  0.00  0.00    +0.229 C 
BRANCH  21  23
ATOM     22  C   UNL     1      -0.019   1.526   0.010  0.00  0.00    +0.007 C 
ATOM     23  C   UNL     1       0.002  -0.004   0.002  0.00  0.00    +0.038 C 
ENDBRANCH  21  23
ENDBRANCH  20  21
ENDBRANCH  13  20
ENDBRANCH   1  15
TORSDOF 5
