REMARK  Name = ZINC53854449
REMARK  7 active torsions:
REMARK  status: ('A' for Active; 'I' for Inactive)
REMARK    1  A    between atoms: C_1  and  C_2
REMARK    2  A    between atoms: C_5  and  C_7
REMARK    3  A    between atoms: N_9  and  C_10
REMARK    4  A    between atoms: C_13  and  C_16
REMARK    5  A    between atoms: N_18  and  C_19
REMARK    6  A    between atoms: C_19  and  C_21
REMARK    7  A    between atoms: C_19  and  C_22
REMARK                            x       y       z     vdW  Elec       q    Type
REMARK                         _______ _______ _______ _____ _____    ______ ____
ROOT
ATOM      1  C   UNL     1       4.613   2.653   7.200  0.00  0.00    +0.245 C 
ATOM      2  O   UNL     1       4.560   3.868   7.163  0.00  0.00    -0.270 OA
ATOM      3  N   UNL     1       5.311   2.039   8.176  0.00  0.00    -0.305 N 
ATOM      4  H   UNL     1       5.353   1.070   8.205  0.00  0.00    +0.150 HD
ENDROOT
BRANCH   1   8
ATOM      5  C   UNL     1       2.601   0.349   4.254  0.00  0.00    +0.033 A 
ATOM      6  C   UNL     1       2.538   1.738   4.211  0.00  0.00    +0.024 A 
ATOM      7  C   UNL     1       3.189   2.488   5.164  0.00  0.00    +0.015 A 
ATOM      8  C   UNL     1       3.913   1.853   6.176  0.00  0.00    +0.037 A 
ATOM      9  C   UNL     1       3.974   0.457   6.217  0.00  0.00    +0.015 A 
ATOM     10  C   UNL     1       3.317  -0.287   5.263  0.00  0.00    +0.024 A 
BRANCH   5  13
ATOM     11  C   UNL     1       1.866   0.039   2.017  0.00  0.00    +0.221 C 
ATOM     12  O   UNL     1       2.299   1.135   1.733  0.00  0.00    -0.275 OA
ATOM     13  N   UNL     1       1.940  -0.407   3.287  0.00  0.00    -0.285 N 
ATOM     14  H   UNL     1       1.535  -1.255   3.527  0.00  0.00    +0.155 HD
BRANCH  11  18
ATOM     15  C   UNL     1       1.770   1.135  -0.701  0.00  0.00    +0.008 C 
ATOM     16  C   UNL     1       1.189  -0.262  -0.471  0.00  0.00    -0.002 C 
ATOM     17  C   UNL     1      -0.092  -0.366   0.359  0.00  0.00    +0.017 C 
ATOM     18  C   UNL     1       1.244  -0.825   0.950  0.00  0.00    +0.078 C 
ENDBRANCH  11  18
ENDBRANCH   5  13
ENDBRANCH   1   8
BRANCH   3  19
ATOM     19  C   UNL     1       6.005   2.834   9.192  0.00  0.00    +0.100 C 
ATOM     20  C   UNL     1       5.030   3.190  10.315  0.00  0.00    +0.033 C 
BRANCH  19  21
ATOM     21  C   UNL     1       7.152   2.036   9.756  0.00  0.00    -0.025 A 
ATOM     22  C   UNL     1       6.997   0.681   9.998  0.00  0.00    +0.007 A 
ATOM     23  C   UNL     1       8.042  -0.058  10.515  0.00  0.00    +0.028 A 
ATOM     24  C   UNL     1       9.252   0.559  10.793  0.00  0.00    +0.067 A 
ATOM     25  C   UNL     1       9.409   1.925  10.550  0.00  0.00    +0.067 A 
ATOM     26  C   UNL     1       8.356   2.658  10.025  0.00  0.00    +0.033 A 
ATOM     27  N   UNL     1      10.711   2.253  10.921  0.00  0.00    -0.306 N 
ATOM     28  H   UNL     1      11.111   3.135  10.866  0.00  0.00    +0.170 HD
ATOM     29  C   UNL     1      11.318   1.138  11.370  0.00  0.00    +0.325 A 
ATOM     30  O   UNL     1      12.464   1.079  11.774  0.00  0.00    -0.247 OA
ATOM     31  N   UNL     1      10.464   0.100  11.306  0.00  0.00    -0.306 N 
ATOM     32  H   UNL     1      10.659  -0.813  11.570  0.00  0.00    +0.170 HD
ENDBRANCH  19  21
ENDBRANCH   3  19
TORSDOF 5
