REMARK  Name = ZINC12123573
REMARK  5 active torsions:
REMARK  status: ('A' for Active; 'I' for Inactive)
REMARK    1  A    between atoms: C_1  and  C_2
REMARK    2  A    between atoms: C_11  and  N_18
REMARK    3  A    between atoms: C_13  and  C_15
REMARK    4  A    between atoms: C_19  and  C_21
REMARK    5  A    between atoms: C_21  and  C_26
REMARK                            x       y       z     vdW  Elec       q    Type
REMARK                         _______ _______ _______ _____ _____    ______ ____
ROOT
ATOM      1  C   UNL     1      -2.518  -2.739  -0.051  0.00  0.00    +0.066 C 
ATOM      2  C   UNL     1      -1.192  -2.023  -0.073  0.00  0.00    +0.047 A 
ATOM      3  C   UNL     1      -0.032  -2.740  -0.110  0.00  0.00    +0.093 A 
ATOM      4  C   UNL     1       1.193  -2.048  -0.130  0.00  0.00    +0.253 A 
ATOM      5  O   UNL     1       2.251  -2.655  -0.163  0.00  0.00    -0.268 OA
ATOM      6  N   UNL     1       1.175  -0.698  -0.116  0.00  0.00    -0.291 N 
ATOM      7  H   UNL     1       2.007  -0.200  -0.133  0.00  0.00    +0.172 HD
ATOM      8  C   UNL     1      -0.013  -0.039  -0.074  0.00  0.00    +0.234 A 
ATOM      9  N   UNL     1      -1.154  -0.692  -0.056  0.00  0.00    -0.217 NA
ATOM     10  N   UNL     1      -0.022   1.344  -0.056  0.00  0.00    -0.185 N 
ATOM     11  C   UNL     1      -1.129   2.141  -0.025  0.00  0.00    +0.132 A 
ATOM     12  C   UNL     1      -0.701   3.432  -0.014  0.00  0.00    +0.069 A 
ATOM     13  C   UNL     1       0.698   3.420  -0.047  0.00  0.00    +0.068 A 
ATOM     14  N   UNL     1       1.104   2.178  -0.072  0.00  0.00    -0.167 NA
ENDROOT
BRANCH  11  15
ATOM     15  N   UNL     1      -2.454   1.712  -0.006  0.00  0.00    -0.269 N 
ATOM     16  C   UNL     1      -3.455   2.615   0.024  0.00  0.00    +0.229 C 
ATOM     17  O   UNL     1      -3.202   3.796   0.134  0.00  0.00    -0.274 OA
ATOM     18  H   UNL     1      -2.657   0.763  -0.015  0.00  0.00    +0.156 HD
BRANCH  16  19
ATOM     19  C   UNL     1      -4.886   2.156  -0.080  0.00  0.00    +0.072 C 
ATOM     20  C   UNL     1      -5.090   1.353  -1.377  0.00  0.00    +0.021 C 
ATOM     21  C   UNL     1      -6.148   2.114  -2.204  0.00  0.00    +0.001 C 
ATOM     22  C   UNL     1      -6.063   3.570  -1.683  0.00  0.00    +0.001 C 
ATOM     23  C   UNL     1      -5.827   3.376  -0.164  0.00  0.00    +0.021 C 
BRANCH  19  24
ATOM     24  C   UNL     1      -5.245   1.310   1.114  0.00  0.00    -0.032 A 
ATOM     25  C   UNL     1      -4.339   1.154   2.147  0.00  0.00    +0.006 A 
ATOM     26  C   UNL     1      -4.670   0.382   3.245  0.00  0.00    +0.020 A 
ATOM     27  C   UNL     1      -5.902  -0.244   3.305  0.00  0.00    +0.041 A 
ATOM     28  C   UNL     1      -6.805  -0.092   2.268  0.00  0.00    +0.020 A 
ATOM     29  C   UNL     1      -6.476   0.684   1.174  0.00  0.00    +0.006 A 
ATOM     30 CL   UNL     1      -6.315  -1.219   4.681  0.00  0.00    -0.084 Cl
ENDBRANCH  19  24
ENDBRANCH  16  19
ENDBRANCH  11  15
BRANCH  13  31
ATOM     31  C   UNL     1       1.588   4.637  -0.052  0.00  0.00    +0.040 C 
ATOM     32  C   UNL     1       0.945   5.981  -0.400  0.00  0.00    +0.010 C 
ATOM     33  C   UNL     1       1.876   5.295  -1.403  0.00  0.00    +0.010 C 
ENDBRANCH  13  31
TORSDOF 4
