REMARK  Name = ZINC02774940
REMARK  4 active torsions:
REMARK  status: ('A' for Active; 'I' for Inactive)
REMARK    1  A    between atoms: C_1  and  O_2
REMARK    2  A    between atoms: O_2  and  C_3
REMARK    3  A    between atoms: C_8  and  C_9
REMARK    4  A    between atoms: C_12  and  C_20
REMARK                            x       y       z     vdW  Elec       q    Type
REMARK                         _______ _______ _______ _____ _____    ______ ____
ROOT
ATOM      1  C   UNL     1       0.018  -2.829  -0.013  0.00  0.00    +0.108 C 
ATOM      2  C   UNL     1       0.569  -2.893  -1.442  0.00  0.00    +0.063 C 
ATOM      3  C   UNL     1      -0.487  -3.485  -2.382  0.00  0.00    +0.215 C 
ATOM      4  N   UNL     1      -1.002  -4.725  -1.795  0.00  0.00    -0.239 N 
ATOM      5  C   UNL     1      -0.885  -5.045  -0.480  0.00  0.00    +0.118 A 
ATOM      6  C   UNL     1      -1.464  -6.250  -0.291  0.00  0.00    +0.064 A 
ATOM      7  C   UNL     1      -1.954  -6.684  -1.530  0.00  0.00    +0.136 A 
ATOM      8  N   UNL     1      -1.676  -5.769  -2.428  0.00  0.00    -0.177 NA
ATOM      9  N   UNL     1      -0.258  -4.204   0.449  0.00  0.00    -0.322 N 
ATOM     10  H   UNL     1      -0.018  -4.504   1.339  0.00  0.00    +0.148 HD
ENDROOT
BRANCH   1  16
ATOM     11  C   UNL     1      -1.200  -0.637   0.010  0.00  0.00    +0.125 A 
ATOM     12  C   UNL     1      -2.375   0.101   0.019  0.00  0.00    +0.046 A 
ATOM     13  C   UNL     1      -3.596  -0.545   0.027  0.00  0.00    +0.004 A 
ATOM     14  C   UNL     1      -3.648  -1.927   0.026  0.00  0.00    +0.001 A 
ATOM     15  C   UNL     1      -2.479  -2.665   0.017  0.00  0.00    +0.009 A 
ATOM     16  C   UNL     1      -1.255  -2.023   0.003  0.00  0.00    +0.014 A 
BRANCH  11  18
ATOM     17  C   UNL     1      -0.017   1.425   0.010  0.00  0.00    +0.277 C 
ATOM     18  O   UNL     1       0.002  -0.004   0.002  0.00  0.00    -0.495 OA
ENDBRANCH  11  18
ENDBRANCH   1  16
BRANCH   3  19
ATOM     19  C   UNL     1       0.147  -3.783  -3.742  0.00  0.00    +0.412 C 
ATOM     20  F   UNL     1       1.191  -4.700  -3.579  0.00  0.00    -0.168 F 
ATOM     21  F   UNL     1      -0.819  -4.324  -4.598  0.00  0.00    -0.168 F 
ATOM     22  F   UNL     1       0.648  -2.599  -4.293  0.00  0.00    -0.168 F 
ENDBRANCH   3  19
TORSDOF 3
