REMARK  Name = ZINC05501418
REMARK  10 active torsions:
REMARK  status: ('A' for Active; 'I' for Inactive)
REMARK    1  A    between atoms: C_1  and  C_2
REMARK    2  A    between atoms: C_2  and  C_3
REMARK    3  A    between atoms: C_3  and  C_4
REMARK    4  A    between atoms: C_3  and  C_5
REMARK    5  A    between atoms: C_3  and  C_6
REMARK    6  A    between atoms: N_19  and  N_20
REMARK    7  A    between atoms: C_21  and  C_22
REMARK    8  A    between atoms: C_25  and  C_28
REMARK    9  A    between atoms: C_28  and  C_29
REMARK   10  A    between atoms: C_28  and  C_30
REMARK                            x       y       z     vdW  Elec       q    Type
REMARK                         _______ _______ _______ _____ _____    ______ ____
ROOT
ATOM      1  C   UNL     1       0.402   1.455   0.496  0.00  0.00    -0.001 C 
ATOM      2  C   UNL     1       1.822   2.003   0.670  0.00  0.00    +0.009 C 
ATOM      3  C   UNL     1       1.810   3.506   0.358  0.00  0.00    +0.043 C 
ATOM      4  C   UNL     1       0.663   4.134   1.088  0.00  0.00    -0.004 A 
ATOM      5  C   UNL     1      -0.385   3.503   1.664  0.00  0.00    -0.024 A 
ATOM      6  C   UNL     1      -1.374   4.344   2.318  0.00  0.00    +0.052 A 
ATOM      7  C   UNL     1      -2.557   3.919   2.990  0.00  0.00    +0.150 A 
ATOM      8  N   UNL     1      -3.308   4.888   3.511  0.00  0.00    -0.219 NA
ATOM      9  C   UNL     1      -3.014   6.170   3.433  0.00  0.00    +0.224 A 
ATOM     10  N   UNL     1      -1.929   6.633   2.822  0.00  0.00    -0.228 NA
ATOM     11  C   UNL     1      -1.127   5.740   2.277  0.00  0.00    +0.114 A 
ATOM     12  S   UNL     1       0.388   5.863   1.384  0.00  0.00    -0.073 S 
ATOM     13  N   UNL     1      -2.902   2.584   3.096  0.00  0.00    -0.220 N 
ATOM     14  C   UNL     1      -0.497   1.982   1.614  0.00  0.00    +0.040 C 
ATOM     15  H   UNL     1      -2.239   1.897   2.927  0.00  0.00    +0.176 HD
ENDROOT
BRANCH   1  16
ATOM     16  C   UNL     1       0.437  -0.074   0.548  0.00  0.00    -0.032 C 
ATOM     17  C   UNL     1       0.997  -0.525   1.899  0.00  0.00    +0.011 C 
ATOM     18  C   UNL     1      -0.980  -0.622   0.374  0.00  0.00    +0.011 C 
BRANCH  16  20
ATOM     19  C   UNL     1       1.365  -2.131  -0.523  0.00  0.00    +0.004 C 
ATOM     20  C   UNL     1       1.330  -0.602  -0.576  0.00  0.00    +0.003 C 
ENDBRANCH  16  20
ENDBRANCH   1  16
BRANCH  13  21
ATOM     21  N   UNL     1      -4.210   2.225   3.446  0.00  0.00    -0.189 NA
ATOM     22  C   UNL     1      -4.535   0.972   3.545  0.00  0.00    +0.138 C 
BRANCH  22  23
ATOM     23  C   UNL     1      -5.912   0.594   3.914  0.00  0.00    -0.005 A 
ATOM     24  C   UNL     1      -6.868   1.582   4.163  0.00  0.00    +0.010 A 
ATOM     25  C   UNL     1      -8.155   1.221   4.501  0.00  0.00    +0.004 A 
ATOM     26  C   UNL     1      -8.498  -0.116   4.606  0.00  0.00    -0.045 A 
ATOM     27  C   UNL     1      -7.554  -1.100   4.367  0.00  0.00    +0.004 A 
ATOM     28  C   UNL     1      -6.265  -0.753   4.021  0.00  0.00    +0.010 A 
BRANCH  26  29
ATOM     29  C   UNL     1      -9.905  -0.502   4.982  0.00  0.00    +0.013 C 
ATOM     30  C   UNL     1     -10.242   0.077   6.357  0.00  0.00    +0.012 C 
ATOM     31  C   UNL     1     -10.881   0.051   3.942  0.00  0.00    +0.012 C 
ENDBRANCH  26  29
ENDBRANCH  22  23
ENDBRANCH  13  21
TORSDOF 5
