REMARK  Name = ZINC44599150
REMARK  14 active torsions:
REMARK  status: ('A' for Active; 'I' for Inactive)
REMARK    1  A    between atoms: C_1  and  C_2
REMARK    2  A    between atoms: C_2  and  O_3
REMARK    3  A    between atoms: O_3  and  C_4
REMARK    4  A    between atoms: C_7  and  S_26
REMARK    5  A    between atoms: C_9  and  C_10
REMARK    6  A    between atoms: C_18  and  C_22
REMARK    7  A    between atoms: N_20  and  C_21
REMARK    8  A    between atoms: C_22  and  C_23
REMARK    9  A    between atoms: C_22  and  C_24
REMARK   10  A    between atoms: C_22  and  C_25
REMARK   11  A    between atoms: S_26  and  N_29
REMARK   12  A    between atoms: N_29  and  C_30
REMARK   13  A    between atoms: C_35  and  O_36
REMARK   14  A    between atoms: O_36  and  C_37
REMARK                            x       y       z     vdW  Elec       q    Type
REMARK                         _______ _______ _______ _____ _____    ______ ____
ROOT
ATOM      1  C   UNL     1      -1.740  -1.924  -0.282  0.00  0.00    +0.131 A 
ATOM      2  C   UNL     1      -0.600  -2.713  -0.279  0.00  0.00    +0.048 A 
ATOM      3  C   UNL     1      -0.710  -4.088  -0.205  0.00  0.00    +0.032 A 
ATOM      4  C   UNL     1      -1.956  -4.688  -0.133  0.00  0.00    +0.109 A 
ATOM      5  C   UNL     1      -3.099  -3.918  -0.135  0.00  0.00    +0.044 A 
ATOM      6  C   UNL     1      -3.002  -2.527  -0.203  0.00  0.00    +0.061 A 
ENDROOT
BRANCH   6   7
ATOM      7  C   UNL     1      -4.223  -1.696  -0.199  0.00  0.00    +0.145 A 
ATOM      8  N   UNL     1      -5.443  -2.311  -0.116  0.00  0.00    -0.305 N 
ATOM      9  H   UNL     1      -5.494  -3.278  -0.061  0.00  0.00    +0.170 HD
ATOM     10  C   UNL     1      -6.577  -1.576  -0.108  0.00  0.00    +0.278 A 
ATOM     11  O   UNL     1      -7.669  -2.113  -0.034  0.00  0.00    -0.265 OA
ATOM     12  C   UNL     1      -6.467  -0.168  -0.189  0.00  0.00    +0.151 A 
ATOM     13  C   UNL     1      -5.192   0.406  -0.273  0.00  0.00    +0.120 A 
ATOM     14  N   UNL     1      -4.105  -0.393  -0.269  0.00  0.00    -0.225 NA
ATOM     15  C   UNL     1      -5.373   1.801  -0.342  0.00  0.00    +0.094 A 
ATOM     16  N   UNL     1      -6.652   2.060  -0.303  0.00  0.00    -0.173 NA
ATOM     17  N   UNL     1      -7.369   0.860  -0.208  0.00  0.00    -0.260 N 
ATOM     18  C   UNL     1      -8.826   0.729  -0.142  0.00  0.00    +0.173 C 
BRANCH  15  19
ATOM     19  C   UNL     1      -4.272   2.825  -0.443  0.00  0.00    +0.008 C 
ATOM     20  C   UNL     1      -3.459   2.576  -1.714  0.00  0.00    +0.017 C 
ATOM     21  C   UNL     1      -4.883   4.227  -0.494  0.00  0.00    +0.017 C 
ATOM     22  C   UNL     1      -3.357   2.712   0.778  0.00  0.00    +0.017 C 
ENDBRANCH  15  19
ENDBRANCH   6   7
BRANCH   4  23
ATOM     23  S   UNL     1      -2.080  -6.443  -0.039  0.00  0.00    +0.072 S 
ATOM     24  O   UNL     1      -3.368  -6.786  -0.531  0.00  0.00    -0.150 OA
ATOM     25  O   UNL     1      -0.885  -6.965  -0.604  0.00  0.00    -0.150 OA
BRANCH  23  26
ATOM     26  N   UNL     1      -2.062  -6.850   1.566  0.00  0.00    -0.213 N 
ATOM     27  H   UNL     1      -1.359  -7.422   1.913  0.00  0.00    +0.174 HD
BRANCH  26  28
ATOM     28  C   UNL     1      -3.060  -6.370   2.421  0.00  0.00    +0.090 A 
ATOM     29  C   UNL     1      -4.360  -6.223   1.959  0.00  0.00    +0.028 A 
ATOM     30  C   UNL     1      -5.344  -5.748   2.806  0.00  0.00    +0.002 A 
ATOM     31  C   UNL     1      -5.037  -5.420   4.113  0.00  0.00    +0.004 A 
ATOM     32  C   UNL     1      -3.744  -5.564   4.580  0.00  0.00    +0.047 A 
ATOM     33  C   UNL     1      -2.752  -6.043   3.740  0.00  0.00    +0.142 A 
BRANCH  33  34
ATOM     34  O   UNL     1      -1.481  -6.191   4.200  0.00  0.00    -0.493 OA
ATOM     35  C   UNL     1      -1.239  -5.836   5.563  0.00  0.00    +0.277 C 
ENDBRANCH  33  34
ENDBRANCH  26  28
ENDBRANCH  23  26
ENDBRANCH   4  23
BRANCH   1  36
ATOM     36  O   UNL     1      -1.634  -0.573  -0.355  0.00  0.00    -0.492 OA
BRANCH  36  38
ATOM     37  C   UNL     1      -0.396   1.497  -0.507  0.00  0.00    +0.048 C 
ATOM     38  C   UNL     1      -0.315  -0.029  -0.433  0.00  0.00    +0.226 C 
ENDBRANCH  36  38
ENDBRANCH   1  36
TORSDOF 8
