REMARK  Name = ZINC22418150
REMARK  9 active torsions:
REMARK  status: ('A' for Active; 'I' for Inactive)
REMARK    1  A    between atoms: C_1  and  N_2
REMARK    2  A    between atoms: N_2  and  C_3
REMARK    3  A    between atoms: N_2  and  C_4
REMARK    4  A    between atoms: C_7  and  C_10
REMARK    5  A    between atoms: C_10  and  C_12
REMARK    6  A    between atoms: C_10  and  N_26
REMARK    7  A    between atoms: C_12  and  N_13
REMARK    8  A    between atoms: C_14  and  C_16
REMARK    9  A    between atoms: C_21  and  N_22
REMARK                            x       y       z     vdW  Elec       q    Type
REMARK                         _______ _______ _______ _____ _____    ______ ____
ROOT
ATOM      1  C   UNL     1       0.091   0.205  -0.229  0.00  0.00    -0.020 C 
ENDROOT
BRANCH   1   2
ATOM      2  N   UNL     1      -0.644   0.718  -1.393  0.00  0.00    +0.388 N 
ATOM      3  C   UNL     1      -0.158   0.101  -2.638  0.00  0.00    -0.073 C 
ATOM      4  C   UNL     1      -1.174   0.378  -3.746  0.00  0.00    +0.017 C 
ATOM      5  C   UNL     1      -1.505   1.848  -3.784  0.00  0.00    -0.048 A 
ATOM      6  C   UNL     1      -2.118   2.359  -4.919  0.00  0.00    +0.004 A 
ATOM      7  C   UNL     1      -2.440   3.699  -4.994  0.00  0.00    +0.000 A 
ATOM      8  C   UNL     1      -2.152   4.536  -3.932  0.00  0.00    +0.000 A 
ATOM      9  C   UNL     1      -1.541   4.029  -2.803  0.00  0.00    +0.002 A 
ATOM     10  C   UNL     1      -1.214   2.683  -2.727  0.00  0.00    -0.061 A 
ATOM     11  C   UNL     1      -0.541   2.178  -1.478  0.00  0.00    -0.042 C 
ATOM     12  H   UNL     1      -1.703   0.454  -1.261  0.00  0.00    -0.080 HD
ENDBRANCH   1   2
BRANCH   1  16
ATOM     13  C   UNL     1       4.173   1.451  -0.459  0.00  0.00    +0.029 A 
ATOM     14  C   UNL     1       3.836   0.123  -0.691  0.00  0.00    +0.023 A 
ATOM     15  C   UNL     1       2.516  -0.276  -0.616  0.00  0.00    +0.004 A 
ATOM     16  C   UNL     1       1.530   0.644  -0.310  0.00  0.00    -0.059 A 
ATOM     17  C   UNL     1       1.862   1.968  -0.085  0.00  0.00    +0.004 A 
ATOM     18  C   UNL     1       3.180   2.372  -0.152  0.00  0.00    +0.023 A 
BRANCH  13  20
ATOM     19  C   UNL     1       6.536   0.916  -0.982  0.00  0.00    +0.129 C 
ATOM     20  N   UNL     1       5.507   1.858  -0.535  0.00  0.00    -0.336 N 
ATOM     21  C   UNL     1       5.877   3.227  -0.168  0.00  0.00    +0.129 C 
ENDBRANCH  13  20
ENDBRANCH   1  16
BRANCH   1  22
ATOM     22  C   UNL     1      -0.538   0.753   1.053  0.00  0.00    +0.094 C 
BRANCH  22  23
ATOM     23  N   UNL     1      -1.966   0.427   1.074  0.00  0.00    -0.313 N 
ATOM     24  C   UNL     1      -2.730   0.813   2.116  0.00  0.00    +0.246 C 
ATOM     25  O   UNL     1      -2.233   1.431   3.038  0.00  0.00    -0.270 OA
ATOM     26  H   UNL     1      -2.415  -0.131   0.240  0.00  0.00    +0.149 HD
BRANCH  24  27
ATOM     27  C   UNL     1      -4.171   0.485   2.137  0.00  0.00    +0.068 A 
ATOM     28  C   UNL     1      -4.771  -0.109   1.026  0.00  0.00    +0.035 A 
ATOM     29  C   UNL     1      -6.117  -0.414   1.052  0.00  0.00    +0.042 A 
ATOM     30  C   UNL     1      -6.872  -0.131   2.179  0.00  0.00    +0.022 A 
ATOM     31  C   UNL     1      -6.282   0.458   3.283  0.00  0.00    +0.035 A 
ATOM     32  C   UNL     1      -4.936   0.762   3.271  0.00  0.00    +0.138 A 
ATOM     33 CL   UNL     1      -6.866  -1.153  -0.329  0.00  0.00    -0.084 Cl
BRANCH  32  34
ATOM     34  N   UNL     1      -4.306   1.387   4.456  0.00  0.00    +0.057 N 
ATOM     35  O   UNL     1      -3.307   0.892   4.946  0.00  0.00    -0.126 OA
ATOM     36  O   UNL     1      -4.787   2.395   4.940  0.00  0.00    -0.126 OA
ENDBRANCH  32  34
ENDBRANCH  24  27
ENDBRANCH  22  23
ENDBRANCH   1  22
TORSDOF 7
