REMARK  Name = ZINC11155173
REMARK  4 active torsions:
REMARK  status: ('A' for Active; 'I' for Inactive)
REMARK    1  A    between atoms: C_1  and  C_2
REMARK    2  A    between atoms: C_2  and  N_3
REMARK    3  A    between atoms: N_14  and  N_15
REMARK    4  A    between atoms: C_16  and  C_18
REMARK                            x       y       z     vdW  Elec       q    Type
REMARK                         _______ _______ _______ _____ _____    ______ ____
ROOT
ATOM      1  N   UNL     1      -2.362   0.906   0.013  0.00  0.00    -0.280 N 
ATOM      2  C   UNL     1      -3.566   1.523   0.027  0.00  0.00    +0.263 A 
ATOM      3  O   UNL     1      -4.602   0.884   0.029  0.00  0.00    -0.267 OA
ATOM      4  C   UNL     1      -3.577   2.992   0.035  0.00  0.00    +0.065 A 
ATOM      5  C   UNL     1      -4.765   3.721   0.044  0.00  0.00    +0.015 A 
ATOM      6  C   UNL     1      -4.718   5.087   0.051  0.00  0.00    +0.001 A 
ATOM      7  C   UNL     1      -3.499   5.755   0.049  0.00  0.00    +0.002 A 
ATOM      8  C   UNL     1      -2.320   5.066   0.040  0.00  0.00    +0.028 A 
ATOM      9  C   UNL     1      -2.336   3.668   0.033  0.00  0.00    +0.080 A 
ATOM     10  N   UNL     1      -1.191   2.945   0.024  0.00  0.00    -0.214 NA
ATOM     11  C   UNL     1      -1.209   1.636   0.017  0.00  0.00    +0.216 A 
ATOM     12  N   UNL     1      -0.011   0.966   0.007  0.00  0.00    -0.233 N 
ATOM     13  H   UNL     1       0.002  -0.004   0.002  0.00  0.00    +0.173 HD
ENDROOT
BRANCH  12  14
ATOM     14  N   UNL     1       1.193   1.683  -0.000  0.00  0.00    -0.229 N 
ATOM     15  C   UNL     1       2.369   1.025  -0.015  0.00  0.00    +0.276 C 
ATOM     16  O   UNL     1       2.385  -0.192  -0.022  0.00  0.00    -0.267 OA
ATOM     17  H   UNL     1       1.179   2.653   0.005  0.00  0.00    +0.173 HD
BRANCH  15  18
ATOM     18  C   UNL     1       3.632   1.777  -0.023  0.00  0.00    +0.104 A 
ATOM     19  C   UNL     1       4.875   1.229  -0.032  0.00  0.00    +0.041 A 
ATOM     20  C   UNL     1       5.814   2.289  -0.040  0.00  0.00    +0.000 A 
ATOM     21  C   UNL     1       7.214   2.335  -0.053  0.00  0.00    +0.010 A 
ATOM     22  C   UNL     1       7.854   3.540  -0.053  0.00  0.00    +0.001 A 
ATOM     23  C   UNL     1       7.130   4.726  -0.040  0.00  0.00    +0.002 A 
ATOM     24  C   UNL     1       5.753   4.707  -0.027  0.00  0.00    +0.026 A 
ATOM     25  C   UNL     1       5.077   3.490  -0.027  0.00  0.00    +0.047 A 
ATOM     26  N   UNL     1       3.744   3.154  -0.017  0.00  0.00    -0.351 N 
ATOM     27  H   UNL     1       3.004   3.781  -0.006  0.00  0.00    +0.166 HD
ENDBRANCH  15  18
ENDBRANCH  12  14
BRANCH   1  29
ATOM     28  C   UNL     1      -2.268  -1.081   1.436  0.00  0.00    +0.027 C 
ATOM     29  C   UNL     1      -2.295  -0.557  -0.001  0.00  0.00    +0.125 C 
ENDBRANCH   1  29
TORSDOF 3
