REMARK  Name = ZINC22855065
REMARK  7 active torsions:
REMARK  status: ('A' for Active; 'I' for Inactive)
REMARK    1  A    between atoms: C_1  and  C_2
REMARK    2  A    between atoms: C_2  and  C_3
REMARK    3  A    between atoms: C_8  and  O_30
REMARK    4  A    between atoms: C_9  and  C_11
REMARK    5  A    between atoms: C_11  and  C_13
REMARK    6  A    between atoms: C_11  and  N_20
REMARK    7  A    between atoms: C_17  and  C_19
REMARK                            x       y       z     vdW  Elec       q    Type
REMARK                         _______ _______ _______ _____ _____    ______ ____
ROOT
ATOM      1  C   UNL     1      -0.070   5.347   0.030  0.00  0.00    +0.130 C 
ENDROOT
BRANCH   1   2
ATOM      2  N   UNL     1      -1.129   5.818   0.932  0.00  0.00    -0.286 NA
ATOM      3  C   UNL     1      -1.103   7.284   1.057  0.00  0.00    +0.090 C 
ATOM      4  C   UNL     1      -2.417   7.742   1.691  0.00  0.00    +0.051 C 
ATOM      5  C   UNL     1      -2.691   6.944   2.940  0.00  0.00    -0.042 A 
ATOM      6  C   UNL     1      -3.625   7.429   3.843  0.00  0.00    +0.004 A 
ATOM      7  C   UNL     1      -3.909   6.727   4.997  0.00  0.00    +0.000 A 
ATOM      8  C   UNL     1      -3.258   5.535   5.255  0.00  0.00    +0.000 A 
ATOM      9  C   UNL     1      -2.327   5.052   4.358  0.00  0.00    +0.005 A 
ATOM     10  C   UNL     1      -2.039   5.757   3.198  0.00  0.00    -0.030 A 
ATOM     11  C   UNL     1      -1.010   5.194   2.254  0.00  0.00    +0.120 C 
ENDBRANCH   1   2
BRANCH   1  18
ATOM     12  C   UNL     1      -0.372   7.532  -5.510  0.00  0.00    +0.152 A 
ATOM     13  N   UNL     1      -1.493   7.056  -4.972  0.00  0.00    -0.205 NA
ATOM     14  C   UNL     1      -1.243   6.623  -3.767  0.00  0.00    +0.199 A 
ATOM     15  N   UNL     1       0.075   6.808  -3.479  0.00  0.00    -0.173 N 
ATOM     16  N   UNL     1       0.604   7.407  -4.652  0.00  0.00    -0.147 NA
ATOM     17  C   UNL     1       0.510   6.408  -2.239  0.00  0.00    +0.228 A 
ATOM     18  C   UNL     1      -0.337   5.853  -1.365  0.00  0.00    +0.076 A 
ATOM     19  S   UNL     1      -1.870   5.875  -2.282  0.00  0.00    -0.047 S 
BRANCH  12  21
ATOM     20  C   UNL     1      -0.508   9.629  -6.826  0.00  0.00    +0.012 C 
ATOM     21  C   UNL     1      -0.249   8.123  -6.891  0.00  0.00    +0.075 C 
ENDBRANCH  12  21
BRANCH  17  22
ATOM     22  O   UNL     1       1.816   6.576  -1.897  0.00  0.00    -0.492 OA
ATOM     23  H   UNL     1       2.171   6.258  -0.905  0.00  0.00    +0.294 HD
ENDBRANCH  17  22
ENDBRANCH   1  18
BRANCH   1  24
ATOM     24  C   UNL     1      -0.050   3.840   0.022  0.00  0.00    -0.025 A 
ATOM     25  C   UNL     1      -1.238   3.133   0.030  0.00  0.00    +0.005 A 
ATOM     26  C   UNL     1      -1.219   1.751   0.017  0.00  0.00    +0.001 A 
ATOM     27  C   UNL     1      -0.013   1.076   0.008  0.00  0.00    +0.003 A 
ATOM     28  C   UNL     1       1.175   1.783   0.000  0.00  0.00    -0.050 A 
ATOM     29  C   UNL     1       1.156   3.166   0.008  0.00  0.00    +0.009 A 
ATOM     30  C   UNL     1       2.490   1.047  -0.016  0.00  0.00    +0.044 C 
ENDBRANCH   1  24
TORSDOF 5
