REMARK  Name = ZINC08920052
REMARK  7 active torsions:
REMARK  status: ('A' for Active; 'I' for Inactive)
REMARK    1  A    between atoms: C_1  and  C_2
REMARK    2  A    between atoms: C_5  and  C_9
REMARK    3  A    between atoms: C_6  and  C_8
REMARK    4  A    between atoms: N_16  and  C_19
REMARK    5  A    between atoms: C_19  and  C_20
REMARK    6  A    between atoms: N_22  and  C_23
REMARK    7  A    between atoms: C_24  and  C_32
REMARK                            x       y       z     vdW  Elec       q    Type
REMARK                         _______ _______ _______ _____ _____    ______ ____
ROOT
ATOM      1  C   UNL     1       2.424   1.017  -0.015  0.00  0.00    +0.222 C 
ENDROOT
BRANCH   1   9
ATOM      2  C   UNL     1      -0.285   5.261   0.033  0.00  0.00    +0.004 A 
ATOM      3  C   UNL     1      -1.562   5.715   0.047  0.00  0.00    +0.056 A 
ATOM      4  S   UNL     1      -2.531   4.219   0.048  0.00  0.00    -0.076 S 
ATOM      5  C   UNL     1      -1.213   3.031   0.030  0.00  0.00    +0.116 A 
ATOM      6  C   UNL     1      -0.052   3.822   0.023  0.00  0.00    +0.080 A 
ATOM      7  C   UNL     1       1.186   3.105   0.007  0.00  0.00    +0.263 A 
ATOM      8  O   UNL     1       2.248   3.704   0.001  0.00  0.00    -0.267 OA
ATOM      9  N   UNL     1       1.161   1.759   0.000  0.00  0.00    -0.290 N 
ATOM     10  C   UNL     1      -0.013   1.076   0.008  0.00  0.00    +0.203 A 
ATOM     11  N   UNL     1      -1.159   1.702   0.017  0.00  0.00    -0.230 NA
BRANCH   2  16
ATOM     12  C   UNL     1       4.138   8.948   0.012  0.00  0.00    +0.044 C 
ATOM     13  C   UNL     1       2.981   7.983   0.018  0.00  0.00    -0.050 A 
ATOM     14  C   UNL     1       2.136   7.926   1.112  0.00  0.00    +0.004 A 
ATOM     15  C   UNL     1       1.075   7.045   1.123  0.00  0.00    +0.009 A 
ATOM     16  C   UNL     1       0.854   6.210   0.027  0.00  0.00    -0.014 A 
ATOM     17  C   UNL     1       1.711   6.269  -1.071  0.00  0.00    -0.042 A 
ATOM     18  C   UNL     1       2.767   7.158  -1.072  0.00  0.00    +0.007 A 
ATOM     19  C   UNL     1       1.482   5.367  -2.256  0.00  0.00    +0.044 C 
ENDBRANCH   2  16
ENDBRANCH   1   9
BRANCH   1  20
ATOM     20  C   UNL     1       2.844   0.770  -1.441  0.00  0.00    +0.237 C 
ATOM     21  O   UNL     1       2.155   1.173  -2.355  0.00  0.00    -0.273 OA
ATOM     22  N   UNL     1       3.984   0.100  -1.702  0.00  0.00    -0.278 N 
ATOM     23  H   UNL     1       4.608  -0.267  -0.873  0.00  0.00    +0.155 HD
BRANCH  22  24
ATOM     24  C   UNL     1       4.370  -0.128  -3.014  0.00  0.00    +0.084 A 
ATOM     25  C   UNL     1       5.500  -0.785  -3.478  0.00  0.00    +0.068 A 
ATOM     26  C   UNL     1       5.671  -0.892  -4.917  0.00  0.00    -0.023 A 
ATOM     27  C   UNL     1       4.697  -0.319  -5.656  0.00  0.00    -0.004 A 
ATOM     28  S   UNL     1       3.562   0.347  -4.471  0.00  0.00    -0.077 S 
ATOM     29  C   UNL     1       4.609  -0.267  -7.150  0.00  0.00    +0.043 C 
ATOM     30  C   UNL     1       5.983  -0.635  -7.729  0.00  0.00    +0.005 C 
ATOM     31  C   UNL     1       6.488  -1.902  -7.032  0.00  0.00    +0.005 C 
ATOM     32  C   UNL     1       6.854  -1.587  -5.581  0.00  0.00    +0.037 C 
BRANCH  25  33
ATOM     33  C   UNL     1       6.483  -1.355  -2.551  0.00  0.00    +0.244 C 
ATOM     34  O   UNL     1       6.362  -2.503  -2.165  0.00  0.00    -0.270 OA
ATOM     35  N   UNL     1       7.521  -0.608  -2.127  0.00  0.00    -0.325 N 
ATOM     36  H   UNL     1       8.258  -1.035  -1.431  0.00  0.00    +0.145 HD
ATOM     37  H   UNL     1       7.631   0.430  -2.475  0.00  0.00    +0.145 HD
ENDBRANCH  25  33
ENDBRANCH  22  24
ENDBRANCH   1  20
TORSDOF 5
