REMARK  Name = ZINC44198891
REMARK  5 active torsions:
REMARK  status: ('A' for Active; 'I' for Inactive)
REMARK    1  A    between atoms: C_4  and  C_7
REMARK    2  A    between atoms: C_9  and  S_13
REMARK    3  A    between atoms: S_13  and  C_14
REMARK    4  A    between atoms: C_15  and  C_25
REMARK    5  A    between atoms: C_25  and  O_26
REMARK                            x       y       z     vdW  Elec       q    Type
REMARK                         _______ _______ _______ _____ _____    ______ ____
ROOT
ATOM      1  C   UNL     1       3.831  -4.234   2.126  0.00  0.00    +0.116 A 
ATOM      2  C   UNL     1       3.238  -5.260   2.860  0.00  0.00    +0.075 A 
ATOM      3  C   UNL     1       3.999  -6.380   3.187  0.00  0.00    +0.265 A 
ATOM      4  O   UNL     1       3.508  -7.296   3.828  0.00  0.00    -0.267 OA
ATOM      5  N   UNL     1       5.287  -6.440   2.784  0.00  0.00    -0.268 N 
ATOM      6  C   UNL     1       6.038  -7.532   3.099  0.00  0.00    +0.096 A 
ATOM      7  C   UNL     1       7.329  -7.619   2.709  0.00  0.00    +0.018 A 
ATOM      8  C   UNL     1       7.914  -6.580   1.972  0.00  0.00    +0.005 A 
ATOM      9  C   UNL     1       7.173  -5.483   1.651  0.00  0.00    +0.047 A 
ATOM     10  C   UNL     1       5.829  -5.411   2.065  0.00  0.00    +0.141 A 
ATOM     11  N   UNL     1       5.103  -4.342   1.747  0.00  0.00    -0.222 NA
ENDROOT
BRANCH   1  12
ATOM     12  S   UNL     1       2.899  -2.803   1.695  0.00  0.00    -0.046 S 
BRANCH  12  15
ATOM     13  C   UNL     1       3.783  -0.549   0.212  0.00  0.00    +0.126 A 
ATOM     14  H   UNL     1       6.714  -0.967  -0.572  0.00  0.00    +0.213 HD
ATOM     15  C   UNL     1       4.036  -1.811   0.786  0.00  0.00    +0.152 A 
ATOM     16  N   UNL     1       5.291  -2.102   0.510  0.00  0.00    -0.147 NA
ATOM     17  N   UNL     1       5.809  -1.030  -0.229  0.00  0.00    -0.195 N 
ATOM     18  N   UNL     1       4.887  -0.146  -0.383  0.00  0.00    -0.154 NA
BRANCH  13  22
ATOM     19  C   UNL     1       0.101   1.573   0.356  0.00  0.00    +0.000 A 
ATOM     20  C   UNL     1       1.298   2.266   0.391  0.00  0.00    +0.001 A 
ATOM     21  C   UNL     1       2.496   1.582   0.344  0.00  0.00    +0.010 A 
ATOM     22  C   UNL     1       2.498   0.191   0.262  0.00  0.00    +0.005 A 
ATOM     23  C   UNL     1       1.290  -0.502   0.228  0.00  0.00    +0.010 A 
ATOM     24  C   UNL     1       0.098   0.192   0.275  0.00  0.00    +0.001 A 
ENDBRANCH  13  22
ENDBRANCH  12  15
ENDBRANCH   1  12
BRANCH   2  25
ATOM     25  C   UNL     1       1.798  -5.159   3.293  0.00  0.00    +0.199 C 
BRANCH  25  26
ATOM     26  O   UNL     1       1.722  -5.256   4.717  0.00  0.00    -0.390 OA
ATOM     27  H   UNL     1       0.822  -5.199   5.067  0.00  0.00    +0.210 HD
ENDBRANCH  25  26
ENDBRANCH   2  25
TORSDOF 5
