REMARK  Name = ZINC12079003
REMARK  7 active torsions:
REMARK  status: ('A' for Active; 'I' for Inactive)
REMARK    1  A    between atoms: C_1  and  O_2
REMARK    2  A    between atoms: O_2  and  C_3
REMARK    3  A    between atoms: C_8  and  C_9
REMARK    4  A    between atoms: C_20  and  C_21
REMARK    5  A    between atoms: C_20  and  N_64
REMARK    6  A    between atoms: N_23  and  C_24
REMARK    7  A    between atoms: C_24  and  C_25
REMARK                            x       y       z     vdW  Elec       q    Type
REMARK                         _______ _______ _______ _____ _____    ______ ____
ROOT
ATOM      1  C   UNL     1      -0.087   5.345   0.024  0.00  0.00    +0.191 C 
ATOM      2  C   UNL     1       0.015   5.856  -1.397  0.00  0.00    -0.027 C 
ATOM      3  C   UNL     1      -1.096   8.001  -1.090  0.00  0.00    -0.038 C 
ATOM      4  C   UNL     1      -1.102   8.154   0.418  0.00  0.00    -0.022 A 
ATOM      5  C   UNL     1      -0.979   9.404   0.989  0.00  0.00    +0.005 A 
ATOM      6  C   UNL     1      -1.004   9.534   2.367  0.00  0.00    +0.000 A 
ATOM      7  C   UNL     1      -1.155   8.415   3.166  0.00  0.00    +0.004 A 
ATOM      8  C   UNL     1      -1.272   7.162   2.594  0.00  0.00    +0.046 A 
ATOM      9  C   UNL     1      -1.236   7.032   1.213  0.00  0.00    +0.123 A 
ATOM     10  O   UNL     1      -1.299   5.798   0.641  0.00  0.00    -0.486 OA
ATOM     11  N   UNL     1       0.167   7.324  -1.472  0.00  0.00    +0.391 N 
ATOM     12  H   UNL     1       0.906   7.613  -0.821  0.00  0.00    -0.080 HD
ENDROOT
BRANCH   1  18
ATOM     13  C   UNL     1       1.139   3.159  -0.006  0.00  0.00    +0.127 A 
ATOM     14  C   UNL     1       1.152   1.771  -0.018  0.00  0.00    +0.046 A 
ATOM     15  C   UNL     1      -0.039   1.071  -0.010  0.00  0.00    +0.004 A 
ATOM     16  C   UNL     1      -1.242   1.751   0.004  0.00  0.00    +0.001 A 
ATOM     17  C   UNL     1      -1.258   3.133   0.021  0.00  0.00    +0.011 A 
ATOM     18  C   UNL     1      -0.070   3.839   0.013  0.00  0.00    +0.032 A 
BRANCH  13  20
ATOM     19  C   UNL     1       3.515   3.084  -0.033  0.00  0.00    +0.277 C 
ATOM     20  O   UNL     1       2.309   3.850  -0.014  0.00  0.00    -0.495 OA
ENDBRANCH  13  20
ENDBRANCH   1  18
BRANCH  11  21
ATOM     21  C   UNL     1       0.555   7.717  -2.837  0.00  0.00    +0.019 C 
BRANCH  21  22
ATOM     22  C   UNL     1      -0.517   7.351  -3.830  0.00  0.00    +0.197 C 
ATOM     23  O   UNL     1      -1.570   6.889  -3.444  0.00  0.00    -0.278 OA
ATOM     24  N   UNL     1      -0.306   7.538  -5.148  0.00  0.00    -0.314 N 
ATOM     25  H   UNL     1       0.535   7.908  -5.457  0.00  0.00    +0.149 HD
BRANCH  24  26
ATOM     26  C   UNL     1      -1.349   7.183  -6.114  0.00  0.00    +0.140 C 
BRANCH  26  27
ATOM     27  C   UNL     1      -0.859   7.492  -7.530  0.00  0.00    +0.165 C 
ATOM     28  C   UNL     1      -1.930   7.119  -8.522  0.00  0.00    -0.014 A 
ATOM     29  C   UNL     1      -2.591   5.908  -8.360  0.00  0.00    +0.006 A 
ATOM     30  C   UNL     1      -3.574   5.528  -9.251  0.00  0.00    +0.000 A 
ATOM     31  C   UNL     1      -3.900   6.354 -10.311  0.00  0.00    +0.000 A 
ATOM     32  C   UNL     1      -3.242   7.557 -10.473  0.00  0.00    +0.004 A 
ATOM     33  C   UNL     1      -2.255   7.939  -9.578  0.00  0.00    -0.040 A 
ATOM     34  C   UNL     1      -1.561   9.261  -9.785  0.00  0.00    +0.063 C 
ATOM     35  C   UNL     1      -0.266   9.299  -8.973  0.00  0.00    +0.165 C 
ATOM     36  O   UNL     1      -0.558   8.884  -7.633  0.00  0.00    -0.370 OA
ENDBRANCH  26  27
ENDBRANCH  24  26
ENDBRANCH  21  22
ENDBRANCH  11  21
TORSDOF 6
