REMARK  Name = ZINC63386531
REMARK  10 active torsions:
REMARK  status: ('A' for Active; 'I' for Inactive)
REMARK    1  A    between atoms: C_1  and  C_2
REMARK    2  A    between atoms: C_2  and  C_3
REMARK    3  A    between atoms: C_2  and  C_4
REMARK    4  A    between atoms: C_2  and  C_5
REMARK    5  A    between atoms: C_8  and  S_11
REMARK    6  A    between atoms: S_11  and  C_14
REMARK    7  A    between atoms: C_21  and  N_23
REMARK    8  A    between atoms: N_23  and  C_24
REMARK    9  A    between atoms: C_24  and  C_25
REMARK   10  A    between atoms: C_25  and  C_26
REMARK                            x       y       z     vdW  Elec       q    Type
REMARK                         _______ _______ _______ _____ _____    ______ ____
ROOT
ATOM      1  C   UNL     1       2.517  -0.669  -6.208  0.00  0.00    +0.175 C 
ATOM      2  C   UNL     1       3.104   0.682  -5.712  0.00  0.00    +0.194 C 
ATOM      3  S   UNL     1       3.235   1.571  -7.326  0.00  0.00    -0.028 S 
ATOM      4  O   UNL     1       1.962   2.099  -7.673  0.00  0.00    -0.174 OA
ATOM      5  O   UNL     1       4.368   2.429  -7.296  0.00  0.00    -0.174 OA
ATOM      6  C   UNL     1       3.601   0.119  -8.397  0.00  0.00    +0.186 C 
ATOM      7  C   UNL     1       3.173  -1.078  -7.527  0.00  0.00    +0.101 C 
ENDROOT
BRANCH   1   8
ATOM      8  S   UNL     1       2.826  -1.950  -4.962  0.00  0.00    +0.003 S 
ATOM      9  O   UNL     1       4.203  -1.970  -4.611  0.00  0.00    -0.169 OA
ATOM     10  O   UNL     1       2.152  -3.150  -5.316  0.00  0.00    -0.169 OA
BRANCH   8  14
ATOM     11  C   UNL     1       0.707  -0.490  -1.238  0.00  0.00    -0.042 A 
ATOM     12  C   UNL     1       0.036  -1.284  -2.148  0.00  0.00    +0.006 A 
ATOM     13  C   UNL     1       0.683  -1.730  -3.286  0.00  0.00    +0.027 A 
ATOM     14  C   UNL     1       2.001  -1.381  -3.513  0.00  0.00    +0.089 A 
ATOM     15  C   UNL     1       2.672  -0.586  -2.603  0.00  0.00    +0.027 A 
ATOM     16  C   UNL     1       2.024  -0.137  -1.467  0.00  0.00    +0.006 A 
BRANCH  11  18
ATOM     17  C   UNL     1      -0.019   1.526   0.010  0.00  0.00    +0.015 C 
ATOM     18  C   UNL     1       0.002  -0.004   0.002  0.00  0.00    -0.013 C 
ATOM     19  C   UNL     1       0.742  -0.511   1.242  0.00  0.00    +0.015 C 
ATOM     20  C   UNL     1      -1.433  -0.534   0.013  0.00  0.00    +0.015 C 
ENDBRANCH  11  18
ENDBRANCH   8  14
ENDBRANCH   1   8
BRANCH   7  21
ATOM     21  N   UNL     1       2.222  -1.897  -8.290  0.00  0.00    -0.310 NA
ATOM     22  H   UNL     1       1.622  -2.424  -7.674  0.00  0.00    +0.122 HD
BRANCH  21  23
ATOM     23  C   UNL     1       2.926  -2.785  -9.226  0.00  0.00    +0.085 C 
BRANCH  23  24
ATOM     24  C   UNL     1       1.905  -3.620 -10.001  0.00  0.00    +0.048 C 
BRANCH  24  25
ATOM     25  C   UNL     1       2.627  -4.531 -10.961  0.00  0.00    -0.040 C 
ATOM     26  C   UNL     1       2.976  -5.821 -10.751  0.00  0.00    -0.001 A 
ATOM     27  C   UNL     1       2.796  -6.727  -9.610  0.00  0.00    +0.010 A 
ATOM     28  C   UNL     1       3.265  -7.992  -9.697  0.00  0.00    +0.001 A 
ATOM     29  C   UNL     1       3.917  -8.459 -10.846  0.00  0.00    +0.002 A 
ATOM     30  C   UNL     1       4.120  -7.687 -11.934  0.00  0.00    +0.026 A 
ATOM     31  C   UNL     1       3.668  -6.338 -11.953  0.00  0.00    +0.043 A 
ATOM     32  N   UNL     1       3.743  -5.405 -12.870  0.00  0.00    -0.380 N 
ATOM     33  C   UNL     1       3.102  -4.190 -12.355  0.00  0.00    +0.144 C 
ATOM     34  H   UNL     1       4.151  -5.503 -13.745  0.00  0.00    +0.160 HD
ENDBRANCH  24  25
ENDBRANCH  23  24
ENDBRANCH  21  23
ENDBRANCH   7  21
TORSDOF 7
