REMARK  Name = ZINC40156519
REMARK  7 active torsions:
REMARK  status: ('A' for Active; 'I' for Inactive)
REMARK    1  A    between atoms: C_1  and  C_2
REMARK    2  A    between atoms: C_2  and  O_3
REMARK    3  A    between atoms: O_3  and  C_4
REMARK    4  A    between atoms: C_7  and  O_28
REMARK    5  A    between atoms: C_8  and  C_10
REMARK    6  A    between atoms: C_16  and  C_27
REMARK    7  A    between atoms: C_22  and  C_24
REMARK                            x       y       z     vdW  Elec       q    Type
REMARK                         _______ _______ _______ _____ _____    ______ ____
ROOT
ATOM      1  C   UNL     1      -4.320  -4.363   0.008  0.00  0.00    +0.227 C 
ATOM      2  N   UNL     1      -5.271  -3.399  -0.565  0.00  0.00    -0.318 N 
ATOM      3  C   UNL     1      -5.774  -2.351   0.202  0.00  0.00    +0.040 A 
ATOM      4  C   UNL     1      -6.150  -1.149  -0.372  0.00  0.00    +0.024 A 
ATOM      5  C   UNL     1      -6.657  -0.136   0.421  0.00  0.00    +0.005 A 
ATOM      6  C   UNL     1      -6.793  -0.308   1.788  0.00  0.00    -0.050 A 
ATOM      7  C   UNL     1      -6.419  -1.500   2.380  0.00  0.00    +0.016 A 
ATOM      8  C   UNL     1      -5.905  -2.519   1.595  0.00  0.00    +0.040 A 
ATOM      9  C   UNL     1      -5.454  -3.812   2.147  0.00  0.00    +0.163 A 
ATOM     10  N   UNL     1      -4.716  -4.670   1.381  0.00  0.00    -0.219 N 
ATOM     11  N   UNL     1      -4.466  -5.787   2.171  0.00  0.00    -0.152 NA
ATOM     12  C   UNL     1      -5.030  -5.563   3.335  0.00  0.00    +0.155 A 
ATOM     13  N   UNL     1      -5.625  -4.364   3.315  0.00  0.00    -0.211 NA
ATOM     14  C   UNL     1      -7.352   0.807   2.633  0.00  0.00    +0.044 C 
ATOM     15  H   UNL     1      -5.551  -3.494  -1.488  0.00  0.00    +0.148 HD
ENDROOT
BRANCH   1  20
ATOM     16  C   UNL     1      -1.498  -1.849   0.006  0.00  0.00    +0.121 A 
ATOM     17  C   UNL     1      -0.387  -2.679  -0.003  0.00  0.00    +0.049 A 
ATOM     18  C   UNL     1      -0.549  -4.051  -0.009  0.00  0.00    +0.049 A 
ATOM     19  C   UNL     1      -1.824  -4.598  -0.006  0.00  0.00    +0.124 A 
ATOM     20  C   UNL     1      -2.935  -3.768   0.004  0.00  0.00    +0.039 A 
ATOM     21  C   UNL     1      -2.772  -2.397   0.016  0.00  0.00    +0.056 A 
BRANCH  19  22
ATOM     22  O   UNL     1      -1.984  -5.949  -0.012  0.00  0.00    -0.506 OA
ATOM     23  H   UNL     1      -2.025  -6.344   0.869  0.00  0.00    +0.292 HD
ENDBRANCH  19  22
BRANCH  16  24
ATOM     24  O   UNL     1      -1.339  -0.499   0.012  0.00  0.00    -0.492 OA
BRANCH  24  26
ATOM     25  C   UNL     1      -0.019   1.526   0.010  0.00  0.00    +0.048 C 
ATOM     26  C   UNL     1       0.002  -0.004   0.002  0.00  0.00    +0.225 C 
ENDBRANCH  24  26
ENDBRANCH  16  24
ENDBRANCH   1  20
BRANCH  12  27
ATOM     27  C   UNL     1      -5.011  -6.508   4.509  0.00  0.00    +0.059 C 
ATOM     28  C   UNL     1      -5.892  -6.160   5.710  0.00  0.00    +0.012 C 
ATOM     29  C   UNL     1      -4.373  -6.009   5.807  0.00  0.00    +0.012 C 
ENDBRANCH  12  27
TORSDOF 5
