REMARK  Name = ZINC13500179
REMARK  12 active torsions:
REMARK  status: ('A' for Active; 'I' for Inactive)
REMARK    1  A    between atoms: C_1  and  C_2
REMARK    2  A    between atoms: C_2  and  C_3
REMARK    3  A    between atoms: C_3  and  C_4
REMARK    4  A    between atoms: C_4  and  C_6
REMARK    5  A    between atoms: C_4  and  N_76
REMARK    6  A    between atoms: N_10  and  C_11
REMARK    7  A    between atoms: C_17  and  C_18
REMARK    8  A    between atoms: C_17  and  N_76
REMARK    9  A    between atoms: C_22  and  O_30
REMARK   10  A    between atoms: O_30  and  C_31
REMARK   11  A    between atoms: C_31  and  C_32
REMARK   12  A    between atoms: C_33  and  N_76
REMARK                            x       y       z     vdW  Elec       q    Type
REMARK                         _______ _______ _______ _____ _____    ______ ____
ROOT
ATOM      1  N   UNL     1       0.347   1.268  -0.296  0.00  0.00    +0.391 N 
ATOM      2  H   UNL     1       0.427   0.944   0.675  0.00  0.00    -0.080 HD
ENDROOT
BRANCH   1   3
ATOM      3  C   UNL     1      -0.435   2.522  -0.319  0.00  0.00    -0.067 C 
ATOM      4  C   UNL     1       0.210   3.547   0.637  0.00  0.00    -0.015 C 
ATOM      5  C   UNL     1      -0.996   4.270   1.287  0.00  0.00    -0.002 C 
ATOM      6  C   UNL     1      -2.022   3.125   1.476  0.00  0.00    -0.002 C 
ATOM      7  C   UNL     1      -1.854   2.255   0.214  0.00  0.00    -0.015 C 
ENDBRANCH   1   3
BRANCH   1   8
ATOM      8  C   UNL     1       1.701   1.507  -0.837  0.00  0.00    +0.003 C 
BRANCH   8   9
ATOM      9  C   UNL     1       1.640   2.440  -2.019  0.00  0.00    +0.138 A 
ATOM     10  N   UNL     1       1.009   3.587  -2.078  0.00  0.00    -0.115 NA
ATOM     11  N   UNL     1       1.194   4.083  -3.253  0.00  0.00    -0.023 NA
ATOM     12  N   UNL     1       1.927   3.281  -3.945  0.00  0.00    -0.044 NA
ATOM     13  N   UNL     1       2.227   2.259  -3.217  0.00  0.00    -0.228 N 
BRANCH  13  14
ATOM     14  C   UNL     1       3.048   1.115  -3.619  0.00  0.00    +0.111 C 
ATOM     15  C   UNL     1       4.448   1.601  -3.999  0.00  0.00    +0.027 C 
ATOM     16  C   UNL     1       5.307   0.406  -4.419  0.00  0.00    +0.002 C 
ATOM     17  C   UNL     1       4.663  -0.285  -5.623  0.00  0.00    +0.000 C 
ATOM     18  C   UNL     1       3.263  -0.771  -5.243  0.00  0.00    +0.002 C 
ATOM     19  C   UNL     1       2.405   0.423  -4.823  0.00  0.00    +0.027 C 
ENDBRANCH  13  14
ENDBRANCH   8   9
BRANCH   8  20
ATOM     20  C   UNL     1       2.563   2.133   0.262  0.00  0.00    -0.008 C 
BRANCH  20  22
ATOM     21  C   UNL     1       3.312   1.910   2.635  0.00  0.00    +0.004 C 
ATOM     22  C   UNL     1       2.551   1.229   1.496  0.00  0.00    -0.005 C 
ENDBRANCH  20  22
ENDBRANCH   8  20
ENDBRANCH   1   8
BRANCH   1  23
ATOM     23  C   UNL     1      -0.340   0.230  -1.094  0.00  0.00    -0.036 C 
BRANCH  23  24
ATOM     24  C   UNL     1       0.121  -1.124  -0.620  0.00  0.00    +0.001 A 
ATOM     25  C   UNL     1      -0.579  -1.779   0.339  0.00  0.00    +0.017 A 
ATOM     26  C   UNL     1      -0.105  -3.093   0.777  0.00  0.00    +0.002 A 
ATOM     27  C   UNL     1      -0.788  -3.815   1.762  0.00  0.00    +0.055 A 
ATOM     28  C   UNL     1      -0.314  -5.051   2.152  0.00  0.00    +0.121 A 
ATOM     29  C   UNL     1       0.836  -5.579   1.569  0.00  0.00    +0.047 A 
ATOM     30  C   UNL     1       1.516  -4.878   0.598  0.00  0.00    +0.030 A 
ATOM     31  C   UNL     1       1.056  -3.630   0.191  0.00  0.00    +0.049 A 
ATOM     32  N   UNL     1       1.723  -2.913  -0.781  0.00  0.00    -0.322 N 
ATOM     33  H   UNL     1       2.523  -3.284  -1.184  0.00  0.00    +0.169 HD
ATOM     34  C   UNL     1       1.277  -1.709  -1.181  0.00  0.00    +0.251 A 
ATOM     35  O   UNL     1       1.888  -1.106  -2.046  0.00  0.00    -0.268 OA
BRANCH  28  36
ATOM     36  O   UNL     1      -0.972  -5.757   3.109  0.00  0.00    -0.492 OA
BRANCH  36  37
ATOM     37  C   UNL     1      -0.429  -7.029   3.466  0.00  0.00    +0.225 C 
ATOM     38  C   UNL     1      -1.299  -7.670   4.550  0.00  0.00    +0.048 C 
ENDBRANCH  36  37
ENDBRANCH  28  36
ENDBRANCH  23  24
ENDBRANCH   1  23
TORSDOF 10
