REMARK  Name = ZINC10437400
REMARK  9 active torsions:
REMARK  status: ('A' for Active; 'I' for Inactive)
REMARK    1  A    between atoms: C_1  and  C_2
REMARK    2  A    between atoms: C_9  and  C_11
REMARK    3  A    between atoms: C_11  and  O_13
REMARK    4  A    between atoms: O_13  and  C_14
REMARK    5  A    between atoms: C_14  and  C_15
REMARK    6  A    between atoms: N_17  and  C_18
REMARK    7  A    between atoms: C_18  and  C_19
REMARK    8  A    between atoms: C_22  and  S_25
REMARK    9  A    between atoms: S_25  and  N_28
REMARK                            x       y       z     vdW  Elec       q    Type
REMARK                         _______ _______ _______ _____ _____    ______ ____
ROOT
ATOM      1  C   UNL     1      -4.787  -0.767   0.044  0.00  0.00    +0.251 C 
ATOM      2  O   UNL     1      -4.836   0.444   0.052  0.00  0.00    -0.272 OA
ATOM      3  N   UNL     1      -5.925  -1.489   0.051  0.00  0.00    -0.308 N 
ATOM      4  H   UNL     1      -5.885  -2.458   0.045  0.00  0.00    +0.149 HD
ENDROOT
BRANCH   1   5
ATOM      5  C   UNL     1      -3.452  -1.467   0.027  0.00  0.00    +0.328 C 
BRANCH   5   6
ATOM      6  O   UNL     1      -2.388  -0.479   0.023  0.00  0.00    -0.451 OA
BRANCH   6   7
ATOM      7  C   UNL     1      -1.121  -0.943   0.008  0.00  0.00    +0.346 C 
ATOM      8  O   UNL     1      -0.913  -2.141  -0.001  0.00  0.00    -0.244 OA
BRANCH   7  16
ATOM      9  C   UNL     1       5.911   1.847  -0.348  0.00  0.00    +0.008 C 
ATOM     10  C   UNL     1       4.391   1.944  -0.493  0.00  0.00    -0.009 C 
ATOM     11  C   UNL     1       3.872   3.105   0.359  0.00  0.00    +0.009 C 
ATOM     12  C   UNL     1       2.402   3.364  -0.001  0.00  0.00    +0.043 C 
ATOM     13  C   UNL     1       1.679   2.053  -0.003  0.00  0.00    -0.006 A 
ATOM     14  C   UNL     1       2.235   0.805  -0.016  0.00  0.00    -0.036 A 
ATOM     15  C   UNL     1       1.360  -0.269  -0.013  0.00  0.00    +0.026 A 
ATOM     16  C   UNL     1       0.002  -0.004   0.002  0.00  0.00    +0.097 A 
ATOM     17  S   UNL     1      -0.022   1.781   0.012  0.00  0.00    -0.086 S 
ATOM     18  C   UNL     1       3.752   0.633  -0.033  0.00  0.00    +0.039 C 
ENDBRANCH   7  16
ENDBRANCH   6   7
ENDBRANCH   5   6
ENDBRANCH   1   5
BRANCH   3  19
ATOM     19  C   UNL     1      -7.223  -0.809   0.068  0.00  0.00    +0.139 C 
BRANCH  19  20
ATOM     20  C   UNL     1      -8.327  -1.835   0.073  0.00  0.00    -0.030 A 
ATOM     21  C   UNL     1      -8.849  -2.294  -1.122  0.00  0.00    +0.007 A 
ATOM     22  C   UNL     1      -9.859  -3.238  -1.118  0.00  0.00    +0.029 A 
ATOM     23  C   UNL     1     -10.353  -3.716   0.082  0.00  0.00    +0.105 A 
ATOM     24  C   UNL     1      -9.835  -3.252   1.276  0.00  0.00    +0.029 A 
ATOM     25  C   UNL     1      -8.822  -2.312   1.272  0.00  0.00    +0.007 A 
BRANCH  23  26
ATOM     26  S   UNL     1     -11.643  -4.915   0.087  0.00  0.00    +0.056 S 
ATOM     27  O   UNL     1     -11.579  -5.588  -1.163  0.00  0.00    -0.153 OA
ATOM     28  O   UNL     1     -11.553  -5.603   1.327  0.00  0.00    -0.153 OA
BRANCH  26  29
ATOM     29  N   UNL     1     -13.079  -4.090   0.107  0.00  0.00    -0.204 NA
ATOM     30  H   UNL     1     -13.081  -3.120   0.113  0.00  0.00    +0.144 HD
ATOM     31  H   UNL     1     -13.918  -4.577   0.113  0.00  0.00    +0.144 HD
ENDBRANCH  26  29
ENDBRANCH  23  26
ENDBRANCH  19  20
ENDBRANCH   3  19
TORSDOF 8
