REMARK  Name = ZINC67299331
REMARK  7 active torsions:
REMARK  status: ('A' for Active; 'I' for Inactive)
REMARK    1  A    between atoms: C_1  and  O_2
REMARK    2  A    between atoms: O_2  and  C_3
REMARK    3  A    between atoms: C_6  and  N_10
REMARK    4  A    between atoms: C_12  and  C_22
REMARK    5  A    between atoms: C_17  and  O_21
REMARK    6  A    between atoms: N_24  and  C_25
REMARK    7  A    between atoms: C_25  and  C_26
REMARK                            x       y       z     vdW  Elec       q    Type
REMARK                         _______ _______ _______ _____ _____    ______ ____
ROOT
ATOM      1  N   UNL     1      -4.871  -2.560   0.032  0.00  0.00    -0.325 N 
ATOM      2  C   UNL     1      -5.082  -3.579  -0.773  0.00  0.00    +0.212 A 
ATOM      3  C   UNL     1      -6.338  -4.353  -0.712  0.00  0.00    +0.097 A 
ATOM      4  C   UNL     1      -6.734  -5.018  -1.863  0.00  0.00    +0.030 A 
ATOM      5  C   UNL     1      -5.897  -4.936  -3.006  0.00  0.00    +0.018 A 
ATOM      6  C   UNL     1      -6.342  -5.416  -4.247  0.00  0.00    +0.015 A 
ATOM      7  C   UNL     1      -5.546  -5.295  -5.347  0.00  0.00    +0.046 A 
ATOM      8  C   UNL     1      -4.287  -4.705  -5.248  0.00  0.00    +0.120 A 
ATOM      9  C   UNL     1      -3.822  -4.243  -4.026  0.00  0.00    +0.092 A 
ATOM     10  C   UNL     1      -4.615  -4.364  -2.897  0.00  0.00    +0.141 A 
ATOM     11  O   UNL     1      -4.155  -3.952  -1.693  0.00  0.00    -0.438 OA
ATOM     12  H   UNL     1      -5.577  -2.254   0.622  0.00  0.00    +0.169 HD
ENDROOT
BRANCH   1  16
ATOM     13  C   UNL     1      -1.191  -0.662   0.049  0.00  0.00    +0.138 A 
ATOM     14  C   UNL     1      -2.357   0.090   0.041  0.00  0.00    +0.049 A 
ATOM     15  C   UNL     1      -3.585  -0.538   0.035  0.00  0.00    +0.029 A 
ATOM     16  C   UNL     1      -3.654  -1.933   0.037  0.00  0.00    +0.043 A 
ATOM     17  C   UNL     1      -2.478  -2.687   0.045  0.00  0.00    +0.049 A 
ATOM     18  C   UNL     1      -1.254  -2.050   0.046  0.00  0.00    +0.084 A 
ATOM     19 CL   UNL     1       0.209  -2.984   0.049  0.00  0.00    -0.080 Cl
BRANCH  13  21
ATOM     20  C   UNL     1       0.010   1.391   0.058  0.00  0.00    +0.277 C 
ATOM     21  O   UNL     1       0.018  -0.038   0.055  0.00  0.00    -0.494 OA
ENDBRANCH  13  21
ENDBRANCH   1  16
BRANCH   3  22
ATOM     22  C   UNL     1      -7.137  -4.418   0.522  0.00  0.00    +0.250 C 
ATOM     23  O   UNL     1      -6.815  -3.757   1.491  0.00  0.00    -0.270 OA
ATOM     24  N   UNL     1      -8.226  -5.210   0.579  0.00  0.00    -0.304 N 
ATOM     25  H   UNL     1      -8.441  -5.793  -0.166  0.00  0.00    +0.149 HD
BRANCH  24  26
ATOM     26  C   UNL     1      -9.085  -5.190   1.765  0.00  0.00    +0.179 C 
BRANCH  26  27
ATOM     27  C   UNL     1     -10.225  -6.158   1.577  0.00  0.00    +0.122 A 
ATOM     28  C   UNL     1     -10.221  -7.456   1.931  0.00  0.00    +0.046 A 
ATOM     29  C   UNL     1     -11.484  -7.981   1.573  0.00  0.00    +0.041 A 
ATOM     30  C   UNL     1     -12.184  -6.973   1.022  0.00  0.00    +0.195 A 
ATOM     31  O   UNL     1     -11.418  -5.870   1.032  0.00  0.00    -0.466 OA
ENDBRANCH  26  27
ENDBRANCH  24  26
ENDBRANCH   3  22
BRANCH   8  32
ATOM     32  O   UNL     1      -3.511  -4.582  -6.354  0.00  0.00    -0.507 OA
ATOM     33  H   UNL     1      -3.644  -3.755  -6.838  0.00  0.00    +0.292 HD
ENDBRANCH   8  32
TORSDOF 6
