REMARK  Name = ZINC09472147
REMARK  10 active torsions:
REMARK  status: ('A' for Active; 'I' for Inactive)
REMARK    1  A    between atoms: C_1  and  C_2
REMARK    2  A    between atoms: C_2  and  C_3
REMARK    3  A    between atoms: C_3  and  C_5
REMARK    4  A    between atoms: C_3  and  S_14
REMARK    5  A    between atoms: N_7  and  C_8
REMARK    6  A    between atoms: S_14  and  C_15
REMARK    7  A    between atoms: C_26  and  C_28
REMARK    8  A    between atoms: C_28  and  C_29
REMARK    9  A    between atoms: C_29  and  N_30
REMARK   10  A    between atoms: C_31  and  C_39
REMARK                            x       y       z     vdW  Elec       q    Type
REMARK                         _______ _______ _______ _____ _____    ______ ____
ROOT
ATOM      1  C   UNL     1      -6.080  -0.759  -4.007  0.00  0.00    +0.193 A 
ATOM      2  N   UNL     1      -7.306  -0.789  -4.464  0.00  0.00    -0.222 NA
ATOM      3  C   UNL     1      -8.358  -0.359  -3.726  0.00  0.00    +0.077 A 
ATOM      4  C   UNL     1      -9.662  -0.396  -4.226  0.00  0.00    +0.028 A 
ATOM      5  C   UNL     1     -10.706   0.049  -3.446  0.00  0.00    +0.002 A 
ATOM      6  C   UNL     1     -10.479   0.535  -2.165  0.00  0.00    +0.001 A 
ATOM      7  C   UNL     1      -9.203   0.582  -1.650  0.00  0.00    +0.014 A 
ATOM      8  C   UNL     1      -8.132   0.137  -2.421  0.00  0.00    +0.045 A 
ATOM      9  C   UNL     1      -6.751   0.163  -1.925  0.00  0.00    +0.168 A 
ATOM     10  N   UNL     1      -5.767  -0.296  -2.758  0.00  0.00    -0.188 N 
ATOM     11  N   UNL     1      -4.567  -0.162  -2.046  0.00  0.00    -0.148 NA
ATOM     12  C   UNL     1      -4.868   0.346  -0.876  0.00  0.00    +0.154 A 
ATOM     13  N   UNL     1      -6.182   0.537  -0.799  0.00  0.00    -0.211 NA
ENDROOT
BRANCH   1  14
ATOM     14  S   UNL     1      -4.779  -1.339  -5.043  0.00  0.00    -0.073 S 
BRANCH  14  15
ATOM     15  C   UNL     1      -5.706  -1.655  -6.565  0.00  0.00    +0.140 C 
BRANCH  15  16
ATOM     16  C   UNL     1      -6.170  -0.347  -7.152  0.00  0.00    +0.227 C 
ATOM     17  O   UNL     1      -5.567   0.676  -6.905  0.00  0.00    -0.275 OA
ATOM     18  N   UNL     1      -7.255  -0.313  -7.951  0.00  0.00    -0.312 N 
ATOM     19  H   UNL     1      -7.737  -1.131  -8.149  0.00  0.00    +0.149 HD
BRANCH  18  20
ATOM     20  C   UNL     1      -7.705   0.959  -8.521  0.00  0.00    +0.073 C 
ATOM     21  C   UNL     1      -8.606   1.678  -7.515  0.00  0.00    +0.022 C 
ATOM     22  C   UNL     1      -9.076   3.006  -8.111  0.00  0.00    +0.002 C 
ATOM     23  C   UNL     1      -9.860   2.739  -9.398  0.00  0.00    +0.000 C 
ATOM     24  C   UNL     1      -8.960   2.020 -10.403  0.00  0.00    +0.002 C 
ATOM     25  C   UNL     1      -8.489   0.691  -9.808  0.00  0.00    +0.022 C 
ENDBRANCH  18  20
ENDBRANCH  15  16
BRANCH  15  27
ATOM     26  C   UNL     1      -4.449  -3.763  -7.035  0.00  0.00    +0.005 C 
ATOM     27  C   UNL     1      -4.806  -2.375  -7.571  0.00  0.00    +0.020 C 
ENDBRANCH  15  27
ENDBRANCH  14  15
ENDBRANCH   1  14
BRANCH  12  28
ATOM     28  C   UNL     1      -3.878   0.660   0.216  0.00  0.00    +0.099 C 
BRANCH  28  29
ATOM     29  C   UNL     1      -3.376   2.096   0.051  0.00  0.00    +0.131 C 
BRANCH  29  30
ATOM     30  N   UNL     1      -2.414   2.401   1.113  0.00  0.00    -0.327 N 
ATOM     31  C   UNL     1      -1.068   2.211   1.061  0.00  0.00    +0.108 A 
ATOM     32  N   UNL     1      -0.518   2.595   2.175  0.00  0.00    -0.233 NA
ATOM     33  C   UNL     1      -1.475   3.053   3.023  0.00  0.00    +0.089 A 
ATOM     34  C   UNL     1      -2.705   2.932   2.354  0.00  0.00    +0.069 A 
ATOM     35  C   UNL     1      -3.876   3.329   2.985  0.00  0.00    +0.028 A 
ATOM     36  C   UNL     1      -3.823   3.840   4.264  0.00  0.00    +0.002 A 
ATOM     37  C   UNL     1      -2.608   3.959   4.924  0.00  0.00    +0.002 A 
ATOM     38  C   UNL     1      -1.446   3.574   4.319  0.00  0.00    +0.030 A 
ATOM     39  C   UNL     1      -0.322   1.644  -0.120  0.00  0.00    +0.086 C 
ENDBRANCH  29  30
ENDBRANCH  28  29
ENDBRANCH  12  28
TORSDOF 8
