REMARK  Name = ZINC59309997
REMARK  5 active torsions:
REMARK  status: ('A' for Active; 'I' for Inactive)
REMARK    1  A    between atoms: C_1  and  C_2
REMARK    2  A    between atoms: C_3  and  C_17
REMARK    3  A    between atoms: C_10  and  C_13
REMARK    4  A    between atoms: C_17  and  N_19
REMARK    5  A    between atoms: N_28  and  C_29
REMARK                            x       y       z     vdW  Elec       q    Type
REMARK                         _______ _______ _______ _____ _____    ______ ____
ROOT
ATOM      1  C   UNL     1      -0.018  -0.368  -2.521  0.00  0.00    +0.273 C 
ATOM      2  O   UNL     1      -0.044   0.823  -2.781  0.00  0.00    -0.268 OA
ENDROOT
BRANCH   1   5
ATOM      3  C   UNL     1      -0.065   1.499   0.013  0.00  0.00    +0.066 C 
ATOM      4  C   UNL     1      -0.031  -0.008   0.003  0.00  0.00    +0.056 A 
ATOM      5  C   UNL     1      -0.011  -0.817  -1.113  0.00  0.00    +0.080 A 
ATOM      6  C   UNL     1       0.017  -2.154  -0.660  0.00  0.00    +0.148 A 
ATOM      7  N   UNL     1       0.014  -2.141   0.645  0.00  0.00    -0.172 NA
ATOM      8  N   UNL     1      -0.011  -0.812   1.084  0.00  0.00    -0.218 N 
ATOM      9  C   UNL     1      -0.015  -0.392   2.417  0.00  0.00    +0.154 A 
ATOM     10  C   UNL     1      -0.499  -1.241   3.405  0.00  0.00    +0.049 A 
ATOM     11  C   UNL     1      -0.498  -0.812   4.721  0.00  0.00    +0.017 A 
ATOM     12  C   UNL     1      -0.011   0.457   5.003  0.00  0.00    +0.073 A 
ATOM     13  C   UNL     1       0.455   1.248   3.971  0.00  0.00    +0.125 A 
ATOM     14  N   UNL     1       0.446   0.809   2.727  0.00  0.00    -0.236 NA
BRANCH  12  15
ATOM     15  C   UNL     1       0.009   0.967   6.421  0.00  0.00    +0.419 C 
ATOM     16  F   UNL     1       1.225   0.624   7.023  0.00  0.00    -0.166 F 
ATOM     17  F   UNL     1      -0.134   2.358   6.419  0.00  0.00    -0.166 F 
ATOM     18  F   UNL     1      -1.044   0.391   7.139  0.00  0.00    -0.166 F 
ENDBRANCH  12  15
ENDBRANCH   1   5
BRANCH   1  19
ATOM     19  N   UNL     1       0.005  -1.269  -3.511  0.00  0.00    -0.142 NA
ATOM     20  C   UNL     1      -0.106  -0.872  -4.772  0.00  0.00    +0.202 A 
ATOM     21  N   UNL     1      -0.132   0.422  -5.192  0.00  0.00    -0.326 N 
ATOM     22  C   UNL     1      -0.258   0.428  -6.578  0.00  0.00    +0.066 A 
ATOM     23  C   UNL     1      -0.333   1.448  -7.517  0.00  0.00    +0.028 A 
ATOM     24  C   UNL     1      -0.458   1.140  -8.857  0.00  0.00    +0.002 A 
ATOM     25  C   UNL     1      -0.509  -0.181  -9.269  0.00  0.00    +0.002 A 
ATOM     26  C   UNL     1      -0.436  -1.202  -8.342  0.00  0.00    +0.028 A 
ATOM     27  C   UNL     1      -0.309  -0.904  -6.993  0.00  0.00    +0.068 A 
ATOM     28  N   UNL     1      -0.207  -1.694  -5.852  0.00  0.00    -0.309 N 
ATOM     29  H   UNL     1      -0.072   1.206  -4.623  0.00  0.00    +0.169 HD
BRANCH  28  30
ATOM     30  C   UNL     1      -0.212  -3.158  -5.818  0.00  0.00    +0.091 C 
ATOM     31  C   UNL     1      -1.393  -3.646  -4.978  0.00  0.00    +0.025 C 
ATOM     32  C   UNL     1      -1.398  -5.175  -4.942  0.00  0.00    +0.002 C 
ATOM     33  C   UNL     1      -0.091  -5.675  -4.324  0.00  0.00    +0.000 C 
ATOM     34  C   UNL     1       1.091  -5.188  -5.164  0.00  0.00    +0.002 C 
ATOM     35  C   UNL     1       1.095  -3.658  -5.199  0.00  0.00    +0.025 C 
ENDBRANCH  28  30
ENDBRANCH   1  19
TORSDOF 4
