REMARK  Name = ZINC39534594
REMARK  9 active torsions:
REMARK  status: ('A' for Active; 'I' for Inactive)
REMARK    1  A    between atoms: C_1  and  C_2
REMARK    2  A    between atoms: C_2  and  C_3
REMARK    3  A    between atoms: C_2  and  S_4
REMARK    4  A    between atoms: S_4  and  C_7
REMARK    5  A    between atoms: C_10  and  C_13
REMARK    6  A    between atoms: C_13  and  C_15
REMARK    7  A    between atoms: C_13  and  N_18
REMARK    8  A    between atoms: C_15  and  N_16
REMARK    9  A    between atoms: N_16  and  O_17
REMARK                            x       y       z     vdW  Elec       q    Type
REMARK                         _______ _______ _______ _____ _____    ______ ____
ROOT
ATOM      1  C   UNL     1      -1.159  -6.623   0.498  0.00  0.00    +0.103 C 
ENDROOT
BRANCH   1   2
ATOM      2  N   UNL     1      -0.292  -7.035   1.611  0.00  0.00    -0.291 NA
ATOM      3  C   UNL     1       0.977  -6.295   1.593  0.00  0.00    +0.100 C 
ATOM      4  C   UNL     1       1.815  -6.694   2.809  0.00  0.00    +0.097 C 
ATOM      5  N   UNL     1       2.054  -8.144   2.781  0.00  0.00    -0.302 NA
ATOM      6  C   UNL     1       0.785  -8.884   2.800  0.00  0.00    +0.136 C 
ATOM      7  C   UNL     1      -0.053  -8.485   1.583  0.00  0.00    +0.115 C 
ATOM      8 BR   UNL     1       1.151 -10.815   2.739  0.00  0.00    -0.070 Br
ATOM      9  H   UNL     1       2.612  -8.403   1.982  0.00  0.00    +0.123 HD
ENDBRANCH   1   2
BRANCH   1  13
ATOM     10  C   UNL     1      -1.980  -2.442   0.805  0.00  0.00    +0.088 A 
ATOM     11  C   UNL     1      -1.736  -3.010  -0.431  0.00  0.00    +0.027 A 
ATOM     12  C   UNL     1      -1.470  -4.362  -0.531  0.00  0.00    +0.007 A 
ATOM     13  C   UNL     1      -1.447  -5.148   0.607  0.00  0.00    -0.029 A 
ATOM     14  C   UNL     1      -1.690  -4.580   1.843  0.00  0.00    +0.007 A 
ATOM     15  C   UNL     1      -1.952  -3.226   1.943  0.00  0.00    +0.027 A 
BRANCH  10  16
ATOM     16  S   UNL     1      -2.319  -0.718   0.932  0.00  0.00    -0.001 S 
ATOM     17  O   UNL     1      -3.086  -0.585   2.120  0.00  0.00    -0.169 OA
ATOM     18  O   UNL     1      -2.869  -0.363  -0.329  0.00  0.00    -0.169 OA
BRANCH  16  20
ATOM     19  C   UNL     1      -0.877   1.561   1.393  0.00  0.00    +0.032 C 
ATOM     20  C   UNL     1      -0.695   0.062   1.147  0.00  0.00    +0.130 C 
ATOM     21  C   UNL     1       0.019  -0.568   2.344  0.00  0.00    +0.032 C 
ENDBRANCH  16  20
ENDBRANCH  10  16
ENDBRANCH   1  13
BRANCH   1  22
ATOM     22  C   UNL     1      -2.472  -7.405   0.557  0.00  0.00    +0.134 C 
BRANCH  22  23
ATOM     23  N   UNL     1      -3.304  -7.053  -0.600  0.00  0.00    -0.202 NA
ATOM     24  H   UNL     1      -2.844  -7.297  -1.464  0.00  0.00    +0.154 HD
BRANCH  23  25
ATOM     25  O   UNL     1      -4.621  -7.685  -0.512  0.00  0.00    -0.315 OA
ATOM     26  H   UNL     1      -5.206  -7.482  -1.254  0.00  0.00    +0.236 HD
ENDBRANCH  23  25
ENDBRANCH  22  23
ENDBRANCH   1  22
TORSDOF 7
