REMARK  Name = ZINC35890986
REMARK  8 active torsions:
REMARK  status: ('A' for Active; 'I' for Inactive)
REMARK    1  A    between atoms: C_1  and  C_2
REMARK    2  A    between atoms: C_3  and  C_33
REMARK    3  A    between atoms: C_4  and  N_18
REMARK    4  A    between atoms: C_6  and  C_8
REMARK    5  A    between atoms: C_11  and  C_14
REMARK    6  A    between atoms: N_26  and  C_27
REMARK    7  A    between atoms: C_33  and  C_34
REMARK    8  A    between atoms: C_33  and  C_35
REMARK                            x       y       z     vdW  Elec       q    Type
REMARK                         _______ _______ _______ _____ _____    ______ ____
ROOT
ATOM      1  C   UNL     1      -2.857  -1.197   1.169  0.00  0.00    +0.064 C 
ATOM      2  C   UNL     1      -1.484  -0.977   0.590  0.00  0.00    +0.021 A 
ATOM      3  C   UNL     1      -1.157  -1.494  -0.650  0.00  0.00    +0.014 A 
ATOM      4  C   UNL     1       0.128  -1.267  -1.150  0.00  0.00    +0.129 A 
ATOM      5  N   UNL     1       0.988  -0.565  -0.420  0.00  0.00    -0.214 NA
ATOM      6  C   UNL     1       0.636  -0.086   0.764  0.00  0.00    +0.140 A 
ATOM      7  N   UNL     1      -0.578  -0.282   1.260  0.00  0.00    -0.343 N 
ATOM      8  H   UNL     1      -0.805   0.086   2.128  0.00  0.00    +0.167 HD
ENDROOT
BRANCH   4   9
ATOM      9  N   UNL     1       0.499  -1.767  -2.387  0.00  0.00    -0.312 N 
ATOM     10  C   UNL     1       0.404  -0.930  -3.591  0.00  0.00    +0.125 C 
ATOM     11  C   UNL     1       1.778  -0.892  -4.272  0.00  0.00    +0.128 C 
ATOM     12  N   UNL     1       2.275  -2.269  -4.404  0.00  0.00    -0.283 N 
ATOM     13  C   UNL     1       2.369  -3.107  -3.200  0.00  0.00    +0.128 C 
ATOM     14  C   UNL     1       1.000  -3.142  -2.519  0.00  0.00    +0.125 C 
ATOM     15  C   UNL     1       2.636  -2.756  -5.608  0.00  0.00    +0.303 C 
ATOM     16  O   UNL     1       2.461  -2.089  -6.610  0.00  0.00    -0.253 OA
ATOM     17  N   UNL     1       3.191  -3.980  -5.701  0.00  0.00    -0.296 N 
ATOM     18  H   UNL     1       3.264  -4.541  -4.913  0.00  0.00    +0.151 HD
BRANCH  17  19
ATOM     19  C   UNL     1       3.683  -4.465  -6.993  0.00  0.00    +0.074 C 
ATOM     20  C   UNL     1       2.527  -5.090  -7.777  0.00  0.00    +0.022 C 
ATOM     21  C   UNL     1       3.042  -5.596  -9.127  0.00  0.00    +0.002 C 
ATOM     22  C   UNL     1       4.129  -6.647  -8.896  0.00  0.00    +0.000 C 
ATOM     23  C   UNL     1       5.284  -6.022  -8.112  0.00  0.00    +0.002 C 
ATOM     24  C   UNL     1       4.770  -5.516  -6.763  0.00  0.00    +0.022 C 
ENDBRANCH  17  19
ENDBRANCH   4   9
BRANCH   6  25
ATOM     25  C   UNL     1       1.622   0.693   1.552  0.00  0.00    +0.017 A 
ATOM     26  C   UNL     1       1.274   1.201   2.802  0.00  0.00    +0.012 A 
ATOM     27  C   UNL     1       2.196   1.924   3.531  0.00  0.00    +0.013 A 
ATOM     28  C   UNL     1       3.463   2.146   3.022  0.00  0.00    +0.055 A 
ATOM     29  C   UNL     1       3.814   1.644   1.782  0.00  0.00    +0.013 A 
ATOM     30  C   UNL     1       2.902   0.915   1.047  0.00  0.00    +0.012 A 
BRANCH  28  31
ATOM     31  C   UNL     1       4.465   2.938   3.823  0.00  0.00    +0.417 C 
ATOM     32  F   UNL     1       5.198   2.071   4.640  0.00  0.00    -0.166 F 
ATOM     33  F   UNL     1       5.334   3.605   2.953  0.00  0.00    -0.166 F 
ATOM     34  F   UNL     1       3.793   3.872   4.618  0.00  0.00    -0.166 F 
ENDBRANCH  28  31
ENDBRANCH   6  25
BRANCH   3  35
ATOM     35  C   UNL     1      -2.164  -2.286  -1.444  0.00  0.00    +0.018 C 
ATOM     36  C   UNL     1      -2.103  -1.860  -2.913  0.00  0.00    +0.012 C 
ATOM     37  C   UNL     1      -1.843  -3.777  -1.332  0.00  0.00    +0.012 C 
ENDBRANCH   3  35
TORSDOF 5
