REMARK  Name = ZINC24221190
REMARK  9 active torsions:
REMARK  status: ('A' for Active; 'I' for Inactive)
REMARK    1  A    between atoms: C_1  and  C_2
REMARK    2  A    between atoms: C_2  and  C_3
REMARK    3  A    between atoms: C_2  and  C_4
REMARK    4  A    between atoms: C_7  and  C_10
REMARK    5  A    between atoms: C_10  and  C_12
REMARK    6  A    between atoms: C_10  and  N_17
REMARK    7  A    between atoms: C_18  and  C_20
REMARK    8  A    between atoms: C_20  and  N_21
REMARK    9  A    between atoms: C_24  and  N_32
REMARK                            x       y       z     vdW  Elec       q    Type
REMARK                         _______ _______ _______ _____ _____    ______ ____
ROOT
ATOM      1  N   UNL     1      -2.014   4.116   5.300  0.00  0.00    -0.303 N 
ATOM      2  C   UNL     1      -2.115   4.420   6.609  0.00  0.00    +0.232 C 
ATOM      3  O   UNL     1      -2.789   3.727   7.342  0.00  0.00    -0.274 OA
ATOM      4  H   UNL     1      -1.403   4.744   4.635  0.00  0.00    +0.150 HD
ENDROOT
BRANCH   1   5
ATOM      5  C   UNL     1      -2.718   2.949   4.762  0.00  0.00    +0.140 C 
BRANCH   5   9
ATOM      6  C   UNL     1      -0.718   1.572   1.248  0.00  0.00    -0.045 A 
ATOM      7  C   UNL     1      -0.856   2.928   1.478  0.00  0.00    +0.004 A 
ATOM      8  C   UNL     1      -1.507   3.374   2.613  0.00  0.00    +0.006 A 
ATOM      9  C   UNL     1      -2.012   2.463   3.523  0.00  0.00    -0.022 A 
ATOM     10  C   UNL     1      -1.870   1.107   3.295  0.00  0.00    +0.006 A 
ATOM     11  C   UNL     1      -1.222   0.662   2.158  0.00  0.00    +0.004 A 
BRANCH   6  13
ATOM     12  C   UNL     1       1.423   1.615  -0.003  0.00  0.00    +0.012 C 
ATOM     13  C   UNL     1      -0.013   1.086   0.008  0.00  0.00    +0.013 C 
ATOM     14  C   UNL     1      -0.753   1.593  -1.232  0.00  0.00    +0.012 C 
ENDBRANCH   6  13
ENDBRANCH   5   9
BRANCH   5  15
ATOM     15  C   UNL     1      -4.134   3.333   4.416  0.00  0.00    +0.014 A 
ATOM     16  C   UNL     1      -5.277   2.626   4.591  0.00  0.00    +0.013 A 
ATOM     17  C   UNL     1      -6.478   3.185   4.197  0.00  0.00    +0.008 A 
ATOM     18  C   UNL     1      -6.476   4.419   3.637  0.00  0.00    +0.045 A 
ATOM     19  S   UNL     1      -4.740   4.833   3.661  0.00  0.00    -0.099 S 
ENDBRANCH   5  15
ENDBRANCH   1   5
BRANCH   2  20
ATOM     20  C   UNL     1      -1.390   5.620   7.162  0.00  0.00    +0.209 C 
BRANCH  20  21
ATOM     21  N   UNL     1      -1.658   5.733   8.598  0.00  0.00    -0.256 N 
ATOM     22  C   UNL     1      -2.749   6.483   9.061  0.00  0.00    +0.081 A 
ATOM     23  C   UNL     1      -3.770   6.853   8.199  0.00  0.00    +0.060 A 
ATOM     24  C   UNL     1      -4.839   7.588   8.677  0.00  0.00    +0.128 A 
ATOM     25  C   UNL     1      -4.895   7.950  10.010  0.00  0.00    +0.036 A 
ATOM     26  C   UNL     1      -3.881   7.579  10.876  0.00  0.00    +0.050 A 
ATOM     27  C   UNL     1      -2.808   6.843  10.405  0.00  0.00    +0.143 A 
ATOM     28  O   UNL     1      -1.803   6.470  11.242  0.00  0.00    -0.481 OA
ATOM     29  C   UNL     1      -1.169   5.218  10.967  0.00  0.00    +0.325 C 
ATOM     30  C   UNL     1      -0.855   5.122   9.496  0.00  0.00    +0.258 C 
ATOM     31  O   UNL     1       0.114   4.497   9.120  0.00  0.00    -0.271 OA
BRANCH  24  32
ATOM     32  N   UNL     1      -5.928   7.989   7.757  0.00  0.00    +0.056 N 
ATOM     33  O   UNL     1      -6.870   8.637   8.176  0.00  0.00    -0.126 OA
ATOM     34  O   UNL     1      -5.881   7.671   6.582  0.00  0.00    -0.126 OA
ENDBRANCH  24  32
ENDBRANCH  20  21
ENDBRANCH   2  20
TORSDOF 7
