REMARK  Name = ZINC16736468
REMARK  14 active torsions:
REMARK  status: ('A' for Active; 'I' for Inactive)
REMARK    1  A    between atoms: C_1  and  C_2
REMARK    2  A    between atoms: C_2  and  C_3
REMARK    3  A    between atoms: C_2  and  C_4
REMARK    4  A    between atoms: C_2  and  C_5
REMARK    5  A    between atoms: C_7  and  C_16
REMARK    6  A    between atoms: C_9  and  C_12
REMARK    7  A    between atoms: C_10  and  O_11
REMARK    8  A    between atoms: C_12  and  C_13
REMARK    9  A    between atoms: C_12  and  C_14
REMARK   10  A    between atoms: C_12  and  C_15
REMARK   11  A    between atoms: C_24  and  C_26
REMARK   12  A    between atoms: C_29  and  O_32
REMARK   13  A    between atoms: O_32  and  C_33
REMARK   14  A    between atoms: C_33  and  C_34
REMARK                            x       y       z     vdW  Elec       q    Type
REMARK                         _______ _______ _______ _____ _____    ______ ____
ROOT
ATOM      1  C   UNL     1       3.008  -0.987   3.335  0.00  0.00    +0.028 C 
ATOM      2  C   UNL     1       4.027  -0.867   4.226  0.00  0.00    +0.082 A 
ATOM      3  C   UNL     1       5.349  -1.508   4.225  0.00  0.00    +0.288 A 
ATOM      4  O   UNL     1       5.676  -2.277   3.339  0.00  0.00    -0.265 OA
ATOM      5  N   UNL     1       6.183  -1.219   5.233  0.00  0.00    -0.169 N 
ATOM      6  C   UNL     1       5.769  -0.351   6.204  0.00  0.00    +0.200 A 
ATOM      7  S   UNL     1       4.126   0.118   5.713  0.00  0.00    -0.044 S 
ATOM      8  N   UNL     1       6.714  -0.199   7.089  0.00  0.00    -0.200 NA
ATOM      9  C   UNL     1       7.771  -0.949   6.742  0.00  0.00    +0.183 A 
ATOM     10  N   UNL     1       7.500  -1.584   5.628  0.00  0.00    -0.141 NA
ENDROOT
BRANCH   1  13
ATOM     11  C   UNL     1      -0.524   0.198   2.937  0.00  0.00    +0.000 A 
ATOM     12  C   UNL     1       0.701  -0.360   2.651  0.00  0.00    +0.015 A 
ATOM     13  C   UNL     1       1.698  -0.397   3.635  0.00  0.00    -0.023 A 
ATOM     14  C   UNL     1       1.437   0.126   4.908  0.00  0.00    +0.015 A 
ATOM     15  C   UNL     1       0.207   0.678   5.184  0.00  0.00    +0.000 A 
ATOM     16  C   UNL     1      -0.777   0.716   4.202  0.00  0.00    +0.124 A 
BRANCH  11  18
ATOM     17  C   UNL     1      -1.064  -0.386   0.588  0.00  0.00    +0.015 C 
ATOM     18  C   UNL     1      -1.595   0.243   1.877  0.00  0.00    -0.009 C 
ATOM     19  C   UNL     1      -1.988   1.698   1.611  0.00  0.00    +0.015 C 
ATOM     20  C   UNL     1      -2.821  -0.536   2.358  0.00  0.00    +0.015 C 
ENDBRANCH  11  18
BRANCH  15  21
ATOM     21  C   UNL     1      -0.075   1.241   6.553  0.00  0.00    -0.009 C 
ATOM     22  C   UNL     1       1.162   1.076   7.437  0.00  0.00    +0.015 C 
ATOM     23  C   UNL     1      -0.421   2.727   6.432  0.00  0.00    +0.015 C 
ATOM     24  C   UNL     1      -1.253   0.493   7.179  0.00  0.00    +0.015 C 
ENDBRANCH  15  21
BRANCH  16  25
ATOM     25  O   UNL     1      -1.989   1.260   4.480  0.00  0.00    -0.506 OA
ATOM     26  H   UNL     1      -2.635   0.628   4.824  0.00  0.00    +0.292 HD
ENDBRANCH  16  25
ENDBRANCH   1  13
BRANCH   9  27
ATOM     27  C   UNL     1       9.043  -1.043   7.498  0.00  0.00    +0.021 A 
ATOM     28  C   UNL     1      10.070  -1.865   7.036  0.00  0.00    +0.015 A 
ATOM     29  C   UNL     1      11.254  -1.947   7.739  0.00  0.00    +0.046 A 
ATOM     30  C   UNL     1      11.420  -1.220   8.910  0.00  0.00    +0.121 A 
ATOM     31  C   UNL     1      10.397  -0.405   9.375  0.00  0.00    +0.046 A 
ATOM     32  C   UNL     1       9.213  -0.314   8.674  0.00  0.00    +0.015 A 
BRANCH  30  33
ATOM     33  O   UNL     1      12.585  -1.307   9.602  0.00  0.00    -0.488 OA
BRANCH  33  34
ATOM     34  C   UNL     1      13.596  -2.165   9.067  0.00  0.00    +0.256 C 
BRANCH  34  35
ATOM     35  C   UNL     1      14.807  -2.134   9.963  0.00  0.00    +0.006 C 
ATOM     36  C   UNL     1      15.410  -3.251  10.288  0.00  0.00    +0.007 C 
ENDBRANCH  34  35
ENDBRANCH  33  34
ENDBRANCH  30  33
ENDBRANCH   9  27
TORSDOF 8
