REMARK  Name = ZINC12541908
REMARK  12 active torsions:
REMARK  status: ('A' for Active; 'I' for Inactive)
REMARK    1  A    between atoms: C_1  and  C_2
REMARK    2  A    between atoms: C_2  and  N_3
REMARK    3  A    between atoms: C_7  and  C_9
REMARK    4  A    between atoms: C_9  and  C_11
REMARK    5  A    between atoms: C_9  and  O_12
REMARK    6  A    between atoms: O_12  and  C_13
REMARK    7  A    between atoms: C_13  and  C_15
REMARK    8  A    between atoms: C_19  and  S_21
REMARK    9  A    between atoms: S_21  and  N_24
REMARK   10  A    between atoms: N_24  and  C_25
REMARK   11  A    between atoms: N_24  and  C_32
REMARK   12  A    between atoms: C_25  and  C_26
REMARK                            x       y       z     vdW  Elec       q    Type
REMARK                         _______ _______ _______ _____ _____    ______ ____
ROOT
ATOM      1  C   UNL     1      -0.511  -2.129  -2.100  0.00  0.00    +0.061 A 
ATOM      2  C   UNL     1      -0.781  -1.754  -3.418  0.00  0.00    +0.015 A 
ATOM      3  C   UNL     1       0.257  -1.592  -4.312  0.00  0.00    +0.003 A 
ATOM      4  C   UNL     1       1.563  -1.800  -3.906  0.00  0.00    +0.029 A 
ATOM      5  C   UNL     1       1.838  -2.172  -2.602  0.00  0.00    +0.110 A 
ATOM      6  C   UNL     1       0.809  -2.343  -1.699  0.00  0.00    +0.043 A 
ENDROOT
BRANCH   5   7
ATOM      7  S   UNL     1       3.505  -2.435  -2.096  0.00  0.00    +0.075 S 
ATOM      8  O   UNL     1       4.251  -2.698  -3.276  0.00  0.00    -0.150 OA
ATOM      9  O   UNL     1       3.459  -3.345  -1.005  0.00  0.00    -0.150 OA
BRANCH   7  10
ATOM     10  N   UNL     1       4.065  -0.999  -1.491  0.00  0.00    -0.199 N 
BRANCH  10  11
ATOM     11  C   UNL     1       4.748  -0.110  -2.324  0.00  0.00    +0.052 A 
ATOM     12  C   UNL     1       4.501  -0.108  -3.691  0.00  0.00    +0.025 A 
ATOM     13  C   UNL     1       5.174   0.777  -4.511  0.00  0.00    +0.002 A 
ATOM     14  C   UNL     1       6.100   1.653  -3.974  0.00  0.00    +0.000 A 
ATOM     15  C   UNL     1       6.351   1.650  -2.614  0.00  0.00    +0.002 A 
ATOM     16  C   UNL     1       5.678   0.772  -1.788  0.00  0.00    +0.025 A 
ENDBRANCH  10  11
BRANCH  10  17
ATOM     17  C   UNL     1       3.846  -0.662  -0.083  0.00  0.00    +0.166 C 
BRANCH  17  18
ATOM     18  C   UNL     1       2.665   0.268   0.033  0.00  0.00    -0.028 A 
ATOM     19  C   UNL     1       1.415  -0.237   0.335  0.00  0.00    +0.005 A 
ATOM     20  C   UNL     1       0.332   0.616   0.442  0.00  0.00    +0.000 A 
ATOM     21  C   UNL     1       0.500   1.974   0.246  0.00  0.00    +0.000 A 
ATOM     22  C   UNL     1       1.751   2.479  -0.056  0.00  0.00    +0.000 A 
ATOM     23  C   UNL     1       2.834   1.626  -0.162  0.00  0.00    +0.005 A 
ENDBRANCH  17  18
ENDBRANCH  10  17
ENDBRANCH   7  10
ENDBRANCH   5   7
BRANCH   1  24
ATOM     24  C   UNL     1      -1.617  -2.304  -1.137  0.00  0.00    +0.340 C 
ATOM     25  O   UNL     1      -1.379  -2.631   0.008  0.00  0.00    -0.245 OA
BRANCH  24  26
ATOM     26  O   UNL     1      -2.890  -2.103  -1.530  0.00  0.00    -0.449 OA
BRANCH  26  27
ATOM     27  C   UNL     1      -3.926  -2.294  -0.530  0.00  0.00    +0.259 C 
ATOM     28  C   UNL     1      -4.395  -3.750  -0.553  0.00  0.00    +0.062 C 
BRANCH  27  33
ATOM     29  N   UNL     1      -8.214  -0.437   0.601  0.00  0.00    -0.299 N 
ATOM     30  C   UNL     1      -7.173  -0.506  -0.252  0.00  0.00    +0.306 C 
ATOM     31  O   UNL     1      -7.173   0.164  -1.266  0.00  0.00    -0.252 OA
ATOM     32  N   UNL     1      -6.131  -1.317   0.020  0.00  0.00    -0.237 N 
ATOM     33  C   UNL     1      -5.090  -1.386  -0.834  0.00  0.00    +0.261 C 
ATOM     34  O   UNL     1      -5.091  -0.719  -1.845  0.00  0.00    -0.271 OA
ATOM     35  H   UNL     1      -8.213  -0.971   1.411  0.00  0.00    +0.150 HD
ATOM     36  H   UNL     1      -6.131  -1.852   0.829  0.00  0.00    +0.159 HD
BRANCH  29  38
ATOM     37  C   UNL     1     -10.383   0.336   1.426  0.00  0.00    +0.024 C 
ATOM     38  C   UNL     1      -9.345   0.445   0.306  0.00  0.00    +0.102 C 
ENDBRANCH  29  38
ENDBRANCH  27  33
ENDBRANCH  26  27
ENDBRANCH  24  26
ENDBRANCH   1  24
TORSDOF 10
