REMARK  Name = ZINC64871042
REMARK  7 active torsions:
REMARK  status: ('A' for Active; 'I' for Inactive)
REMARK    1  A    between atoms: C_1  and  C_2
REMARK    2  A    between atoms: C_2  and  O_3
REMARK    3  A    between atoms: O_3  and  C_4
REMARK    4  A    between atoms: C_7  and  C_10
REMARK    5  A    between atoms: C_13  and  C_17
REMARK    6  A    between atoms: N_27  and  C_30
REMARK    7  A    between atoms: C_30  and  C_31
REMARK                            x       y       z     vdW  Elec       q    Type
REMARK                         _______ _______ _______ _____ _____    ______ ____
ROOT
ATOM      1  C   UNL     1      -3.777  -8.215  -2.390  0.00  0.00    -0.000 A 
ATOM      2  C   UNL     1      -4.153  -7.224  -3.284  0.00  0.00    +0.008 A 
ATOM      3  C   UNL     1      -4.917  -7.534  -4.389  0.00  0.00    +0.016 A 
ATOM      4  C   UNL     1      -5.309  -8.853  -4.604  0.00  0.00    +0.063 A 
ATOM      5  C   UNL     1      -4.927  -9.857  -3.698  0.00  0.00    +0.056 A 
ATOM      6  C   UNL     1      -4.154  -9.528  -2.595  0.00  0.00    +0.034 A 
ATOM      7  N   UNL     1      -5.332 -11.162  -3.938  0.00  0.00    -0.307 N 
ATOM      8  H   UNL     1      -5.076 -11.866  -3.321  0.00  0.00    +0.170 HD
ATOM      9  C   UNL     1      -6.075 -11.462  -5.017  0.00  0.00    +0.330 A 
ATOM     10  O   UNL     1      -6.410 -12.617  -5.191  0.00  0.00    -0.246 OA
ATOM     11  N   UNL     1      -6.465 -10.539  -5.910  0.00  0.00    -0.256 N 
ATOM     12  C   UNL     1      -6.125  -9.239  -5.770  0.00  0.00    +0.265 A 
ATOM     13  O   UNL     1      -6.482  -8.410  -6.584  0.00  0.00    -0.267 OA
ENDROOT
BRANCH   1  16
ATOM     14  C   UNL     1      -2.001  -6.092  -0.011  0.00  0.00    +0.180 C 
ATOM     15  N   UNL     1      -3.237  -6.470  -0.748  0.00  0.00    -0.265 NA
ATOM     16  C   UNL     1      -2.942  -7.858  -1.187  0.00  0.00    +0.242 C 
ATOM     17  O   UNL     1      -1.544  -7.847  -1.530  0.00  0.00    -0.274 OA
ATOM     18  N   UNL     1      -0.917  -6.742  -0.785  0.00  0.00    -0.177 NA
ATOM     19  H   UNL     1      -4.042  -6.446  -0.139  0.00  0.00    +0.127 HD
ATOM     20  H   UNL     1      -0.479  -6.086  -1.414  0.00  0.00    +0.156 HD
BRANCH  14  24
ATOM     21  C   UNL     1      -1.498  -1.848   0.006  0.00  0.00    +0.121 A 
ATOM     22  C   UNL     1      -0.388  -2.679  -0.003  0.00  0.00    +0.046 A 
ATOM     23  C   UNL     1      -0.553  -4.051  -0.008  0.00  0.00    +0.010 A 
ATOM     24  C   UNL     1      -1.823  -4.596  -0.005  0.00  0.00    -0.014 A 
ATOM     25  C   UNL     1      -2.932  -3.769   0.004  0.00  0.00    +0.010 A 
ATOM     26  C   UNL     1      -2.772  -2.397   0.016  0.00  0.00    +0.046 A 
BRANCH  21  27
ATOM     27  O   UNL     1      -1.339  -0.499   0.012  0.00  0.00    -0.492 OA
BRANCH  27  29
ATOM     28  C   UNL     1      -0.019   1.526   0.010  0.00  0.00    +0.048 C 
ATOM     29  C   UNL     1       0.002  -0.004   0.002  0.00  0.00    +0.225 C 
ENDBRANCH  27  29
ENDBRANCH  21  27
ENDBRANCH  14  24
ENDBRANCH   1  16
BRANCH  11  30
ATOM     30  C   UNL     1      -7.276 -10.949  -7.060  0.00  0.00    +0.165 C 
BRANCH  30  31
ATOM     31  C   UNL     1      -8.737 -10.861  -6.701  0.00  0.00    -0.024 A 
ATOM     32  C   UNL     1      -9.378 -11.953  -6.146  0.00  0.00    +0.009 A 
ATOM     33  C   UNL     1     -10.718 -11.877  -5.815  0.00  0.00    +0.050 A 
ATOM     34  C   UNL     1     -11.422 -10.705  -6.040  0.00  0.00    +0.166 A 
ATOM     35  C   UNL     1     -10.776  -9.605  -6.600  0.00  0.00    +0.167 A 
ATOM     36  C   UNL     1      -9.432  -9.687  -6.923  0.00  0.00    +0.055 A 
ATOM     37  O   UNL     1     -11.676  -8.585  -6.719  0.00  0.00    -0.453 OA
ATOM     38  C   UNL     1     -12.973  -9.201  -6.607  0.00  0.00    +0.466 C 
ATOM     39  O   UNL     1     -12.726 -10.374  -5.809  0.00  0.00    -0.453 OA
ENDBRANCH  30  31
ENDBRANCH  11  30
TORSDOF 6
