REMARK  Name = ZINC39695462
REMARK  6 active torsions:
REMARK  status: ('A' for Active; 'I' for Inactive)
REMARK    1  A    between atoms: C_1  and  C_2
REMARK    2  A    between atoms: C_2  and  N_3
REMARK    3  A    between atoms: C_7  and  C_9
REMARK    4  A    between atoms: C_9  and  N_10
REMARK    5  A    between atoms: C_11  and  C_13
REMARK    6  A    between atoms: C_24  and  C_26
REMARK                            x       y       z     vdW  Elec       q    Type
REMARK                         _______ _______ _______ _____ _____    ______ ____
ROOT
ATOM      1  C   UNL     1       5.011  -1.424  -1.154  0.00  0.00    +0.100 C 
ATOM      2  C   UNL     1       4.638  -1.877  -2.583  0.00  0.00    +0.121 C 
ATOM      3  N   UNL     1       5.904  -1.788  -3.347  0.00  0.00    -0.296 N 
ATOM      4  C   UNL     1       6.940  -2.272  -2.402  0.00  0.00    +0.115 C 
ATOM      5  C   UNL     1       6.522  -1.685  -1.038  0.00  0.00    -0.004 C 
ATOM      6  C   UNL     1       6.802  -2.690   0.075  0.00  0.00    -0.010 C 
ATOM      7  C   UNL     1       8.314  -2.889   0.209  0.00  0.00    -0.082 C 
ATOM      8  N   UNL     1       8.954  -1.603   0.511  0.00  0.00    +0.379 N 
ATOM      9  C   UNL     1       8.759  -0.672  -0.607  0.00  0.00    -0.082 C 
ATOM     10  C   UNL     1       7.266  -0.380  -0.775  0.00  0.00    -0.010 C 
ATOM     11  C   UNL     1       6.077  -1.363  -4.614  0.00  0.00    +0.247 C 
ATOM     12  O   UNL     1       7.173  -1.432  -5.135  0.00  0.00    -0.270 OA
ATOM     13  H   UNL     1       8.545  -1.214   1.347  0.00  0.00    -0.086 HD
ATOM     14  H   UNL     1       9.942  -1.747   0.659  0.00  0.00    -0.086 HD
ENDROOT
BRANCH  11  15
ATOM     15  C   UNL     1       4.933  -0.814  -5.371  0.00  0.00    +0.045 A 
ATOM     16  C   UNL     1       3.725  -1.519  -5.429  0.00  0.00    +0.014 A 
ATOM     17  C   UNL     1       2.657  -1.009  -6.134  0.00  0.00    +0.001 A 
ATOM     18  C   UNL     1       2.765   0.207  -6.792  0.00  0.00    +0.012 A 
ATOM     19  C   UNL     1       3.956   0.923  -6.746  0.00  0.00    +0.031 A 
ATOM     20  C   UNL     1       5.051   0.418  -6.027  0.00  0.00    +0.006 A 
ATOM     21  C   UNL     1       6.178   1.378  -6.139  0.00  0.00    -0.006 A 
ATOM     22  C   UNL     1       7.468   1.355  -5.627  0.00  0.00    +0.009 A 
ATOM     23  C   UNL     1       8.336   2.404  -5.888  0.00  0.00    +0.001 A 
ATOM     24  C   UNL     1       7.927   3.476  -6.657  0.00  0.00    +0.001 A 
ATOM     25  C   UNL     1       6.643   3.513  -7.176  0.00  0.00    +0.012 A 
ATOM     26  C   UNL     1       5.763   2.469  -6.921  0.00  0.00    +0.030 A 
ATOM     27  C   UNL     1       4.361   2.220  -7.338  0.00  0.00    +0.194 C 
ATOM     28  O   UNL     1       3.672   2.948  -8.023  0.00  0.00    -0.287 OA
ENDBRANCH  11  15
BRANCH   1  30
ATOM     29  N   UNL     1       4.073  -1.752   1.112  0.00  0.00    -0.317 N 
ATOM     30  C   UNL     1       4.259  -2.237  -0.132  0.00  0.00    +0.218 C 
ATOM     31  O   UNL     1       3.821  -3.329  -0.429  0.00  0.00    -0.275 OA
ATOM     32  H   UNL     1       4.424  -0.879   1.349  0.00  0.00    +0.149 HD
BRANCH  29  33
ATOM     33  C   UNL     1       3.342  -2.542   2.105  0.00  0.00    +0.089 C 
BRANCH  33  38
ATOM     34  N   UNL     1       4.632  -1.398   3.859  0.00  0.00    +0.382 N 
ATOM     35  C   UNL     1       4.899  -2.040   5.163  0.00  0.00    -0.078 C 
ATOM     36  C   UNL     1       3.498  -2.283   5.779  0.00  0.00    -0.020 C 
ATOM     37  C   UNL     1       2.667  -2.661   4.525  0.00  0.00    -0.016 C 
ATOM     38  C   UNL     1       3.273  -1.768   3.423  0.00  0.00    -0.051 C 
ATOM     39  H   UNL     1       5.306  -1.720   3.180  0.00  0.00    -0.081 HD
BRANCH  34  41
ATOM     40  C   UNL     1       6.170   0.449   4.327  0.00  0.00    -0.017 C 
ATOM     41  C   UNL     1       4.727   0.061   3.997  0.00  0.00    -0.082 C 
ENDBRANCH  34  41
ENDBRANCH  33  38
ENDBRANCH  29  33
ENDBRANCH   1  30
TORSDOF 5
