REMARK  Name = ZINC03822703
REMARK  15 active torsions:
REMARK  status: ('A' for Active; 'I' for Inactive)
REMARK    1  A    between atoms: C_1  and  C_2
REMARK    2  A    between atoms: C_2  and  O_3
REMARK    3  A    between atoms: O_3  and  C_4
REMARK    4  A    between atoms: C_4  and  C_5
REMARK    5  A    between atoms: C_5  and  N_6
REMARK    6  A    between atoms: C_14  and  C_15
REMARK    7  A    between atoms: C_20  and  C_21
REMARK    8  A    between atoms: C_20  and  N_82
REMARK    9  A    between atoms: C_21  and  C_22
REMARK   10  A    between atoms: C_25  and  C_28
REMARK   11  A    between atoms: C_28  and  C_29
REMARK   12  A    between atoms: C_28  and  C_30
REMARK   13  A    between atoms: C_28  and  C_31
REMARK   14  A    between atoms: C_33  and  C_36
REMARK   15  A    between atoms: C_33  and  C_37
REMARK                            x       y       z     vdW  Elec       q    Type
REMARK                         _______ _______ _______ _____ _____    ______ ____
ROOT
ATOM      1  C   UNL     1      -4.809   2.526   0.063  0.00  0.00    +0.052 C 
ATOM      2  C   UNL     1      -5.318   3.267  -1.177  0.00  0.00    -0.008 C 
ATOM      3  C   UNL     1      -6.846   3.349  -1.124  0.00  0.00    -0.078 C 
ATOM      4  C   UNL     1      -6.821   3.337   1.299  0.00  0.00    -0.078 C 
ATOM      5  C   UNL     1      -5.293   3.255   1.319  0.00  0.00    -0.008 C 
ATOM      6  N   UNL     1      -7.246   4.083   0.095  0.00  0.00    +0.380 N 
ATOM      7  H   UNL     1      -6.790   5.002   0.096  0.00  0.00    -0.082 HD
ENDROOT
BRANCH   1  16
ATOM      8  N   UNL     1      -2.546   1.365   0.035  0.00  0.00    -0.325 N 
ATOM      9  C   UNL     1      -1.222   1.757   0.017  0.00  0.00    +0.069 A 
ATOM     10  C   UNL     1      -0.013   1.076   0.008  0.00  0.00    +0.028 A 
ATOM     11  C   UNL     1       1.170   1.784   0.001  0.00  0.00    +0.002 A 
ATOM     12  C   UNL     1       1.158   3.172   0.007  0.00  0.00    +0.002 A 
ATOM     13  C   UNL     1      -0.022   3.859   0.022  0.00  0.00    +0.030 A 
ATOM     14  C   UNL     1      -1.234   3.162   0.030  0.00  0.00    +0.089 A 
ATOM     15  N   UNL     1      -2.536   3.547   0.045  0.00  0.00    -0.232 NA
ATOM     16  C   UNL     1      -3.303   2.496   0.048  0.00  0.00    +0.114 A 
BRANCH   8  17
ATOM     17  C   UNL     1      -3.044  -0.013   0.033  0.00  0.00    +0.151 C 
BRANCH  17  18
ATOM     18  C   UNL     1      -3.232  -0.485  -1.410  0.00  0.00    +0.181 C 
BRANCH  18  19
ATOM     19  O   UNL     1      -3.718  -1.829  -1.411  0.00  0.00    -0.378 OA
BRANCH  19  21
ATOM     20  C   UNL     1      -4.446  -3.805  -2.598  0.00  0.00    +0.034 C 
ATOM     21  C   UNL     1      -3.929  -2.370  -2.717  0.00  0.00    +0.156 C 
ENDBRANCH  19  21
ENDBRANCH  18  19
ENDBRANCH  17  18
ENDBRANCH   8  17
ENDBRANCH   1  16
BRANCH   6  22
ATOM     22  C   UNL     1      -8.711   4.274   0.111  0.00  0.00    -0.074 C 
BRANCH  22  23
ATOM     23  C   UNL     1      -9.095   5.231  -1.018  0.00  0.00    +0.016 C 
BRANCH  23  24
ATOM     24  C   UNL     1     -10.585   5.456  -1.002  0.00  0.00    -0.049 A 
ATOM     25  C   UNL     1     -11.416   4.631  -1.738  0.00  0.00    +0.004 A 
ATOM     26  C   UNL     1     -12.783   4.835  -1.720  0.00  0.00    +0.005 A 
ATOM     27  C   UNL     1     -13.319   5.867  -0.973  0.00  0.00    -0.033 A 
ATOM     28  C   UNL     1     -12.488   6.694  -0.241  0.00  0.00    +0.005 A 
ATOM     29  C   UNL     1     -11.121   6.489  -0.256  0.00  0.00    +0.004 A 
BRANCH  27  30
ATOM     30  C   UNL     1     -14.809   6.091  -0.957  0.00  0.00    +0.065 C 
ATOM     31  C   UNL     1     -15.328   5.962   0.477  0.00  0.00    +0.026 C 
ATOM     32  C   UNL     1     -15.121   7.491  -1.488  0.00  0.00    +0.026 C 
BRANCH  30  33
ATOM     33  C   UNL     1     -15.481   5.061  -1.828  0.00  0.00    +0.196 C 
ATOM     34  N   UNL     1     -16.349   4.224  -1.380  0.00  0.00    -0.244 NA
ATOM     35  C   UNL     1     -16.808   3.378  -2.499  0.00  0.00    +0.093 C 
ATOM     36  C   UNL     1     -16.297   4.170  -3.729  0.00  0.00    +0.260 C 
ATOM     37  O   UNL     1     -15.223   4.935  -3.143  0.00  0.00    -0.477 OA
ATOM     38  C   UNL     1     -18.333   3.267  -2.516  0.00  0.00    +0.039 C 
ATOM     39  C   UNL     1     -16.161   1.994  -2.433  0.00  0.00    +0.039 C 
ENDBRANCH  30  33
ENDBRANCH  27  30
ENDBRANCH  23  24
ENDBRANCH  22  23
ENDBRANCH   6  22
TORSDOF 10
