REMARK  Name = ZINC22685114
REMARK  4 active torsions:
REMARK  status: ('A' for Active; 'I' for Inactive)
REMARK    1  A    between atoms: C_4  and  C_7
REMARK    2  A    between atoms: C_11  and  C_12
REMARK    3  A    between atoms: N_14  and  N_15
REMARK    4  A    between atoms: C_16  and  C_18
REMARK                            x       y       z     vdW  Elec       q    Type
REMARK                         _______ _______ _______ _____ _____    ______ ____
ROOT
ATOM      1  C   UNL     1      -1.187   1.624   0.017  0.00  0.00    +0.296 C 
ATOM      2  O   UNL     1      -1.204   2.841   0.023  0.00  0.00    -0.265 OA
ATOM      3  N   UNL     1      -0.011   0.966   0.007  0.00  0.00    -0.228 N 
ATOM      4  H   UNL     1       0.004  -0.134   0.006  0.00  0.00    +0.173 HD
ENDROOT
BRANCH   1   9
ATOM      5  C   UNL     1      -3.722   1.418   0.033  0.00  0.00    +0.032 A 
ATOM      6  C   UNL     1      -4.616   0.322   0.025  0.00  0.00    +0.050 A 
ATOM      7  C   UNL     1      -3.869  -0.799   0.016  0.00  0.00    +0.196 A 
ATOM      8  O   UNL     1      -2.572  -0.469   0.012  0.00  0.00    -0.458 OA
ATOM      9  C   UNL     1      -2.445   0.875   0.018  0.00  0.00    +0.198 A 
BRANCH   5  13
ATOM     10  C   UNL     1      -4.740   5.544   0.081  0.00  0.00    +0.000 A 
ATOM     11  C   UNL     1      -5.330   4.700  -0.843  0.00  0.00    +0.001 A 
ATOM     12  C   UNL     1      -5.004   3.359  -0.863  0.00  0.00    +0.008 A 
ATOM     13  C   UNL     1      -4.077   2.856   0.050  0.00  0.00    -0.014 A 
ATOM     14  C   UNL     1      -3.489   3.712   0.981  0.00  0.00    +0.008 A 
ATOM     15  C   UNL     1      -3.820   5.051   0.988  0.00  0.00    +0.001 A 
ENDBRANCH   5  13
ENDBRANCH   1   9
BRANCH   3  16
ATOM     16  N   UNL     1       1.193   1.683  -0.000  0.00  0.00    -0.231 N 
ATOM     17  C   UNL     1       2.369   1.025  -0.015  0.00  0.00    +0.273 C 
ATOM     18  O   UNL     1       2.385  -0.188  -0.022  0.00  0.00    -0.270 OA
ATOM     19  H   UNL     1       1.178   2.783   0.006  0.00  0.00    +0.173 HD
BRANCH  17  20
ATOM     20  C   UNL     1       3.663   1.796  -0.023  0.00  0.00    +0.297 C 
ATOM     21  C   UNL     1       3.822   2.555   1.301  0.00  0.00    +0.283 C 
ATOM     22  O   UNL     1       5.066   3.264   1.265  0.00  0.00    -0.484 OA
ATOM     23  C   UNL     1       6.152   2.571   0.828  0.00  0.00    +0.162 A 
ATOM     24  C   UNL     1       7.423   3.057   1.098  0.00  0.00    +0.049 A 
ATOM     25  C   UNL     1       8.536   2.366   0.658  0.00  0.00    +0.004 A 
ATOM     26  C   UNL     1       8.386   1.189  -0.052  0.00  0.00    +0.004 A 
ATOM     27  C   UNL     1       7.123   0.699  -0.324  0.00  0.00    +0.049 A 
ATOM     28  C   UNL     1       6.002   1.387   0.116  0.00  0.00    +0.163 A 
ATOM     29  O   UNL     1       4.764   0.890  -0.156  0.00  0.00    -0.472 OA
ENDBRANCH  17  20
ENDBRANCH   3  16
TORSDOF 4
