REMARK  Name = ZINC20131711
REMARK  9 active torsions:
REMARK  status: ('A' for Active; 'I' for Inactive)
REMARK    1  A    between atoms: C_1  and  C_2
REMARK    2  A    between atoms: C_5  and  S_9
REMARK    3  A    between atoms: C_7  and  C_8
REMARK    4  A    between atoms: S_9  and  N_12
REMARK    5  A    between atoms: N_12  and  N_13
REMARK    6  A    between atoms: C_15  and  C_24
REMARK    7  A    between atoms: C_26  and  C_29
REMARK    8  A    between atoms: C_32  and  O_35
REMARK    9  A    between atoms: O_35  and  C_36
REMARK                            x       y       z     vdW  Elec       q    Type
REMARK                         _______ _______ _______ _____ _____    ______ ____
ROOT
ATOM      1  N   UNL     1       2.404   1.438   0.578  0.00  0.00    -0.260 N 
ATOM      2  C   UNL     1       2.685   0.266   0.082  0.00  0.00    +0.225 A 
ATOM      3  C   UNL     1       3.804   0.089  -0.871  0.00  0.00    +0.101 A 
ATOM      4  C   UNL     1       4.397  -1.149  -0.921  0.00  0.00    +0.030 A 
ATOM      5  C   UNL     1       3.874  -2.191  -0.027  0.00  0.00    +0.018 A 
ATOM      6  C   UNL     1       4.583  -3.378   0.176  0.00  0.00    +0.011 A 
ATOM      7  C   UNL     1       4.074  -4.340   1.022  0.00  0.00    +0.001 A 
ATOM      8  C   UNL     1       2.866  -4.135   1.669  0.00  0.00    +0.004 A 
ATOM      9  C   UNL     1       2.154  -2.965   1.476  0.00  0.00    +0.047 A 
ATOM     10  C   UNL     1       2.648  -1.987   0.629  0.00  0.00    +0.137 A 
ATOM     11  O   UNL     1       1.961  -0.837   0.429  0.00  0.00    -0.437 OA
ATOM     12  H   UNL     1       2.932   2.331   0.212  0.00  0.00    +0.189 HD
ENDROOT
BRANCH   3  13
ATOM     13  C   UNL     1       4.262   1.194  -1.731  0.00  0.00    +0.264 A 
ATOM     14  N   UNL     1       3.499   2.070  -2.361  0.00  0.00    -0.187 NA
ATOM     15  C   UNL     1       4.351   2.886  -3.016  0.00  0.00    +0.202 A 
ATOM     16  N   UNL     1       5.566   2.467  -2.763  0.00  0.00    -0.056 NA
ATOM     17  O   UNL     1       5.535   1.502  -2.030  0.00  0.00    -0.332 OA
BRANCH  15  18
ATOM     18  C   UNL     1       3.981   4.040  -3.871  0.00  0.00    +0.023 A 
ATOM     19  C   UNL     1       2.641   4.289  -4.166  0.00  0.00    +0.015 A 
ATOM     20  C   UNL     1       2.299   5.365  -4.957  0.00  0.00    +0.046 A 
ATOM     21  C   UNL     1       3.288   6.194  -5.469  0.00  0.00    +0.120 A 
ATOM     22  C   UNL     1       4.624   5.946  -5.181  0.00  0.00    +0.046 A 
ATOM     23  C   UNL     1       4.971   4.874  -4.386  0.00  0.00    +0.015 A 
BRANCH  21  24
ATOM     24  O   UNL     1       2.949   7.250  -6.253  0.00  0.00    -0.495 OA
ATOM     25  C   UNL     1       1.557   7.447  -6.509  0.00  0.00    +0.277 C 
ENDBRANCH  21  24
ENDBRANCH  15  18
ENDBRANCH   3  13
BRANCH   1  26
ATOM     26  N   UNL     1       1.430   1.560   1.577  0.00  0.00    -0.157 N 
ATOM     27  H   UNL     1       0.969   0.772   1.904  0.00  0.00    +0.194 HD
BRANCH  26  28
ATOM     28  S   UNL     1       1.060   3.052   2.196  0.00  0.00    +0.085 S 
ATOM     29  O   UNL     1      -0.003   2.857   3.117  0.00  0.00    -0.149 OA
ATOM     30  O   UNL     1       2.293   3.652   2.570  0.00  0.00    -0.149 OA
BRANCH  28  35
ATOM     31  C   UNL     1      -1.165   6.361  -2.333  0.00  0.00    +0.044 C 
ATOM     32  C   UNL     1      -0.609   5.534  -1.202  0.00  0.00    -0.047 A 
ATOM     33  C   UNL     1      -1.422   4.634  -0.539  0.00  0.00    +0.005 A 
ATOM     34  C   UNL     1      -0.913   3.876   0.499  0.00  0.00    +0.029 A 
ATOM     35  C   UNL     1       0.411   4.018   0.873  0.00  0.00    +0.110 A 
ATOM     36  C   UNL     1       1.222   4.921   0.213  0.00  0.00    +0.032 A 
ATOM     37  C   UNL     1       0.714   5.676  -0.827  0.00  0.00    -0.046 A 
ATOM     38  C   UNL     1       1.600   6.658  -1.549  0.00  0.00    +0.044 C 
ENDBRANCH  28  35
ENDBRANCH  26  28
ENDBRANCH   1  26
TORSDOF 6
