REMARK  Name = ZINC63375251
REMARK  9 active torsions:
REMARK  status: ('A' for Active; 'I' for Inactive)
REMARK    1  A    between atoms: C_1  and  C_2
REMARK    2  A    between atoms: C_2  and  O_3
REMARK    3  A    between atoms: O_3  and  C_4
REMARK    4  A    between atoms: C_4  and  C_6
REMARK    5  A    between atoms: C_9  and  N_12
REMARK    6  A    between atoms: C_28  and  C_33
REMARK    7  A    between atoms: C_36  and  C_39
REMARK    8  A    between atoms: C_39  and  C_40
REMARK    9  A    between atoms: C_39  and  C_41
REMARK                            x       y       z     vdW  Elec       q    Type
REMARK                         _______ _______ _______ _____ _____    ______ ____
ROOT
ATOM      1  N   UNL     1       3.481  -3.958   5.784  0.00  0.00    -0.193 N 
ATOM      2  C   UNL     1       3.564  -5.277   6.058  0.00  0.00    +0.248 C 
ATOM      3  O   UNL     1       3.070  -6.188   5.428  0.00  0.00    -0.273 OA
ATOM      4  C   UNL     1       4.401  -5.383   7.314  0.00  0.00    +0.169 C 
ATOM      5  C   UNL     1       3.592  -6.074   8.425  0.00  0.00    +0.065 C 
ATOM      6  C   UNL     1       4.186  -5.617   9.736  0.00  0.00    -0.034 C 
ATOM      7  C   UNL     1       3.778  -5.807  10.986  0.00  0.00    -0.001 A 
ATOM      8  C   UNL     1       2.669  -6.598  11.543  0.00  0.00    +0.010 A 
ATOM      9  C   UNL     1       2.524  -6.558  12.893  0.00  0.00    +0.001 A 
ATOM     10  C   UNL     1       3.362  -5.820  13.735  0.00  0.00    +0.002 A 
ATOM     11  C   UNL     1       4.410  -5.071  13.310  0.00  0.00    +0.026 A 
ATOM     12  C   UNL     1       4.667  -5.038  11.908  0.00  0.00    +0.043 A 
ATOM     13  N   UNL     1       5.599  -4.428  11.238  0.00  0.00    -0.375 N 
ATOM     14  C   UNL     1       5.453  -4.774   9.822  0.00  0.00    +0.131 C 
ATOM     15  C   UNL     1       5.224  -3.526   8.959  0.00  0.00    +0.135 C 
ATOM     16  N   UNL     1       4.623  -3.972   7.691  0.00  0.00    -0.264 N 
ATOM     17  C   UNL     1       4.118  -3.221   6.704  0.00  0.00    +0.317 C 
ATOM     18  O   UNL     1       4.222  -2.012   6.650  0.00  0.00    -0.252 OA
ATOM     19  H   UNL     1       6.276  -3.843  11.612  0.00  0.00    +0.160 HD
ENDROOT
BRANCH   1  23
ATOM     20  C   UNL     1       1.501  -2.373   2.475  0.00  0.00    +0.059 A 
ATOM     21  C   UNL     1       2.028  -1.522   3.451  0.00  0.00    +0.017 A 
ATOM     22  C   UNL     1       2.681  -2.049   4.542  0.00  0.00    +0.025 A 
ATOM     23  C   UNL     1       2.817  -3.427   4.675  0.00  0.00    +0.045 A 
ATOM     24  C   UNL     1       2.295  -4.277   3.706  0.00  0.00    +0.025 A 
ATOM     25  C   UNL     1       1.635  -3.758   2.615  0.00  0.00    +0.017 A 
BRANCH  20  26
ATOM     26  C   UNL     1       0.801  -1.813   1.304  0.00  0.00    +0.339 C 
ATOM     27  O   UNL     1       0.340  -2.554   0.460  0.00  0.00    -0.245 OA
BRANCH  26  28
ATOM     28  O   UNL     1       0.673  -0.478   1.172  0.00  0.00    -0.461 OA
BRANCH  28  30
ATOM     29  C   UNL     1      -0.062   1.525   0.036  0.00  0.00    +0.048 C 
ATOM     30  C   UNL     1      -0.017  -0.005   0.013  0.00  0.00    +0.229 C 
ENDBRANCH  28  30
ENDBRANCH  26  28
ENDBRANCH  20  26
ENDBRANCH   1  23
BRANCH  15  31
ATOM     31  C   UNL     1       6.541  -2.853   8.671  0.00  0.00    -0.025 A 
ATOM     32  C   UNL     1       7.361  -3.339   7.670  0.00  0.00    +0.006 A 
ATOM     33  C   UNL     1       8.569  -2.722   7.405  0.00  0.00    +0.004 A 
ATOM     34  C   UNL     1       8.957  -1.618   8.141  0.00  0.00    -0.045 A 
ATOM     35  C   UNL     1       8.137  -1.131   9.141  0.00  0.00    +0.004 A 
ATOM     36  C   UNL     1       6.926  -1.746   9.403  0.00  0.00    +0.006 A 
BRANCH  34  37
ATOM     37  C   UNL     1      10.275  -0.946   7.854  0.00  0.00    +0.013 C 
ATOM     38  C   UNL     1      10.028   0.510   7.452  0.00  0.00    +0.012 C 
ATOM     39  C   UNL     1      11.153  -0.987   9.106  0.00  0.00    +0.012 C 
ENDBRANCH  34  37
ENDBRANCH  15  31
TORSDOF 6
