REMARK  Name = ZINC59459997
REMARK  5 active torsions:
REMARK  status: ('A' for Active; 'I' for Inactive)
REMARK    1  A    between atoms: C_3  and  C_9
REMARK    2  A    between atoms: C_4  and  O_8
REMARK    3  A    between atoms: C_5  and  O_7
REMARK    4  A    between atoms: N_10  and  C_11
REMARK    5  A    between atoms: C_12  and  C_20
REMARK                            x       y       z     vdW  Elec       q    Type
REMARK                         _______ _______ _______ _____ _____    ______ ____
ROOT
ATOM      1  C   UNL     1       3.648   2.171  -0.022  0.00  0.00    +0.123 C 
ATOM      2  N   UNL     1       4.791   1.536  -0.036  0.00  0.00    -0.246 NA
ENDROOT
BRANCH   2   3
ATOM      3  C   UNL     1       5.949   2.230  -0.044  0.00  0.00    +0.119 A 
ATOM      4  C   UNL     1       7.264   1.752  -0.065  0.00  0.00    +0.088 A 
ATOM      5  C   UNL     1       8.318   2.683  -0.069  0.00  0.00    -0.018 A 
ATOM      6  C   UNL     1       7.977   3.996  -0.051  0.00  0.00    -0.004 A 
ATOM      7  S   UNL     1       6.204   3.997  -0.038  0.00  0.00    -0.073 S 
ATOM      8  C   UNL     1       8.899   5.175  -0.050  0.00  0.00    +0.043 C 
ATOM      9  C   UNL     1      10.311   4.685   0.301  0.00  0.00    +0.005 C 
ATOM     10  C   UNL     1      10.630   3.455  -0.554  0.00  0.00    +0.005 C 
ATOM     11  C   UNL     1       9.787   2.266  -0.092  0.00  0.00    +0.037 C 
BRANCH   4  12
ATOM     12  C   UNL     1       7.531   0.345  -0.081  0.00  0.00    +0.102 C 
ATOM     13  N   UNL     1       7.743  -0.771  -0.094  0.00  0.00    -0.191 NA
ENDBRANCH   4  12
ENDBRANCH   2   3
BRANCH   1  16
ATOM     14  C   UNL     1      -0.017   1.381   0.010  0.00  0.00    +0.004 A 
ATOM     15  C   UNL     1       1.162   2.093   0.002  0.00  0.00    +0.013 A 
ATOM     16  C   UNL     1       2.388   1.417  -0.013  0.00  0.00    +0.038 A 
ATOM     17  C   UNL     1       2.406   0.014  -0.021  0.00  0.00    +0.167 A 
ATOM     18  C   UNL     1       1.207  -0.689  -0.013  0.00  0.00    +0.159 A 
ATOM     19  C   UNL     1       0.002  -0.004   0.002  0.00  0.00    +0.049 A 
BRANCH  18  20
ATOM     20  O   UNL     1       1.216  -2.049  -0.021  0.00  0.00    -0.503 OA
ATOM     21  H   UNL     1       1.227  -2.447   0.861  0.00  0.00    +0.292 HD
ENDBRANCH  18  20
BRANCH  17  22
ATOM     22  O   UNL     1       3.588  -0.654  -0.036  0.00  0.00    -0.503 OA
ATOM     23  H   UNL     1       3.940  -0.852   0.843  0.00  0.00    +0.292 HD
ENDBRANCH  17  22
ENDBRANCH   1  16
TORSDOF 5
