REMARK  Name = ZINC64197100
REMARK  10 active torsions:
REMARK  status: ('A' for Active; 'I' for Inactive)
REMARK    1  A    between atoms: C_1  and  C_2
REMARK    2  A    between atoms: C_2  and  N_3
REMARK    3  A    between atoms: C_10  and  O_30
REMARK    4  A    between atoms: C_12  and  C_15
REMARK    5  A    between atoms: C_15  and  N_17
REMARK    6  A    between atoms: C_21  and  C_24
REMARK    7  A    between atoms: C_24  and  C_25
REMARK    8  A    between atoms: C_25  and  O_27
REMARK    9  A    between atoms: O_27  and  C_28
REMARK   10  A    between atoms: C_28  and  C_29
REMARK                            x       y       z     vdW  Elec       q    Type
REMARK                         _______ _______ _______ _____ _____    ______ ____
ROOT
ATOM      1  N   UNL     1       0.718  -0.389   1.204  0.00  0.00    -0.267 N 
ATOM      2  C   UNL     1       2.106  -0.514   1.102  0.00  0.00    +0.042 A 
ATOM      3  C   UNL     1       2.712  -0.493  -0.148  0.00  0.00    +0.024 A 
ATOM      4  C   UNL     1       4.083  -0.621  -0.252  0.00  0.00    +0.002 A 
ATOM      5  C   UNL     1       4.851  -0.771   0.889  0.00  0.00    +0.000 A 
ATOM      6  C   UNL     1       4.250  -0.791   2.133  0.00  0.00    +0.008 A 
ATOM      7  C   UNL     1       2.878  -0.661   2.246  0.00  0.00    +0.007 A 
ATOM      8  C   UNL     1       2.240  -0.674   3.608  0.00  0.00    +0.187 C 
ATOM      9  C   UNL     1       0.763  -0.916   3.514  0.00  0.00    +0.111 C 
ATOM     10  C   UNL     1       0.081  -0.760   2.360  0.00  0.00    +0.255 C 
ATOM     11  O   UNL     1      -1.253  -0.978   2.344  0.00  0.00    -0.270 OA
ENDROOT
BRANCH   1  13
ATOM     12  C   UNL     1      -0.159   1.666   0.207  0.00  0.00    +0.025 C 
ATOM     13  C   UNL     1      -0.054   0.145   0.079  0.00  0.00    +0.110 C 
ENDBRANCH   1  13
BRANCH   9  14
ATOM     14  C   UNL     1       0.062  -1.317   4.675  0.00  0.00    +0.273 C 
ATOM     15  O   UNL     1      -1.119  -1.623   4.599  0.00  0.00    -0.268 OA
BRANCH  14  16
ATOM     16  N   UNL     1       0.693  -1.361   5.859  0.00  0.00    -0.152 NA
ATOM     17  C   UNL     1       0.033  -1.737   6.949  0.00  0.00    +0.163 A 
ATOM     18  N   UNL     1      -1.271  -2.116   7.062  0.00  0.00    -0.339 N 
ATOM     19  H   UNL     1      -1.849  -2.137   6.283  0.00  0.00    +0.167 HD
ATOM     20  C   UNL     1      -1.747  -2.467   8.288  0.00  0.00    +0.035 A 
ATOM     21  C   UNL     1      -0.893  -2.416   9.315  0.00  0.00    +0.070 A 
ATOM     22  S   UNL     1       0.608  -1.868   8.524  0.00  0.00    -0.060 S 
BRANCH  20  23
ATOM     23  C   UNL     1      -3.179  -2.896   8.480  0.00  0.00    +0.174 C 
BRANCH  23  24
ATOM     24  C   UNL     1      -4.048  -1.678   8.664  0.00  0.00    +0.313 C 
ATOM     25  O   UNL     1      -3.554  -0.575   8.641  0.00  0.00    -0.250 OA
BRANCH  24  26
ATOM     26  O   UNL     1      -5.369  -1.818   8.852  0.00  0.00    -0.465 OA
BRANCH  26  27
ATOM     27  C   UNL     1      -6.131  -0.621   9.020  0.00  0.00    +0.229 C 
ATOM     28  C   UNL     1      -7.605  -0.979   9.221  0.00  0.00    +0.048 C 
ENDBRANCH  26  27
ENDBRANCH  24  26
ENDBRANCH  23  24
ENDBRANCH  20  23
ENDBRANCH  14  16
ENDBRANCH   9  14
BRANCH   8  29
ATOM     29  O   UNL     1       2.834  -1.710   4.393  0.00  0.00    -0.382 OA
ATOM     30  H   UNL     1       2.564  -1.704   5.321  0.00  0.00    +0.211 HD
ENDBRANCH   8  29
TORSDOF 8
