REMARK  Name = ZINC18322827
REMARK  8 active torsions:
REMARK  status: ('A' for Active; 'I' for Inactive)
REMARK    1  A    between atoms: C_1  and  C_2
REMARK    2  A    between atoms: C_2  and  C_3
REMARK    3  A    between atoms: C_2  and  C_4
REMARK    4  A    between atoms: C_2  and  C_5
REMARK    5  A    between atoms: C_12  and  C_16
REMARK    6  A    between atoms: N_18  and  N_19
REMARK    7  A    between atoms: N_27  and  C_30
REMARK    8  A    between atoms: C_30  and  C_31
REMARK                            x       y       z     vdW  Elec       q    Type
REMARK                         _______ _______ _______ _____ _____    ______ ____
ROOT
ATOM      1  N   UNL     1       8.103  -0.169  -5.296  0.00  0.00    -0.174 NA
ATOM      2  C   UNL     1       8.963  -0.749  -6.097  0.00  0.00    +0.153 C 
ATOM      3  C   UNL     1      10.255  -0.208  -6.578  0.00  0.00    +0.028 A 
ATOM      4  C   UNL     1      10.926   0.990  -6.359  0.00  0.00    +0.012 A 
ATOM      5  C   UNL     1      12.148   1.211  -6.963  0.00  0.00    +0.001 A 
ATOM      6  C   UNL     1      12.702   0.242  -7.783  0.00  0.00    +0.002 A 
ATOM      7  C   UNL     1      12.043  -0.950  -8.006  0.00  0.00    +0.024 A 
ATOM      8  C   UNL     1      10.812  -1.190  -7.407  0.00  0.00    +0.046 A 
ATOM      9  N   UNL     1       9.955  -2.284  -7.463  0.00  0.00    -0.261 N 
ATOM     10  C   UNL     1       8.858  -2.088  -6.712  0.00  0.00    +0.272 C 
ATOM     11  O   UNL     1       7.939  -2.873  -6.566  0.00  0.00    -0.268 OA
ENDROOT
BRANCH   1  14
ATOM     12  C   UNL     1       6.038  -0.236  -4.112  0.00  0.00    +0.276 C 
ATOM     13  O   UNL     1       6.264   0.875  -3.683  0.00  0.00    -0.270 OA
ATOM     14  N   UNL     1       6.923  -0.833  -4.936  0.00  0.00    -0.203 N 
ATOM     15  H   UNL     1       6.742  -1.722  -5.279  0.00  0.00    +0.177 HD
BRANCH  12  23
ATOM     16  C   UNL     1       0.808  -0.413  -1.137  0.00  0.00    -0.038 A 
ATOM     17  C   UNL     1       0.121  -1.212  -2.032  0.00  0.00    +0.008 A 
ATOM     18  C   UNL     1       0.749  -1.671  -3.174  0.00  0.00    +0.050 A 
ATOM     19  C   UNL     1       2.070  -1.331  -3.426  0.00  0.00    +0.162 A 
ATOM     20  C   UNL     1       2.759  -0.525  -2.528  0.00  0.00    +0.163 A 
ATOM     21  C   UNL     1       2.122  -0.064  -1.385  0.00  0.00    +0.053 A 
ATOM     22  O   UNL     1       4.053  -0.172  -2.759  0.00  0.00    -0.472 OA
ATOM     23  C   UNL     1       4.769  -0.950  -3.724  0.00  0.00    +0.297 C 
ATOM     24  C   UNL     1       3.875  -1.126  -4.959  0.00  0.00    +0.283 C 
ATOM     25  O   UNL     1       2.676  -1.794  -4.553  0.00  0.00    -0.484 OA
BRANCH  16  27
ATOM     26  C   UNL     1       0.103   1.615   0.105  0.00  0.00    +0.015 C 
ATOM     27  C   UNL     1       0.120   0.085   0.108  0.00  0.00    -0.013 C 
ATOM     28  C   UNL     1       0.875  -0.414   1.342  0.00  0.00    +0.015 C 
ATOM     29  C   UNL     1      -1.316  -0.441   0.142  0.00  0.00    +0.015 C 
ENDBRANCH  16  27
ENDBRANCH  12  23
ENDBRANCH   1  14
BRANCH   9  30
ATOM     30  C   UNL     1      10.217  -3.499  -8.238  0.00  0.00    +0.149 C 
BRANCH  30  31
ATOM     31  C   UNL     1      11.062  -4.443  -7.422  0.00  0.00    -0.022 A 
ATOM     32  C   UNL     1      11.358  -4.149  -6.126  0.00  0.00    +0.006 A 
ATOM     33  C   UNL     1      12.137  -5.010  -5.356  0.00  0.00    +0.001 A 
ATOM     34  C   UNL     1      12.625  -6.170  -5.876  0.00  0.00    +0.008 A 
ATOM     35  C   UNL     1      12.340  -6.506  -7.210  0.00  0.00    -0.018 A 
ATOM     36  C   UNL     1      11.542  -5.634  -7.992  0.00  0.00    -0.013 A 
ATOM     37  C   UNL     1      11.252  -5.974  -9.325  0.00  0.00    +0.009 A 
ATOM     38  C   UNL     1      11.735  -7.136  -9.843  0.00  0.00    +0.001 A 
ATOM     39  C   UNL     1      12.514  -7.997  -9.072  0.00  0.00    +0.001 A 
ATOM     40  C   UNL     1      12.826  -7.694  -7.783  0.00  0.00    +0.008 A 
ENDBRANCH  30  31
ENDBRANCH   9  30
TORSDOF 5
