REMARK  Name = ZINC20872244
REMARK  9 active torsions:
REMARK  status: ('A' for Active; 'I' for Inactive)
REMARK    1  A    between atoms: C_1  and  C_2
REMARK    2  A    between atoms: C_2  and  C_4
REMARK    3  A    between atoms: C_2  and  N_17
REMARK    4  A    between atoms: C_4  and  N_5
REMARK    5  A    between atoms: N_17  and  C_18
REMARK    6  A    between atoms: C_20  and  C_26
REMARK    7  A    between atoms: C_20  and  C_27
REMARK    8  A    between atoms: C_22  and  C_24
REMARK    9  A    between atoms: C_22  and  C_25
REMARK                            x       y       z     vdW  Elec       q    Type
REMARK                         _______ _______ _______ _____ _____    ______ ____
ROOT
ATOM      1  C   UNL     1       2.731  -0.456  -0.118  0.00  0.00    +0.026 C 
ATOM      2  C   UNL     1       2.255   0.695   0.771  0.00  0.00    +0.072 C 
ENDROOT
BRANCH   2   3
ATOM      3  N   UNL     1       1.373   1.579  -0.003  0.00  0.00    -0.309 NA
ATOM      4  H   UNL     1       1.390   2.588   0.435  0.00  0.00    +0.123 HD
BRANCH   3   5
ATOM      5  C   UNL     1      -0.013   1.083   0.008  0.00  0.00    +0.051 C 
ATOM      6  C   UNL     1      -0.723   1.600   1.258  0.00  0.00    +0.006 C 
ATOM      7  C   UNL     1      -2.171   1.116   1.285  0.00  0.00    -0.072 C 
ATOM      8  N   UNL     1      -2.868   1.351   0.037  0.00  0.00    +0.386 N 
ATOM      9  C   UNL     1      -2.196   1.133  -1.226  0.00  0.00    -0.072 C 
ATOM     10  C   UNL     1      -0.747   1.613  -1.223  0.00  0.00    +0.006 C 
ATOM     11  C   UNL     1      -2.948   1.929  -2.316  0.00  0.00    -0.010 C 
ATOM     12  C   UNL     1      -2.244  -0.346  -1.631  0.00  0.00    -0.010 C 
ATOM     13  C   UNL     1      -2.902   1.896   2.400  0.00  0.00    -0.010 C 
ATOM     14  C   UNL     1      -2.209  -0.368   1.669  0.00  0.00    -0.010 C 
ATOM     15  H   UNL     1      -3.751   0.698  -0.018  0.00  0.00    -0.084 HD
ATOM     16  H   UNL     1      -3.186   2.403  -0.012  0.00  0.00    -0.084 HD
ENDBRANCH   3   5
ENDBRANCH   2   3
BRANCH   2  17
ATOM     17  C   UNL     1       3.465   1.490   1.267  0.00  0.00    +0.162 C 
BRANCH  17  18
ATOM     18  N   UNL     1       3.006   2.660   2.019  0.00  0.00    -0.258 NA
ATOM     19  C   UNL     1       3.262   2.757   3.291  0.00  0.00    +0.193 C 
ATOM     20  N   UNL     1       3.912   1.952   4.146  0.00  0.00    -0.200 NA
ATOM     21  C   UNL     1       3.776   2.675   5.219  0.00  0.00    +0.167 C 
ATOM     22  S   UNL     1       2.884   3.990   4.479  0.00  0.00    -0.015 S 
ATOM     23  N   UNL     1       4.196   2.477   6.501  0.00  0.00    -0.309 N 
ATOM     24  C   UNL     1       4.927   1.269   6.812  0.00  0.00    +0.107 C 
ATOM     25  C   UNL     1       3.944   0.148   7.208  0.00  0.00    +0.019 C 
ATOM     26  C   UNL     1       3.359   0.426   8.529  0.00  0.00    +0.002 C 
ATOM     27  C   UNL     1       2.524   1.701   8.591  0.00  0.00    +0.002 C 
ATOM     28  C   UNL     1       3.431   2.880   8.849  0.00  0.00    +0.019 C 
ATOM     29  C   UNL     1       3.881   3.502   7.515  0.00  0.00    +0.107 C 
ENDBRANCH  17  18
ENDBRANCH   2  17
TORSDOF 4
