REMARK  Name = ZINC36406104
REMARK  11 active torsions:
REMARK  status: ('A' for Active; 'I' for Inactive)
REMARK    1  A    between atoms: C_1  and  C_2
REMARK    2  A    between atoms: C_2  and  C_3
REMARK    3  A    between atoms: C_2  and  N_29
REMARK    4  A    between atoms: C_6  and  S_14
REMARK    5  A    between atoms: N_7  and  C_8
REMARK    6  A    between atoms: S_14  and  C_15
REMARK    7  A    between atoms: C_15  and  C_16
REMARK    8  A    between atoms: N_18  and  C_19
REMARK    9  A    between atoms: C_24  and  C_28
REMARK   10  A    between atoms: C_25  and  C_26
REMARK   11  A    between atoms: C_25  and  C_27
REMARK                            x       y       z     vdW  Elec       q    Type
REMARK                         _______ _______ _______ _____ _____    ______ ____
ROOT
ATOM      1  C   UNL     1      -1.579  -0.130   0.110  0.00  0.00    +0.125 A 
ATOM      2  N   UNL     1      -2.319  -0.353   1.159  0.00  0.00    -0.135 NA
ATOM      3  N   UNL     1      -3.428  -0.901   0.809  0.00  0.00    -0.122 NA
ATOM      4  C   UNL     1      -3.457  -1.059  -0.494  0.00  0.00    +0.197 A 
ATOM      5  N   UNL     1      -2.279  -0.567  -0.983  0.00  0.00    -0.275 N 
ENDROOT
BRANCH   5   6
ATOM      6  C   UNL     1      -1.871  -0.521  -2.324  0.00  0.00    +0.050 A 
ATOM      7  C   UNL     1      -1.677   0.702  -2.951  0.00  0.00    +0.026 A 
ATOM      8  C   UNL     1      -1.275   0.744  -4.272  0.00  0.00    +0.002 A 
ATOM      9  C   UNL     1      -1.067  -0.432  -4.970  0.00  0.00    +0.000 A 
ATOM     10  C   UNL     1      -1.259  -1.652  -4.348  0.00  0.00    +0.002 A 
ATOM     11  C   UNL     1      -1.654  -1.699  -3.025  0.00  0.00    +0.026 A 
ENDBRANCH   5   6
BRANCH   1  13
ATOM     12  C   UNL     1      -0.336   2.004   0.338  0.00  0.00    -0.005 C 
ATOM     13  C   UNL     1      -0.209   0.498   0.102  0.00  0.00    -0.002 C 
BRANCH  13  14
ATOM     14  N   UNL     1       0.610  -0.097   1.167  0.00  0.00    +0.386 N 
ATOM     15  C   UNL     1       1.940   0.522   1.163  0.00  0.00    -0.078 C 
ATOM     16  C   UNL     1       2.770  -0.036   2.322  0.00  0.00    -0.019 C 
ATOM     17  C   UNL     1       2.910  -1.552   2.159  0.00  0.00    -0.004 C 
ATOM     18  C   UNL     1       1.514  -2.179   2.090  0.00  0.00    -0.019 C 
ATOM     19  C   UNL     1       0.731  -1.542   0.940  0.00  0.00    -0.078 C 
ATOM     20  H   UNL     1       0.168   0.066   2.059  0.00  0.00    -0.081 HD
ENDBRANCH  13  14
ENDBRANCH   1  13
BRANCH   4  21
ATOM     21  S   UNL     1      -4.769  -1.765  -1.434  0.00  0.00    -0.076 S 
BRANCH  21  22
ATOM     22  C   UNL     1      -6.017  -2.199  -0.191  0.00  0.00    +0.173 C 
BRANCH  22  23
ATOM     23  C   UNL     1      -7.209  -2.821  -0.871  0.00  0.00    +0.224 C 
ATOM     24  O   UNL     1      -7.216  -2.958  -2.076  0.00  0.00    -0.275 OA
ATOM     25  N   UNL     1      -8.267  -3.224  -0.141  0.00  0.00    -0.311 N 
ATOM     26  H   UNL     1      -8.262  -3.114   0.823  0.00  0.00    +0.149 HD
BRANCH  25  27
ATOM     27  C   UNL     1      -9.426  -3.829  -0.802  0.00  0.00    +0.080 C 
ATOM     28  C   UNL     1     -10.363  -2.732  -1.357  0.00  0.00    +0.027 C 
ATOM     29  C   UNL     1     -11.713  -2.950  -0.607  0.00  0.00    -0.003 C 
ATOM     30  C   UNL     1     -12.274  -4.282  -1.192  0.00  0.00    +0.005 C 
ATOM     31  C   UNL     1     -11.337  -5.378  -0.637  0.00  0.00    +0.009 C 
ATOM     32  C   UNL     1     -10.298  -4.606   0.232  0.00  0.00    -0.008 C 
ATOM     33  C   UNL     1     -11.192  -3.443   0.789  0.00  0.00    -0.025 C 
ATOM     34  C   UNL     1     -12.326  -3.965   1.673  0.00  0.00    +0.012 C 
ATOM     35  C   UNL     1     -10.363  -2.374   1.503  0.00  0.00    +0.012 C 
ATOM     36  C   UNL     1      -9.531  -5.442   1.258  0.00  0.00    +0.013 C 
ENDBRANCH  25  27
ENDBRANCH  22  23
ENDBRANCH  21  22
ENDBRANCH   4  21
TORSDOF 7
