REMARK  Name = ZINC09274483
REMARK  15 active torsions:
REMARK  status: ('A' for Active; 'I' for Inactive)
REMARK    1  A    between atoms: C_1  and  C_2
REMARK    2  A    between atoms: C_2  and  C_3
REMARK    3  A    between atoms: C_2  and  C_4
REMARK    4  A    between atoms: C_2  and  C_5
REMARK    5  A    between atoms: C_8  and  C_11
REMARK    6  A    between atoms: C_14  and  C_15
REMARK    7  A    between atoms: C_14  and  O_24
REMARK    8  A    between atoms: C_18  and  O_22
REMARK    9  A    between atoms: O_22  and  C_23
REMARK   10  A    between atoms: N_29  and  C_30
REMARK   11  A    between atoms: C_30  and  C_31
REMARK   12  A    between atoms: C_31  and  C_32
REMARK   13  A    between atoms: C_32  and  N_67
REMARK   14  A    between atoms: C_33  and  N_67
REMARK   15  A    between atoms: C_34  and  N_67
REMARK                            x       y       z     vdW  Elec       q    Type
REMARK                         _______ _______ _______ _____ _____    ______ ____
ROOT
ATOM      1  C   UNL     1       1.410  -0.436   0.339  0.00  0.00    +0.144 C 
ATOM      2  C   UNL     1       2.301   0.784   0.318  0.00  0.00    +0.071 C 
ATOM      3  C   UNL     1       3.638   0.830  -0.029  0.00  0.00    +0.133 C 
ATOM      4  C   UNL     1       1.498   1.861   0.720  0.00  0.00    +0.249 C 
ATOM      5  O   UNL     1       1.858   3.020   0.829  0.00  0.00    -0.282 OA
ATOM      6  C   UNL     1       0.130   1.344   0.992  0.00  0.00    +0.288 C 
ATOM      7  O   UNL     1      -0.811   2.021   1.355  0.00  0.00    -0.266 OA
ATOM      8  N   UNL     1       0.085   0.019   0.770  0.00  0.00    -0.284 N 
ENDROOT
BRANCH   3   9
ATOM      9  C   UNL     1       4.325   2.126  -0.139  0.00  0.00    +0.019 A 
ATOM     10  C   UNL     1       3.775   3.148  -0.921  0.00  0.00    +0.015 A 
ATOM     11  C   UNL     1       4.419   4.361  -1.018  0.00  0.00    +0.048 A 
ATOM     12  C   UNL     1       5.620   4.568  -0.349  0.00  0.00    +0.138 A 
ATOM     13  C   UNL     1       6.175   3.554   0.425  0.00  0.00    +0.083 A 
ATOM     14  C   UNL     1       5.535   2.339   0.532  0.00  0.00    +0.035 A 
ATOM     15 CL   UNL     1       7.675   3.820   1.257  0.00  0.00    -0.080 Cl
BRANCH  12  16
ATOM     16  O   UNL     1       6.254   5.764  -0.452  0.00  0.00    -0.494 OA
ATOM     17  C   UNL     1       5.630   6.761  -1.263  0.00  0.00    +0.277 C 
ENDBRANCH  12  16
ENDBRANCH   3   9
BRANCH   1  21
ATOM     18  C   UNL     1       1.170  -2.144  -3.569  0.00  0.00    -0.042 A 
ATOM     19  C   UNL     1       1.974  -2.728  -2.608  0.00  0.00    +0.004 A 
ATOM     20  C   UNL     1       2.051  -2.175  -1.343  0.00  0.00    +0.006 A 
ATOM     21  C   UNL     1       1.325  -1.038  -1.040  0.00  0.00    -0.022 A 
ATOM     22  C   UNL     1       0.518  -0.458  -1.999  0.00  0.00    +0.006 A 
ATOM     23  C   UNL     1       0.443  -1.008  -3.265  0.00  0.00    +0.004 A 
BRANCH  18  25
ATOM     24  C   UNL     1       0.560  -4.179  -4.848  0.00  0.00    +0.015 C 
ATOM     25  C   UNL     1       1.086  -2.746  -4.948  0.00  0.00    -0.013 C 
ATOM     26  C   UNL     1       0.135  -1.913  -5.811  0.00  0.00    +0.015 C 
ATOM     27  C   UNL     1       2.477  -2.756  -5.585  0.00  0.00    +0.015 C 
ENDBRANCH  18  25
ENDBRANCH   1  21
BRANCH   3  28
ATOM     28  O   UNL     1       4.313  -0.315  -0.266  0.00  0.00    -0.506 OA
ATOM     29  H   UNL     1       5.261  -0.100  -0.502  0.00  0.00    +0.292 HD
ENDBRANCH   3  28
BRANCH   8  30
ATOM     30  C   UNL     1      -1.096  -0.832   0.932  0.00  0.00    +0.107 C 
BRANCH  30  31
ATOM     31  C   UNL     1      -1.871  -0.885  -0.386  0.00  0.00    +0.000 C 
BRANCH  31  32
ATOM     32  C   UNL     1      -3.105  -1.774  -0.216  0.00  0.00    -0.078 C 
BRANCH  32  35
ATOM     33  C   UNL     1      -3.068  -2.506  -2.524  0.00  0.00    -0.097 C 
ATOM     34  C   UNL     1      -5.156  -2.470  -1.298  0.00  0.00    -0.097 C 
ATOM     35  N   UNL     1      -3.853  -1.799  -1.490  0.00  0.00    +0.376 N 
ATOM     36  H   UNL     1      -4.018  -0.834  -1.799  0.00  0.00    -0.083 HD
ENDBRANCH  32  35
ENDBRANCH  31  32
ENDBRANCH  30  31
ENDBRANCH   8  30
TORSDOF 9
