REMARK  Name = ZINC44714529
REMARK  8 active torsions:
REMARK  status: ('A' for Active; 'I' for Inactive)
REMARK    1  A    between atoms: C_1  and  C_2
REMARK    2  A    between atoms: C_4  and  C_9
REMARK    3  A    between atoms: C_13  and  C_22
REMARK    4  A    between atoms: N_24  and  C_25
REMARK    5  A    between atoms: C_25  and  C_26
REMARK    6  A    between atoms: C_26  and  C_27
REMARK    7  A    between atoms: C_28  and  C_39
REMARK    8  A    between atoms: C_34  and  C_37
REMARK                            x       y       z     vdW  Elec       q    Type
REMARK                         _______ _______ _______ _____ _____    ______ ____
ROOT
ATOM      1  C   UNL     1       0.026  -2.818  -2.491  0.00  0.00    +0.247 C 
ATOM      2  O   UNL     1      -0.097  -2.217  -3.540  0.00  0.00    -0.270 OA
ATOM      3  N   UNL     1       0.148  -4.161  -2.494  0.00  0.00    -0.296 N 
ATOM      4  C   UNL     1       0.178  -5.073  -1.326  0.00  0.00    +0.121 C 
ATOM      5  C   UNL     1      -0.643  -6.304  -1.771  0.00  0.00    +0.100 C 
ATOM      6  C   UNL     1      -0.571  -6.290  -3.307  0.00  0.00    -0.004 C 
ATOM      7  C   UNL     1       0.274  -5.059  -3.667  0.00  0.00    +0.115 C 
ATOM      8  C   UNL     1      -1.970  -6.154  -3.901  0.00  0.00    -0.010 C 
ATOM      9  C   UNL     1      -1.877  -6.200  -5.428  0.00  0.00    -0.082 C 
ATOM     10  N   UNL     1      -1.268  -7.468  -5.846  0.00  0.00    +0.379 N 
ATOM     11  C   UNL     1       0.111  -7.550  -5.348  0.00  0.00    -0.082 C 
ATOM     12  C   UNL     1       0.102  -7.561  -3.817  0.00  0.00    -0.010 C 
ATOM     13  H   UNL     1      -1.805  -8.237  -5.472  0.00  0.00    -0.086 HD
ATOM     14  H   UNL     1      -1.264  -7.523  -6.853  0.00  0.00    -0.086 HD
ENDROOT
BRANCH   1  18
ATOM     15  C   UNL     1      -1.211   1.210   0.179  0.00  0.00    +0.047 C 
ATOM     16  C   UNL     1      -0.551  -0.141   0.077  0.00  0.00    -0.015 A 
ATOM     17  C   UNL     1      -0.569  -0.827  -1.119  0.00  0.00    +0.019 A 
ATOM     18  C   UNL     1       0.043  -2.078  -1.212  0.00  0.00    +0.037 A 
ATOM     19  C   UNL     1       0.672  -2.628  -0.093  0.00  0.00    +0.016 A 
ATOM     20  C   UNL     1       0.685  -1.933   1.097  0.00  0.00    +0.039 A 
ATOM     21  C   UNL     1       0.080  -0.689   1.183  0.00  0.00    +0.126 A 
ATOM     22  F   UNL     1       0.100  -0.010   2.351  0.00  0.00    -0.205 F 
ENDBRANCH   1  18
BRANCH   5  23
ATOM     23  C   UNL     1      -2.072  -6.176  -1.309  0.00  0.00    +0.218 C 
ATOM     24  O   UNL     1      -2.602  -5.086  -1.274  0.00  0.00    -0.275 OA
ATOM     25  N   UNL     1      -2.760  -7.273  -0.936  0.00  0.00    -0.315 N 
ATOM     26  H   UNL     1      -2.335  -8.145  -0.964  0.00  0.00    +0.149 HD
BRANCH  25  27
ATOM     27  C   UNL     1      -4.149  -7.149  -0.487  0.00  0.00    +0.109 C 
BRANCH  27  28
ATOM     28  C   UNL     1      -4.693  -8.532  -0.124  0.00  0.00    +0.056 C 
BRANCH  28  29
ATOM     29  C   UNL     1      -6.122  -8.404   0.338  0.00  0.00    -0.018 A 
ATOM     30  C   UNL     1      -6.539  -8.198   1.597  0.00  0.00    +0.017 A 
ATOM     31  N   UNL     1      -7.906  -8.136   1.631  0.00  0.00    -0.358 N 
ATOM     32  H   UNL     1      -8.437  -7.994   2.431  0.00  0.00    +0.166 HD
ATOM     33  C   UNL     1      -8.416  -8.305   0.366  0.00  0.00    +0.047 A 
ATOM     34  C   UNL     1      -7.320  -8.475  -0.503  0.00  0.00    +0.004 A 
ATOM     35  C   UNL     1      -7.535  -8.664  -1.866  0.00  0.00    +0.029 A 
ATOM     36  C   UNL     1      -8.838  -8.680  -2.357  0.00  0.00    +0.052 A 
ATOM     37  C   UNL     1      -9.919  -8.506  -1.482  0.00  0.00    +0.021 A 
ATOM     38  C   UNL     1      -9.711  -8.327  -0.146  0.00  0.00    +0.027 A 
ATOM     39  C   UNL     1      -5.636  -8.057   2.795  0.00  0.00    +0.063 C 
BRANCH  36  40
ATOM     40  C   UNL     1      -9.073  -8.874  -3.756  0.00  0.00    +0.099 C 
ATOM     41  N   UNL     1      -9.260  -9.027  -4.866  0.00  0.00    -0.191 NA
ENDBRANCH  36  40
ENDBRANCH  28  29
ENDBRANCH  27  28
ENDBRANCH  25  27
ENDBRANCH   5  23
TORSDOF 6
