REMARK  Name = ZINC00940006
REMARK  11 active torsions:
REMARK  status: ('A' for Active; 'I' for Inactive)
REMARK    1  A    between atoms: C_1  and  C_2
REMARK    2  A    between atoms: C_6  and  C_9
REMARK    3  A    between atoms: C_10  and  C_11
REMARK    4  A    between atoms: C_10  and  N_61
REMARK    5  A    between atoms: C_12  and  O_36
REMARK    6  A    between atoms: C_18  and  C_32
REMARK    7  A    between atoms: C_19  and  C_22
REMARK    8  A    between atoms: C_25  and  O_30
REMARK    9  A    between atoms: C_26  and  O_28
REMARK   10  A    between atoms: O_28  and  C_29
REMARK   11  A    between atoms: O_30  and  C_31
REMARK                            x       y       z     vdW  Elec       q    Type
REMARK                         _______ _______ _______ _____ _____    ______ ____
ROOT
ATOM      1  C   UNL     1       0.232   0.112  -0.736  0.00  0.00    +0.020 A 
ATOM      2  C   UNL     1       1.445  -0.533  -0.567  0.00  0.00    +0.122 A 
ATOM      3  C   UNL     1       2.538   0.141  -0.025  0.00  0.00    +0.046 A 
ATOM      4  C   UNL     1       2.424   1.451   0.346  0.00  0.00    +0.019 A 
ATOM      5  C   UNL     1       1.208   2.114   0.182  0.00  0.00    +0.065 A 
ATOM      6  C   UNL     1       0.100   1.443  -0.364  0.00  0.00    +0.144 A 
ATOM      7  O   UNL     1      -1.073   2.087  -0.527  0.00  0.00    -0.450 OA
ATOM      8  C   UNL     1      -1.262   3.364  -0.182  0.00  0.00    +0.219 A 
ATOM      9  C   UNL     1      -0.277   4.130   0.355  0.00  0.00    +0.077 A 
ATOM     10  C   UNL     1       1.049   3.527   0.571  0.00  0.00    +0.201 A 
ATOM     11  O   UNL     1       1.971   4.165   1.049  0.00  0.00    -0.286 OA
ENDROOT
BRANCH   9  12
ATOM     12  C   UNL     1      -0.532   5.545   0.717  0.00  0.00    -0.007 A 
ATOM     13  C   UNL     1      -1.359   5.852   1.796  0.00  0.00    +0.012 A 
ATOM     14  C   UNL     1      -1.592   7.169   2.135  0.00  0.00    +0.050 A 
ATOM     15  C   UNL     1      -1.014   8.190   1.397  0.00  0.00    +0.162 A 
ATOM     16  C   UNL     1      -0.192   7.890   0.314  0.00  0.00    +0.162 A 
ATOM     17  C   UNL     1       0.049   6.571  -0.026  0.00  0.00    +0.058 A 
BRANCH  16  18
ATOM     18  O   UNL     1       0.374   8.894  -0.409  0.00  0.00    -0.491 OA
ATOM     19  C   UNL     1       1.206   8.513  -1.506  0.00  0.00    +0.277 C 
ENDBRANCH  16  18
BRANCH  15  20
ATOM     20  O   UNL     1      -1.251   9.487   1.731  0.00  0.00    -0.491 OA
ATOM     21  C   UNL     1      -2.103   9.723   2.853  0.00  0.00    +0.277 C 
ENDBRANCH  15  20
ENDBRANCH   9  12
BRANCH   8  22
ATOM     22  C   UNL     1      -2.619   3.981  -0.404  0.00  0.00    +0.451 C 
ATOM     23  F   UNL     1      -2.478   5.171  -1.126  0.00  0.00    -0.163 F 
ATOM     24  F   UNL     1      -3.423   3.091  -1.124  0.00  0.00    -0.163 F 
ATOM     25  F   UNL     1      -3.215   4.252   0.832  0.00  0.00    -0.163 F 
ENDBRANCH   8  22
BRANCH   2  26
ATOM     26  O   UNL     1       1.572  -1.834  -0.932  0.00  0.00    -0.506 OA
ATOM     27  H   UNL     1       1.855  -1.960  -1.848  0.00  0.00    +0.292 HD
ENDBRANCH   2  26
BRANCH   1  28
ATOM     28  C   UNL     1      -0.942  -0.628  -1.324  0.00  0.00    -0.035 C 
BRANCH  28  36
ATOM     29  C   UNL     1      -2.912  -2.092  -5.590  0.00  0.00    +0.036 C 
ATOM     30  C   UNL     1      -1.838  -1.222  -4.934  0.00  0.00    +0.099 C 
ATOM     31  C   UNL     1      -1.919  -1.371  -3.412  0.00  0.00    -0.047 C 
ATOM     32  C   UNL     1      -1.185   0.922  -3.169  0.00  0.00    -0.047 C 
ATOM     33  C   UNL     1      -1.111   1.048  -4.693  0.00  0.00    +0.099 C 
ATOM     34  O   UNL     1      -2.051   0.148  -5.286  0.00  0.00    -0.378 OA
ATOM     35  C   UNL     1       0.301   0.698  -5.168  0.00  0.00    +0.036 C 
ATOM     36  N   UNL     1      -0.912  -0.481  -2.795  0.00  0.00    +0.386 N 
ATOM     37  H   UNL     1       0.020  -0.743  -3.138  0.00  0.00    -0.081 HD
ENDBRANCH  28  36
ENDBRANCH   1  28
TORSDOF 7
