REMARK  Name = ZINC39405517
REMARK  11 active torsions:
REMARK  status: ('A' for Active; 'I' for Inactive)
REMARK    1  A    between atoms: C_1  and  C_2
REMARK    2  A    between atoms: C_4  and  C_9
REMARK    3  A    between atoms: C_5  and  C_8
REMARK    4  A    between atoms: C_9  and  N_10
REMARK    5  A    between atoms: N_10  and  C_11
REMARK    6  A    between atoms: N_10  and  C_12
REMARK    7  A    between atoms: C_12  and  C_13
REMARK    8  A    between atoms: N_15  and  C_27
REMARK    9  A    between atoms: C_17  and  C_19
REMARK   10  A    between atoms: C_23  and  O_25
REMARK   11  A    between atoms: O_25  and  C_26
REMARK                            x       y       z     vdW  Elec       q    Type
REMARK                         _______ _______ _______ _____ _____    ______ ____
ROOT
ATOM      1  C   UNL     1      -5.064   2.691  -1.276  0.00  0.00    -0.048 C 
ATOM      2  C   UNL     1      -4.956   3.854  -1.886  0.00  0.00    +0.093 C 
ATOM      3  N   UNL     1      -5.810   4.796  -1.347  0.00  0.00    -0.242 N 
ATOM      4  N   UNL     1      -6.541   4.266  -0.322  0.00  0.00    -0.225 NA
ATOM      5  C   UNL     1      -6.117   2.857  -0.202  0.00  0.00    +0.129 C 
ATOM      6  H   UNL     1      -6.379   4.771   0.536  0.00  0.00    +0.146 HD
ENDROOT
BRANCH   5   7
ATOM      7  C   UNL     1      -5.525   2.602   1.161  0.00  0.00    -0.021 A 
ATOM      8  C   UNL     1      -4.683   3.537   1.733  0.00  0.00    +0.006 A 
ATOM      9  C   UNL     1      -4.138   3.306   2.983  0.00  0.00    +0.004 A 
ATOM     10  C   UNL     1      -4.434   2.140   3.662  0.00  0.00    +0.045 A 
ATOM     11  C   UNL     1      -5.279   1.201   3.090  0.00  0.00    +0.120 A 
ATOM     12  C   UNL     1      -5.829   1.438   1.838  0.00  0.00    +0.051 A 
BRANCH  11  13
ATOM     13  O   UNL     1      -5.571   0.053   3.756  0.00  0.00    -0.495 OA
ATOM     14  C   UNL     1      -4.973  -0.121   5.043  0.00  0.00    +0.277 C 
ENDBRANCH  11  13
ENDBRANCH   5   7
BRANCH   3  15
ATOM     15  C   UNL     1      -5.913   6.116  -1.791  0.00  0.00    +0.049 A 
ATOM     16  C   UNL     1      -6.801   6.990  -1.177  0.00  0.00    +0.025 A 
ATOM     17  C   UNL     1      -6.900   8.295  -1.618  0.00  0.00    +0.002 A 
ATOM     18  C   UNL     1      -6.117   8.732  -2.671  0.00  0.00    +0.000 A 
ATOM     19  C   UNL     1      -5.231   7.865  -3.284  0.00  0.00    +0.002 A 
ATOM     20  C   UNL     1      -5.123   6.560  -2.844  0.00  0.00    +0.025 A 
ENDBRANCH   3  15
BRANCH   1  21
ATOM     21  C   UNL     1      -4.293   1.435  -1.592  0.00  0.00    -0.044 C 
BRANCH  21  22
ATOM     22  N   UNL     1      -5.102   0.570  -2.462  0.00  0.00    +0.383 N 
ATOM     23  C   UNL     1      -5.296   1.227  -3.761  0.00  0.00    -0.095 C 
ATOM     24  H   UNL     1      -5.999   0.404  -2.031  0.00  0.00    -0.081 HD
BRANCH  22  25
ATOM     25  C   UNL     1      -4.409  -0.710  -2.659  0.00  0.00    -0.043 C 
BRANCH  25  28
ATOM     26  C   UNL     1      -7.496  -1.750  -2.257  0.00  0.00    +0.039 C 
ATOM     27  C   UNL     1      -6.385  -2.559  -2.930  0.00  0.00    +0.151 C 
ATOM     28  C   UNL     1      -5.291  -1.642  -3.449  0.00  0.00    -0.038 C 
ATOM     29  C   UNL     1      -5.293  -1.854  -4.767  0.00  0.00    +0.060 C 
ATOM     30  N   UNL     1      -6.232  -2.765  -5.105  0.00  0.00    -0.159 NA
ATOM     31  N   UNL     1      -6.883  -3.212  -4.153  0.00  0.00    -0.180 NA
ATOM     32  C   UNL     1      -4.374  -1.169  -5.744  0.00  0.00    +0.067 C 
ENDBRANCH  25  28
ENDBRANCH  22  25
ENDBRANCH  21  22
ENDBRANCH   1  21
TORSDOF 7
