REMARK  Name = ZINC16426460
REMARK  14 active torsions:
REMARK  status: ('A' for Active; 'I' for Inactive)
REMARK    1  A    between atoms: C_1  and  C_2
REMARK    2  A    between atoms: C_5  and  C_7
REMARK    3  A    between atoms: C_12  and  C_17
REMARK    4  A    between atoms: C_20  and  O_25
REMARK    5  A    between atoms: C_21  and  O_23
REMARK    6  A    between atoms: O_23  and  C_24
REMARK    7  A    between atoms: O_25  and  C_26
REMARK    8  A    between atoms: C_26  and  C_27
REMARK    9  A    between atoms: C_26  and  C_28
REMARK   10  A    between atoms: C_30  and  C_42
REMARK   11  A    between atoms: C_31  and  C_32
REMARK   12  A    between atoms: C_32  and  O_34
REMARK   13  A    between atoms: O_34  and  C_35
REMARK   14  A    between atoms: C_35  and  C_36
REMARK                            x       y       z     vdW  Elec       q    Type
REMARK                         _______ _______ _______ _____ _____    ______ ____
ROOT
ATOM      1  C   UNL     1      -1.044   2.212  -0.143  0.00  0.00    +0.128 C 
ATOM      2  C   UNL     1      -0.952   3.642   0.333  0.00  0.00    +0.027 C 
ATOM      3  C   UNL     1       0.231   4.292   0.335  0.00  0.00    +0.016 C 
ATOM      4  C   UNL     1       0.331   5.722   0.804  0.00  0.00    +0.059 C 
ATOM      5  C   UNL     1      -0.982   6.452   0.511  0.00  0.00    +0.032 C 
ATOM      6  C   UNL     1      -2.119   5.710   1.222  0.00  0.00    +0.088 C 
ATOM      7  C   UNL     1      -2.130   4.277   0.764  0.00  0.00    +0.162 C 
ATOM      8  O   UNL     1      -3.175   3.658   0.765  0.00  0.00    -0.292 OA
ATOM      9  N   UNL     1       1.371   3.661  -0.086  0.00  0.00    -0.321 N 
ATOM     10  C   UNL     1       1.435   2.296  -0.134  0.00  0.00    +0.016 C 
ATOM     11  C   UNL     1       0.309   1.563  -0.156  0.00  0.00    +0.068 C 
ATOM     12  C   UNL     1       2.776   1.610  -0.163  0.00  0.00    +0.061 C 
ATOM     13  H   UNL     1       2.247   4.253  -0.391  0.00  0.00    +0.152 HD
ENDROOT
BRANCH   1  18
ATOM     14  C   UNL     1      -1.590   3.002  -5.095  0.00  0.00    +0.086 C 
ATOM     15  C   UNL     1      -1.857   2.528  -3.689  0.00  0.00    +0.102 A 
ATOM     16  C   UNL     1      -2.921   1.809  -3.289  0.00  0.00    +0.044 A 
ATOM     17  C   UNL     1      -2.765   1.583  -1.902  0.00  0.00    +0.046 A 
ATOM     18  C   UNL     1      -1.619   2.185  -1.536  0.00  0.00    +0.117 A 
ATOM     19  O   UNL     1      -1.071   2.753  -2.622  0.00  0.00    -0.464 OA
ENDBRANCH   1  18
BRANCH   5  20
ATOM     20  C   UNL     1      -0.901   7.866   1.025  0.00  0.00    -0.040 A 
ATOM     21  C   UNL     1      -0.689   8.100   2.372  0.00  0.00    +0.008 A 
ATOM     22  C   UNL     1      -0.608   9.395   2.847  0.00  0.00    +0.050 A 
ATOM     23  C   UNL     1      -0.751  10.463   1.976  0.00  0.00    +0.162 A 
ATOM     24  C   UNL     1      -0.970  10.228   0.622  0.00  0.00    +0.162 A 
ATOM     25  C   UNL     1      -1.044   8.927   0.151  0.00  0.00    +0.053 A 
BRANCH  24  26
ATOM     26  O   UNL     1      -1.110  11.273  -0.237  0.00  0.00    -0.491 OA
ATOM     27  C   UNL     1      -1.332  10.956  -1.613  0.00  0.00    +0.277 C 
ENDBRANCH  24  26
BRANCH  23  28
ATOM     28  O   UNL     1      -0.677  11.738   2.443  0.00  0.00    -0.486 OA
BRANCH  28  29
ATOM     29  C   UNL     1      -0.366  11.905   3.828  0.00  0.00    +0.167 C 
ATOM     30  C   UNL     1       1.150  11.830   4.022  0.00  0.00    +0.051 C 
ATOM     31  C   UNL     1      -0.875  13.267   4.305  0.00  0.00    +0.051 C 
ENDBRANCH  28  29
ENDBRANCH  23  28
ENDBRANCH   5  20
BRANCH  11  32
ATOM     32  C   UNL     1       0.401   0.152  -0.198  0.00  0.00    +0.338 C 
ATOM     33  O   UNL     1       0.253  -0.498   0.820  0.00  0.00    -0.245 OA
BRANCH  32  34
ATOM     34  O   UNL     1       0.653  -0.474  -1.367  0.00  0.00    -0.459 OA
BRANCH  34  35
ATOM     35  C   UNL     1       0.732  -1.900  -1.335  0.00  0.00    +0.264 C 
BRANCH  35  36
ATOM     36  C   UNL     1       1.022  -2.426  -2.743  0.00  0.00    +0.156 C 
ATOM     37  C   UNL     1       1.027  -3.971  -2.749  0.00  0.00    +0.037 C 
ATOM     38  C   UNL     1       2.155  -4.338  -3.738  0.00  0.00    +0.031 C 
ATOM     39  C   UNL     1       2.699  -2.972  -4.212  0.00  0.00    +0.160 C 
ATOM     40  O   UNL     1       2.353  -2.049  -3.156  0.00  0.00    -0.373 OA
ENDBRANCH  35  36
ENDBRANCH  34  35
ENDBRANCH  32  34
ENDBRANCH  11  32
TORSDOF 9
