REMARK  Name = ZINC09193486
REMARK  8 active torsions:
REMARK  status: ('A' for Active; 'I' for Inactive)
REMARK    1  A    between atoms: C_1  and  C_2
REMARK    2  A    between atoms: C_2  and  O_3
REMARK    3  A    between atoms: O_3  and  C_4
REMARK    4  A    between atoms: C_6  and  C_22
REMARK    5  A    between atoms: C_9  and  O_10
REMARK    6  A    between atoms: O_10  and  C_11
REMARK    7  A    between atoms: C_11  and  C_12
REMARK    8  A    between atoms: N_23  and  N_24
REMARK                            x       y       z     vdW  Elec       q    Type
REMARK                         _______ _______ _______ _____ _____    ______ ____
ROOT
ATOM      1  C   UNL     1       5.362   7.876  -0.007  0.00  0.00    +0.163 A 
ATOM      2  C   UNL     1       4.101   7.310   0.001  0.00  0.00    +0.059 A 
ATOM      3  C   UNL     1       3.962   5.920  -0.005  0.00  0.00    -0.002 A 
ATOM      4  C   UNL     1       5.100   5.109  -0.013  0.00  0.00    +0.013 A 
ATOM      5  C   UNL     1       6.354   5.680  -0.027  0.00  0.00    +0.050 A 
ATOM      6  C   UNL     1       6.491   7.061  -0.021  0.00  0.00    +0.162 A 
ENDROOT
BRANCH   3   7
ATOM      7  C   UNL     1       2.620   5.311   0.005  0.00  0.00    +0.138 C 
ATOM      8  N   UNL     1       2.493   4.019  -0.001  0.00  0.00    -0.188 NA
BRANCH   8   9
ATOM      9  N   UNL     1       1.217   3.440   0.009  0.00  0.00    -0.215 N 
ATOM     10  C   UNL     1       1.083   2.067   0.003  0.00  0.00    +0.179 A 
ATOM     11  N   UNL     1      -0.016   1.346   0.009  0.00  0.00    -0.224 NA
ATOM     12  C   UNL     1       0.002  -0.004   0.002  0.00  0.00    +0.080 A 
ATOM     13  C   UNL     1      -1.099  -0.892   0.007  0.00  0.00    +0.029 A 
ATOM     14  C   UNL     1      -0.904  -2.248  -0.003  0.00  0.00    +0.002 A 
ATOM     15  C   UNL     1       0.370  -2.798  -0.018  0.00  0.00    +0.001 A 
ATOM     16  C   UNL     1       1.469  -1.959  -0.023  0.00  0.00    +0.017 A 
ATOM     17  C   UNL     1       1.284  -0.599  -0.013  0.00  0.00    +0.041 A 
ATOM     18  S   UNL     1       2.359   0.815  -0.016  0.00  0.00    -0.051 S 
ATOM     19  H   UNL     1       0.429   4.005   0.019  0.00  0.00    +0.176 HD
ENDBRANCH   8   9
ENDBRANCH   3   7
BRANCH   1  20
ATOM     20  O   UNL     1       5.500   9.229  -0.002  0.00  0.00    -0.489 OA
BRANCH  20  22
ATOM     21  C   UNL     1       4.653  11.492   0.017  0.00  0.00    +0.048 C 
ATOM     22  C   UNL     1       4.300  10.004   0.013  0.00  0.00    +0.226 C 
ENDBRANCH  20  22
ENDBRANCH   1  20
BRANCH   6  23
ATOM     23  O   UNL     1       7.731   7.619  -0.028  0.00  0.00    -0.484 OA
BRANCH  23  24
ATOM     24  C   UNL     1       8.845   6.725  -0.042  0.00  0.00    +0.265 C 
BRANCH  24  25
ATOM     25  C   UNL     1      10.126   7.519  -0.049  0.00  0.00    -0.003 A 
ATOM     26  C   UNL     1      10.088   8.880  -0.047  0.00  0.00    +0.007 A 
ATOM     27  C   UNL     1      11.262   9.630  -0.046  0.00  0.00    +0.001 A 
ATOM     28  C   UNL     1      12.481   9.025  -0.060  0.00  0.00    +0.008 A 
ATOM     29  C   UNL     1      12.560   7.622  -0.069  0.00  0.00    -0.018 A 
ATOM     30  C   UNL     1      11.366   6.858  -0.063  0.00  0.00    -0.011 A 
ATOM     31  C   UNL     1      11.446   5.455  -0.072  0.00  0.00    +0.009 A 
ATOM     32  C   UNL     1      12.665   4.850  -0.086  0.00  0.00    +0.001 A 
ATOM     33  C   UNL     1      13.839   5.601  -0.092  0.00  0.00    +0.001 A 
ATOM     34  C   UNL     1      13.801   6.961  -0.084  0.00  0.00    +0.008 A 
ENDBRANCH  24  25
ENDBRANCH  23  24
ENDBRANCH   6  23
TORSDOF 7
