REMARK  Name = ZINC39029502
REMARK  5 active torsions:
REMARK  status: ('A' for Active; 'I' for Inactive)
REMARK    1  A    between atoms: C_1  and  N_2
REMARK    2  A    between atoms: C_9  and  O_34
REMARK    3  A    between atoms: C_11  and  C_15
REMARK    4  A    between atoms: C_15  and  N_17
REMARK    5  A    between atoms: C_21  and  C_24
REMARK                            x       y       z     vdW  Elec       q    Type
REMARK                         _______ _______ _______ _____ _____    ______ ____
ROOT
ATOM      1  N   UNL     1       2.024  -2.264  -2.353  0.00  0.00    -0.156 NA
ATOM      2  C   UNL     1       1.928  -2.687  -3.616  0.00  0.00    +0.163 A 
ATOM      3  N   UNL     1       0.981  -3.490  -4.168  0.00  0.00    -0.339 N 
ATOM      4  H   UNL     1       0.252  -3.836  -3.630  0.00  0.00    +0.167 HD
ATOM      5  C   UNL     1       1.072  -3.801  -5.489  0.00  0.00    +0.031 A 
ATOM      6  C   UNL     1       2.103  -3.288  -6.170  0.00  0.00    +0.070 A 
ATOM      7  S   UNL     1       2.946  -2.348  -4.911  0.00  0.00    -0.060 S 
ENDROOT
BRANCH   5   8
ATOM      8  C   UNL     1       0.054  -4.687  -6.159  0.00  0.00    +0.012 C 
ATOM      9  C   UNL     1      -1.332  -4.048  -6.044  0.00  0.00    +0.016 C 
ATOM     10  C   UNL     1      -2.366  -4.948  -6.724  0.00  0.00    -0.010 C 
ATOM     11  C   UNL     1      -2.003  -5.116  -8.201  0.00  0.00    +0.007 C 
ATOM     12  C   UNL     1      -0.617  -5.755  -8.316  0.00  0.00    -0.010 C 
ATOM     13  C   UNL     1       0.417  -4.855  -7.636  0.00  0.00    +0.016 C 
ATOM     14  C   UNL     1      -0.629  -7.124  -7.634  0.00  0.00    +0.007 C 
ATOM     15  C   UNL     1      -0.992  -6.956  -6.157  0.00  0.00    -0.010 C 
ATOM     16  C   UNL     1      -2.377  -6.317  -6.043  0.00  0.00    +0.007 C 
ATOM     17  C   UNL     1       0.042  -6.056  -5.477  0.00  0.00    +0.016 C 
ENDBRANCH   5   8
BRANCH   1  18
ATOM     18  C   UNL     1       1.118  -2.637  -1.459  0.00  0.00    +0.253 C 
ATOM     19  O   UNL     1       0.200  -3.365  -1.789  0.00  0.00    -0.273 OA
BRANCH  18  29
ATOM     20  C   UNL     1      -0.018   1.461   0.010  0.00  0.00    +0.138 C 
ATOM     21  N   UNL     1       0.002  -0.004   0.002  0.00  0.00    -0.273 N 
ATOM     22  C   UNL     1      -1.202  -0.715   0.004  0.00  0.00    +0.042 A 
ATOM     23  C   UNL     1      -2.384  -0.088  -0.368  0.00  0.00    +0.024 A 
ATOM     24  C   UNL     1      -3.569  -0.796  -0.365  0.00  0.00    +0.002 A 
ATOM     25  C   UNL     1      -3.581  -2.127   0.009  0.00  0.00    +0.000 A 
ATOM     26  C   UNL     1      -2.406  -2.754   0.381  0.00  0.00    +0.008 A 
ATOM     27  C   UNL     1      -1.217  -2.052   0.379  0.00  0.00    +0.003 A 
ATOM     28  C   UNL     1       0.065  -2.732   0.783  0.00  0.00    +0.167 C 
ATOM     29  C   UNL     1       1.226  -2.160  -0.033  0.00  0.00    +0.196 C 
ATOM     30  C   UNL     1       1.179  -0.656  -0.013  0.00  0.00    +0.234 C 
ATOM     31  O   UNL     1       2.214  -0.025  -0.004  0.00  0.00    -0.274 OA
BRANCH  28  32
ATOM     32  O   UNL     1      -0.042  -4.135   0.538  0.00  0.00    -0.386 OA
ATOM     33  H   UNL     1      -0.759  -4.565   1.025  0.00  0.00    +0.210 HD
ENDBRANCH  28  32
ENDBRANCH  18  29
ENDBRANCH   1  18
TORSDOF 4
