REMARK  Name = ZINC08974192
REMARK  8 active torsions:
REMARK  status: ('A' for Active; 'I' for Inactive)
REMARK    1  A    between atoms: C_1  and  C_2
REMARK    2  A    between atoms: C_2  and  C_3
REMARK    3  A    between atoms: C_2  and  C_4
REMARK    4  A    between atoms: C_2  and  C_5
REMARK    5  A    between atoms: C_16  and  N_25
REMARK    6  A    between atoms: N_25  and  S_26
REMARK    7  A    between atoms: S_26  and  C_29
REMARK    8  A    between atoms: C_33  and  N_35
REMARK                            x       y       z     vdW  Elec       q    Type
REMARK                         _______ _______ _______ _____ _____    ______ ____
ROOT
ATOM      1  C   UNL     1       0.031   1.592   1.431  0.00  0.00    -0.005 C 
ATOM      2  C   UNL     1       0.914   1.155   0.258  0.00  0.00    +0.007 C 
ATOM      3  C   UNL     1       0.222   1.552  -1.040  0.00  0.00    +0.045 C 
ATOM      4  C   UNL     1      -0.077   3.022  -1.114  0.00  0.00    +0.181 C 
ATOM      5  C   UNL     1      -0.624   3.669   0.153  0.00  0.00    +0.064 C 
ATOM      6  C   UNL     1      -0.048   3.112   1.441  0.00  0.00    +0.016 C 
ATOM      7  C   UNL     1      -0.132   5.104  -0.010  0.00  0.00    +0.003 A 
ATOM      8  C   UNL     1      -0.524   6.284   0.607  0.00  0.00    +0.032 A 
ATOM      9  C   UNL     1       0.077   7.481   0.286  0.00  0.00    +0.056 A 
ATOM     10  C   UNL     1       1.101   7.500  -0.685  0.00  0.00    +0.008 A 
ATOM     11  C   UNL     1       1.736   8.699  -1.046  0.00  0.00    +0.010 A 
ATOM     12  C   UNL     1       2.721   8.684  -1.986  0.00  0.00    +0.001 A 
ATOM     13  C   UNL     1       3.110   7.494  -2.597  0.00  0.00    +0.001 A 
ATOM     14  C   UNL     1       2.517   6.313  -2.271  0.00  0.00    +0.012 A 
ATOM     15  C   UNL     1       1.496   6.291  -1.306  0.00  0.00    +0.026 A 
ATOM     16  C   UNL     1       0.861   5.078  -0.951  0.00  0.00    +0.132 A 
ATOM     17  O   UNL     1       1.085   3.810  -1.409  0.00  0.00    -0.487 OA
ENDROOT
BRANCH   1  19
ATOM     18  C   UNL     1       2.040   1.697   2.913  0.00  0.00    +0.011 C 
ATOM     19  C   UNL     1       0.641   1.100   2.745  0.00  0.00    -0.035 C 
ATOM     20  C   UNL     1      -0.244   1.538   3.914  0.00  0.00    +0.011 C 
ATOM     21  C   UNL     1       0.737  -0.426   2.723  0.00  0.00    +0.011 C 
ENDBRANCH   1  19
BRANCH   9  22
ATOM     22  N   UNL     1      -0.322   8.664   0.914  0.00  0.00    -0.216 N 
ATOM     23  H   UNL     1      -0.333   9.497   0.417  0.00  0.00    +0.174 HD
BRANCH  22  24
ATOM     24  S   UNL     1      -0.777   8.643   2.506  0.00  0.00    +0.072 S 
ATOM     25  O   UNL     1      -0.995   9.995   2.884  0.00  0.00    -0.150 OA
ATOM     26  O   UNL     1      -1.782   7.646   2.628  0.00  0.00    -0.150 OA
BRANCH  24  27
ATOM     27  C   UNL     1       0.609   8.076   3.436  0.00  0.00    +0.111 A 
ATOM     28  C   UNL     1       0.770   6.726   3.682  0.00  0.00    +0.029 A 
ATOM     29  C   UNL     1       1.859   6.281   4.409  0.00  0.00    +0.004 A 
ATOM     30  C   UNL     1       2.782   7.188   4.896  0.00  0.00    +0.033 A 
ATOM     31  C   UNL     1       2.618   8.539   4.653  0.00  0.00    +0.128 A 
ATOM     32  C   UNL     1       1.531   8.983   3.924  0.00  0.00    +0.061 A 
BRANCH  31  33
ATOM     33  N   UNL     1       3.606   9.510   5.175  0.00  0.00    +0.056 N 
ATOM     34  O   UNL     1       3.461  10.700   4.962  0.00  0.00    -0.126 OA
ATOM     35  O   UNL     1       4.563   9.118   5.818  0.00  0.00    -0.126 OA
ENDBRANCH  31  33
ENDBRANCH  24  27
ENDBRANCH  22  24
ENDBRANCH   9  22
TORSDOF 5
