REMARK  Name = ZINC62604122
REMARK  6 active torsions:
REMARK  status: ('A' for Active; 'I' for Inactive)
REMARK    1  A    between atoms: C_1  and  C_2
REMARK    2  A    between atoms: C_6  and  C_22
REMARK    3  A    between atoms: N_9  and  S_10
REMARK    4  A    between atoms: S_10  and  C_13
REMARK    5  A    between atoms: C_17  and  N_19
REMARK    6  A    between atoms: C_22  and  C_23
REMARK                            x       y       z     vdW  Elec       q    Type
REMARK                         _______ _______ _______ _____ _____    ______ ____
ROOT
ATOM      1  C   UNL     1      -0.446   1.433   0.288  0.00  0.00    +0.028 C 
ATOM      2  C   UNL     1      -0.205  -0.072   0.157  0.00  0.00    +0.102 C 
ATOM      3  C   UNL     1       0.293  -0.393  -1.257  0.00  0.00    +0.180 C 
ATOM      4  O   UNL     1       0.691  -1.765  -1.315  0.00  0.00    -0.373 OA
ATOM      5  C   UNL     1       1.780  -2.096  -0.451  0.00  0.00    +0.138 C 
ATOM      6  C   UNL     1       1.359  -1.861   1.005  0.00  0.00    +0.141 C 
ATOM      7  N   UNL     1       0.824  -0.495   1.119  0.00  0.00    -0.169 NA
ENDROOT
BRANCH   7   8
ATOM      8  S   UNL     1       1.366   0.537   2.296  0.00  0.00    +0.061 S 
ATOM      9  O   UNL     1       2.586  -0.006   2.782  0.00  0.00    -0.153 OA
ATOM     10  O   UNL     1       1.277   1.849   1.759  0.00  0.00    -0.153 OA
BRANCH   8  11
ATOM     11  C   UNL     1       0.215   0.458   3.628  0.00  0.00    +0.108 A 
ATOM     12  C   UNL     1      -0.869   1.316   3.656  0.00  0.00    +0.028 A 
ATOM     13  C   UNL     1      -1.772   1.254   4.700  0.00  0.00    +0.004 A 
ATOM     14  C   UNL     1      -1.591   0.335   5.717  0.00  0.00    +0.033 A 
ATOM     15  C   UNL     1      -0.508  -0.522   5.689  0.00  0.00    +0.128 A 
ATOM     16  C   UNL     1       0.393  -0.464   4.642  0.00  0.00    +0.061 A 
BRANCH  15  17
ATOM     17  N   UNL     1      -0.314  -1.506   6.778  0.00  0.00    +0.056 N 
ATOM     18  O   UNL     1      -1.104  -1.559   7.692  0.00  0.00    -0.126 OA
ATOM     19  O   UNL     1       0.633  -2.256   6.753  0.00  0.00    -0.126 OA
ENDBRANCH  15  17
ENDBRANCH   8  11
ENDBRANCH   7   8
BRANCH   5  20
ATOM     20  C   UNL     1       2.159  -3.566  -0.644  0.00  0.00    +0.068 C 
BRANCH  20  21
ATOM     21  C   UNL     1       2.684  -3.770  -2.041  0.00  0.00    -0.045 A 
ATOM     22  C   UNL     1       1.814  -4.093  -3.066  0.00  0.00    +0.004 A 
ATOM     23  C   UNL     1       2.296  -4.280  -4.348  0.00  0.00    +0.000 A 
ATOM     24  C   UNL     1       3.647  -4.144  -4.606  0.00  0.00    +0.000 A 
ATOM     25  C   UNL     1       4.516  -3.820  -3.581  0.00  0.00    +0.000 A 
ATOM     26  C   UNL     1       4.034  -3.628  -2.300  0.00  0.00    +0.004 A 
ENDBRANCH  20  21
ENDBRANCH   5  20
TORSDOF 5
