REMARK  Name = ZINC20857275
REMARK  5 active torsions:
REMARK  status: ('A' for Active; 'I' for Inactive)
REMARK    1  A    between atoms: C_1  and  C_2
REMARK    2  A    between atoms: C_5  and  S_9
REMARK    3  A    between atoms: C_6  and  C_8
REMARK    4  A    between atoms: S_9  and  N_12
REMARK    5  A    between atoms: N_18  and  C_21
REMARK                            x       y       z     vdW  Elec       q    Type
REMARK                         _______ _______ _______ _____ _____    ______ ____
ROOT
ATOM      1  N   UNL     1      -1.710   2.314   0.219  0.00  0.00    -0.097 NA
ATOM      2  C   UNL     1      -0.533   1.605   0.164  0.00  0.00    +0.200 C 
ATOM      3  N   UNL     1      -0.559   0.302   0.126  0.00  0.00    -0.330 N 
ATOM      4  N   UNL     1       0.670   2.269   0.154  0.00  0.00    -0.299 N 
ATOM      5  C   UNL     1       1.935   1.538  -0.014  0.00  0.00    +0.126 C 
ATOM      6  C   UNL     1       2.733   2.209  -1.143  0.00  0.00    +0.124 C 
ATOM      7  N   UNL     1       2.879   3.641  -0.849  0.00  0.00    -0.325 N 
ATOM      8  C   UNL     1       1.573   4.314  -0.819  0.00  0.00    +0.124 C 
ATOM      9  C   UNL     1       0.727   3.730   0.317  0.00  0.00    +0.126 C 
ATOM     10  H   UNL     1       0.383  -0.265   0.082  0.00  0.00    +0.145 HD
ATOM     11  H   UNL     1      -1.521  -0.230   0.139  0.00  0.00    +0.145 HD
ENDROOT
BRANCH   7  12
ATOM     12  C   UNL     1       3.739   4.256  -1.764  0.00  0.00    +0.065 A 
ATOM     13  C   UNL     1       3.396   4.319  -3.108  0.00  0.00    +0.026 A 
ATOM     14  C   UNL     1       4.245   4.931  -4.009  0.00  0.00    +0.002 A 
ATOM     15  C   UNL     1       5.442   5.472  -3.576  0.00  0.00    +0.003 A 
ATOM     16  C   UNL     1       5.791   5.408  -2.240  0.00  0.00    +0.040 A 
ATOM     17  C   UNL     1       4.943   4.801  -1.331  0.00  0.00    +0.144 A 
ATOM     18  F   UNL     1       5.284   4.738  -0.025  0.00  0.00    -0.204 F 
ENDBRANCH   7  12
BRANCH   1  19
ATOM     19  S   UNL     1      -3.160   1.522   0.105  0.00  0.00    +0.102 S 
ATOM     20  O   UNL     1      -4.173   2.506   0.259  0.00  0.00    -0.146 OA
ATOM     21  O   UNL     1      -3.077   0.686  -1.041  0.00  0.00    -0.146 OA
BRANCH  19  26
ATOM     22  C   UNL     1      -3.572  -2.141   4.882  0.00  0.00    +0.044 C 
ATOM     23  C   UNL     1      -3.469  -1.226   3.689  0.00  0.00    -0.050 A 
ATOM     24  C   UNL     1      -3.406  -1.757   2.414  0.00  0.00    +0.005 A 
ATOM     25  C   UNL     1      -3.312  -0.918   1.320  0.00  0.00    +0.029 A 
ATOM     26  C   UNL     1      -3.281   0.452   1.500  0.00  0.00    +0.115 A 
ATOM     27  C   UNL     1      -3.339   0.983   2.775  0.00  0.00    -0.023 A 
ATOM     28  C   UNL     1      -3.439   0.144   3.869  0.00  0.00    +0.008 A 
ATOM     29  C   UNL     1      -3.299   2.476   2.972  0.00  0.00    +0.046 C 
ENDBRANCH  19  26
ENDBRANCH   1  19
TORSDOF 3
