REMARK  Name = ZINC04555584
REMARK  4 active torsions:
REMARK  status: ('A' for Active; 'I' for Inactive)
REMARK    1  A    between atoms: C_1  and  C_2
REMARK    2  A    between atoms: C_2  and  N_41
REMARK    3  A    between atoms: C_10  and  O_22
REMARK    4  A    between atoms: C_12  and  C_15
REMARK                            x       y       z     vdW  Elec       q    Type
REMARK                         _______ _______ _______ _____ _____    ______ ____
ROOT
ATOM      1  C   UNL     1       0.920  -0.516   1.029  0.00  0.00    -0.074 C 
ATOM      2  C   UNL     1       2.371  -0.252   0.616  0.00  0.00    +0.018 C 
ATOM      3  C   UNL     1       2.504   1.225   0.262  0.00  0.00    -0.027 A 
ATOM      4  C   UNL     1       1.396   1.959  -0.001  0.00  0.00    -0.021 A 
ATOM      5  S   UNL     1       2.002   3.587  -0.350  0.00  0.00    -0.080 S 
ATOM      6  C   UNL     1       3.677   3.296  -0.153  0.00  0.00    +0.080 A 
ATOM      7  C   UNL     1       3.765   1.937   0.179  0.00  0.00    +0.067 A 
ATOM      8  C   UNL     1       5.122   1.385   0.424  0.00  0.00    +0.220 C 
ATOM      9  N   UNL     1       6.147   2.128   0.107  0.00  0.00    -0.223 NA
ATOM     10  C   UNL     1       6.060   3.423  -0.556  0.00  0.00    +0.227 C 
ATOM     11  N   UNL     1       4.785   4.101  -0.258  0.00  0.00    -0.313 N 
ATOM     12  C   UNL     1      -0.018   1.471   0.010  0.00  0.00    -0.035 C 
ATOM     13  H   UNL     1       4.731   5.063  -0.143  0.00  0.00    +0.149 HD
ATOM     14  N   UNL     1       0.012  -0.011  -0.021  0.00  0.00    +0.383 N 
ATOM     15  H   UNL     1       0.358  -0.319  -0.938  0.00  0.00    -0.081 HD
ENDROOT
BRANCH  10  16
ATOM     16  C   UNL     1       6.174   3.222  -2.045  0.00  0.00    +0.030 A 
ATOM     17  C   UNL     1       5.453   4.026  -2.908  0.00  0.00    +0.010 A 
ATOM     18  C   UNL     1       5.562   3.845  -4.274  0.00  0.00    +0.001 A 
ATOM     19  C   UNL     1       6.383   2.854  -4.778  0.00  0.00    +0.003 A 
ATOM     20  C   UNL     1       7.101   2.046  -3.917  0.00  0.00    +0.039 A 
ATOM     21  C   UNL     1       6.997   2.229  -2.548  0.00  0.00    +0.130 A 
ATOM     22  F   UNL     1       7.698   1.440  -1.705  0.00  0.00    -0.205 F 
ENDBRANCH  10  16
BRANCH  14  24
ATOM     23  C   UNL     1      -1.855  -0.200   1.586  0.00  0.00    -0.017 C 
ATOM     24  C   UNL     1      -1.349  -0.550   0.185  0.00  0.00    -0.082 C 
ENDBRANCH  14  24
BRANCH   8  25
ATOM     25  O   UNL     1       5.290   0.153   0.956  0.00  0.00    -0.492 OA
ATOM     26  H   UNL     1       6.216  -0.103   1.071  0.00  0.00    +0.294 HD
ENDBRANCH   8  25
TORSDOF 3
