REMARK  Name = ZINC04868920
REMARK  3 active torsions:
REMARK  status: ('A' for Active; 'I' for Inactive)
REMARK    1  A    between atoms: C_1  and  N_2
REMARK    2  A    between atoms: C_9  and  C_12
REMARK    3  A    between atoms: C_9  and  O_24
REMARK                            x       y       z     vdW  Elec       q    Type
REMARK                         _______ _______ _______ _____ _____    ______ ____
ROOT
ATOM      1  C   UNL     1      -1.513   4.559   2.922  0.00  0.00    +0.138 C 
ATOM      2  N   UNL     1      -0.638   4.313   1.772  0.00  0.00    -0.271 N 
ATOM      3  C   UNL     1      -0.941   4.703   0.467  0.00  0.00    +0.042 A 
ATOM      4  C   UNL     1      -2.051   5.368  -0.051  0.00  0.00    +0.025 A 
ATOM      5  C   UNL     1      -2.124   5.647  -1.400  0.00  0.00    +0.017 A 
ATOM      6  C   UNL     1      -1.098   5.271  -2.249  0.00  0.00    +0.018 A 
ATOM      7  C   UNL     1       0.008   4.610  -1.741  0.00  0.00    +0.024 A 
ATOM      8  C   UNL     1       0.082   4.331  -0.395  0.00  0.00    +0.016 A 
ATOM      9  C   UNL     1       1.125   3.641   0.455  0.00  0.00    +0.178 C 
ATOM     10  C   UNL     1       0.548   3.688   1.854  0.00  0.00    +0.257 C 
ATOM     11  O   UNL     1       1.060   3.243   2.860  0.00  0.00    -0.272 OA
ATOM     12 BR   UNL     1      -1.206   5.657  -4.097  0.00  0.00    -0.050 Br
ENDROOT
BRANCH   9  13
ATOM     13  C   UNL     1       1.314   2.193   0.001  0.00  0.00    +0.106 C 
ATOM     14  C   UNL     1       2.240   1.457   0.978  0.00  0.00    +0.020 C 
ATOM     15  C   UNL     1       2.490   0.040   0.470  0.00  0.00    +0.036 C 
ATOM     16  C   UNL     1       1.197  -0.689   0.228  0.00  0.00    -0.037 A 
ATOM     17  C   UNL     1       1.194  -2.072   0.223  0.00  0.00    +0.004 A 
ATOM     18  C   UNL     1       0.022  -2.768  -0.008  0.00  0.00    +0.000 A 
ATOM     19  C   UNL     1      -1.163  -2.091  -0.236  0.00  0.00    +0.001 A 
ATOM     20  C   UNL     1      -1.180  -0.712  -0.232  0.00  0.00    +0.011 A 
ATOM     21  C   UNL     1       0.002  -0.004   0.002  0.00  0.00    +0.021 A 
ATOM     22  C   UNL     1      -0.018   1.472   0.010  0.00  0.00    +0.170 C 
ATOM     23  O   UNL     1      -1.064   2.085   0.018  0.00  0.00    -0.292 OA
ENDBRANCH   9  13
BRANCH   9  24
ATOM     24  O   UNL     1       2.365   4.349   0.399  0.00  0.00    -0.374 OA
ATOM     25  H   UNL     1       2.303   5.273   0.676  0.00  0.00    +0.211 HD
ENDBRANCH   9  24
TORSDOF 2
