REMARK  Name = ZINC50122311
REMARK  2 active torsions:
REMARK  status: ('A' for Active; 'I' for Inactive)
REMARK    1  A    between atoms: C_6  and  C_7
REMARK    2  A    between atoms: N_9  and  C_12
REMARK                            x       y       z     vdW  Elec       q    Type
REMARK                         _______ _______ _______ _____ _____    ______ ____
ROOT
ATOM      1  C   UNL     1      -1.294  -0.773   0.010  0.00  0.00    +0.172 C 
ATOM      2  C   UNL     1      -1.889  -0.798   1.405  0.00  0.00    +0.101 C 
ATOM      3  N   UNL     1      -3.105  -0.160   1.274  0.00  0.00    -0.278 N 
ATOM      4  C   UNL     1      -3.291   0.232  -0.022  0.00  0.00    +0.160 C 
ATOM      5  N   UNL     1      -2.310  -0.081  -0.798  0.00  0.00    -0.366 N 
ATOM      6  N   UNL     1      -1.373  -1.303   2.477  0.00  0.00    -0.388 N 
ATOM      7  H   UNL     1      -0.503  -1.730   2.441  0.00  0.00    +0.157 HD
ATOM      8  H   UNL     1      -1.856  -1.256   3.316  0.00  0.00    +0.157 HD
ATOM      9  H   UNL     1      -2.250   0.108  -1.747  0.00  0.00    +0.161 HD
ENDROOT
BRANCH   1  15
ATOM     10  C   UNL     1      -0.017   1.378   0.010  0.00  0.00    +0.010 A 
ATOM     11  C   UNL     1       1.170   2.091   0.002  0.00  0.00    +0.050 A 
ATOM     12  C   UNL     1       2.377   1.413  -0.013  0.00  0.00    +0.162 A 
ATOM     13  C   UNL     1       2.396   0.025  -0.020  0.00  0.00    +0.162 A 
ATOM     14  C   UNL     1       1.207  -0.684  -0.013  0.00  0.00    +0.055 A 
ATOM     15  C   UNL     1       0.002  -0.004   0.002  0.00  0.00    -0.014 A 
ATOM     16  O   UNL     1       3.591  -0.632  -0.034  0.00  0.00    -0.488 OA
ATOM     17  C   UNL     1       4.358  -0.510  -1.234  0.00  0.00    +0.232 C 
ATOM     18  C   UNL     1       5.186   0.764  -1.217  0.00  0.00    +0.082 C 
ATOM     19  C   UNL     1       4.323   2.016  -1.220  0.00  0.00    +0.232 C 
ATOM     20  O   UNL     1       3.554   2.104  -0.019  0.00  0.00    -0.488 OA
ENDBRANCH   1  15
BRANCH   3  21
ATOM     21  C   UNL     1      -4.057   0.063   2.364  0.00  0.00    +0.081 C 
ATOM     22  C   UNL     1      -5.439   0.607   1.994  0.00  0.00    +0.025 C 
ATOM     23  C   UNL     1      -4.424   1.511   2.696  0.00  0.00    +0.025 C 
ENDBRANCH   3  21
TORSDOF 2
