REMARK  Name = ZINC06156816
REMARK  6 active torsions:
REMARK  status: ('A' for Active; 'I' for Inactive)
REMARK    1  A    between atoms: C_7  and  N_14
REMARK    2  A    between atoms: C_9  and  C_10
REMARK    3  A    between atoms: N_17  and  S_20
REMARK    4  A    between atoms: S_20  and  C_23
REMARK    5  A    between atoms: C_28  and  O_29
REMARK    6  A    between atoms: O_29  and  C_30
REMARK                            x       y       z     vdW  Elec       q    Type
REMARK                         _______ _______ _______ _____ _____    ______ ____
ROOT
ATOM      1  N   UNL     1       1.361   2.034   0.000  0.00  0.00    -0.327 N 
ATOM      2  C   UNL     1      -0.019   1.534   0.058  0.00  0.00    +0.122 C 
ATOM      3  C   UNL     1      -0.005   0.001   0.048  0.00  0.00    +0.128 C 
ATOM      4  N   UNL     1       0.872  -0.465   1.133  0.00  0.00    -0.173 NA
ATOM      5  C   UNL     1       2.228   0.097   1.222  0.00  0.00    +0.128 C 
ATOM      6  C   UNL     1       2.126   1.625   1.186  0.00  0.00    +0.122 C 
ENDROOT
BRANCH   1  13
ATOM      7  C   UNL     1      -0.029   3.876  -3.536  0.00  0.00    +0.001 A 
ATOM      8  C   UNL     1       0.013   5.263  -3.649  0.00  0.00    +0.002 A 
ATOM      9  C   UNL     1       0.496   6.036  -2.637  0.00  0.00    +0.026 A 
ATOM     10  C   UNL     1       0.960   5.429  -1.457  0.00  0.00    +0.049 A 
ATOM     11  C   UNL     1       0.916   4.019  -1.346  0.00  0.00    +0.019 A 
ATOM     12  C   UNL     1       0.413   3.254  -2.407  0.00  0.00    +0.012 A 
ATOM     13  C   UNL     1       1.384   3.411  -0.156  0.00  0.00    +0.041 A 
ATOM     14  C   UNL     1       1.861   4.237   0.850  0.00  0.00    +0.054 A 
ATOM     15  C   UNL     1       1.875   5.612   0.662  0.00  0.00    +0.122 A 
ATOM     16  N   UNL     1       1.441   6.243  -0.454  0.00  0.00    -0.351 N 
ATOM     17  H   UNL     1       1.467   7.266  -0.547  0.00  0.00    +0.166 HD
BRANCH  15  18
ATOM     18  C   UNL     1       2.401   6.496   1.763  0.00  0.00    +0.432 C 
ATOM     19  F   UNL     1       2.213   7.838   1.413  0.00  0.00    -0.164 F 
ATOM     20  F   UNL     1       1.712   6.223   2.949  0.00  0.00    -0.164 F 
ATOM     21  F   UNL     1       3.765   6.249   1.948  0.00  0.00    -0.164 F 
ENDBRANCH  15  18
ENDBRANCH   1  13
BRANCH   4  22
ATOM     22  S   UNL     1       0.345  -1.591   2.227  0.00  0.00    +0.064 S 
ATOM     23  O   UNL     1       1.130  -1.417   3.399  0.00  0.00    -0.153 OA
ATOM     24  O   UNL     1      -1.074  -1.511   2.242  0.00  0.00    -0.153 OA
BRANCH  22  25
ATOM     25  C   UNL     1       0.753  -3.178   1.579  0.00  0.00    +0.147 A 
ATOM     26  C   UNL     1       1.672  -3.976   2.232  0.00  0.00    +0.032 A 
ATOM     27  C   UNL     1       1.989  -5.223   1.726  0.00  0.00    +0.002 A 
ATOM     28  C   UNL     1       1.396  -5.670   0.560  0.00  0.00    +0.004 A 
ATOM     29  C   UNL     1       0.480  -4.873  -0.100  0.00  0.00    +0.048 A 
ATOM     30  C   UNL     1       0.156  -3.624   0.408  0.00  0.00    +0.156 A 
BRANCH  30  31
ATOM     31  O   UNL     1      -0.744  -2.838  -0.239  0.00  0.00    -0.404 OA
BRANCH  31  32
ATOM     32  C   UNL     1      -1.318  -3.362  -1.438  0.00  0.00    +0.575 C 
ATOM     33  F   UNL     1      -1.997  -4.551  -1.149  0.00  0.00    -0.133 F 
ATOM     34  F   UNL     1      -2.216  -2.430  -1.971  0.00  0.00    -0.133 F 
ATOM     35  F   UNL     1      -0.305  -3.617  -2.368  0.00  0.00    -0.133 F 
ENDBRANCH  31  32
ENDBRANCH  30  31
ENDBRANCH  22  25
ENDBRANCH   4  22
TORSDOF 6
