REMARK  Name = ZINC35870343
REMARK  7 active torsions:
REMARK  status: ('A' for Active; 'I' for Inactive)
REMARK    1  A    between atoms: C_1  and  C_2
REMARK    2  A    between atoms: C_2  and  C_4
REMARK    3  A    between atoms: C_2  and  N_10
REMARK    4  A    between atoms: C_11  and  C_13
REMARK    5  A    between atoms: C_18  and  N_37
REMARK    6  A    between atoms: N_26  and  C_29
REMARK    7  A    between atoms: C_29  and  C_30
REMARK                            x       y       z     vdW  Elec       q    Type
REMARK                         _______ _______ _______ _____ _____    ______ ____
ROOT
ATOM      1  C   UNL     1       0.780  -1.133   3.576  0.00  0.00    +0.098 C 
ATOM      2  C   UNL     1       1.346  -2.525   3.298  0.00  0.00    +0.051 C 
ATOM      3  C   UNL     1       0.212  -3.496   3.100  0.00  0.00    -0.023 A 
ATOM      4  C   UNL     1       0.421  -4.634   2.340  0.00  0.00    +0.038 A 
ATOM      5  C   UNL     1      -0.607  -5.535   2.143  0.00  0.00    +0.127 A 
ATOM      6  C   UNL     1      -1.850  -5.303   2.703  0.00  0.00    +0.034 A 
ATOM      7  C   UNL     1      -2.064  -4.173   3.465  0.00  0.00    +0.025 A 
ATOM      8  C   UNL     1      -1.029  -3.264   3.667  0.00  0.00    +0.033 A 
ATOM      9  N   UNL     1      -1.274  -2.129   4.455  0.00  0.00    -0.329 N 
ATOM     10  C   UNL     1      -0.193  -1.204   4.759  0.00  0.00    +0.069 C 
ATOM     11  C   UNL     1      -0.672   0.201   5.088  0.00  0.00    -0.055 C 
ATOM     12  N   UNL     1      -1.901   0.187   5.881  0.00  0.00    +0.385 N 
ATOM     13  C   UNL     1      -2.964  -0.462   5.100  0.00  0.00    -0.059 C 
ATOM     14  C   UNL     1      -2.633  -1.947   4.972  0.00  0.00    +0.087 C 
ATOM     15  H   UNL     1      -1.746  -0.328   6.735  0.00  0.00    -0.081 HD
ENDROOT
BRANCH   1  17
ATOM     16  N   UNL     1       0.711  -0.489   1.189  0.00  0.00    -0.308 N 
ATOM     17  C   UNL     1       0.051  -0.633   2.355  0.00  0.00    +0.219 C 
ATOM     18  O   UNL     1      -1.129  -0.361   2.423  0.00  0.00    -0.275 OA
ATOM     19  H   UNL     1       1.654  -0.707   1.135  0.00  0.00    +0.149 HD
BRANCH  16  21
ATOM     20  C   UNL     1      -0.019   1.526   0.010  0.00  0.00    +0.033 C 
ATOM     21  C   UNL     1       0.002  -0.004   0.002  0.00  0.00    +0.100 C 
BRANCH  21  22
ATOM     22  C   UNL     1       0.707  -0.490  -1.238  0.00  0.00    -0.027 A 
ATOM     23  C   UNL     1       2.089  -0.511  -1.284  0.00  0.00    +0.005 A 
ATOM     24  C   UNL     1       2.736  -0.957  -2.421  0.00  0.00    +0.000 A 
ATOM     25  C   UNL     1       2.002  -1.382  -3.512  0.00  0.00    +0.000 A 
ATOM     26  C   UNL     1       0.620  -1.362  -3.466  0.00  0.00    +0.000 A 
ATOM     27  C   UNL     1      -0.027  -0.920  -2.327  0.00  0.00    +0.005 A 
ENDBRANCH  21  22
ENDBRANCH  16  21
ENDBRANCH   1  17
BRANCH   5  28
ATOM     28  N   UNL     1      -0.379  -6.751   1.329  0.00  0.00    +0.056 N 
ATOM     29  O   UNL     1       0.707  -6.954   0.839  0.00  0.00    -0.126 OA
ATOM     30  O   UNL     1      -1.278  -7.540   1.156  0.00  0.00    -0.126 OA
ENDBRANCH   5  28
BRANCH  12  31
ATOM     31  C   UNL     1      -2.296   1.565   6.200  0.00  0.00    -0.043 C 
BRANCH  31  32
ATOM     32  C   UNL     1      -3.491   1.546   7.118  0.00  0.00    -0.064 A 
ATOM     33  C   UNL     1      -4.768   1.541   6.590  0.00  0.00    +0.003 A 
ATOM     34  C   UNL     1      -5.864   1.523   7.432  0.00  0.00    +0.020 A 
ATOM     35  C   UNL     1      -5.683   1.509   8.803  0.00  0.00    +0.041 A 
ATOM     36  C   UNL     1      -4.404   1.514   9.331  0.00  0.00    +0.020 A 
ATOM     37  C   UNL     1      -3.309   1.526   8.489  0.00  0.00    +0.003 A 
ATOM     38 CL   UNL     1      -7.059   1.487   9.861  0.00  0.00    -0.084 Cl
ENDBRANCH  31  32
ENDBRANCH  12  31
TORSDOF 6
