REMARK  Name = ZINC54641071
REMARK  8 active torsions:
REMARK  status: ('A' for Active; 'I' for Inactive)
REMARK    1  A    between atoms: C_1  and  C_2
REMARK    2  A    between atoms: C_3  and  C_30
REMARK    3  A    between atoms: C_4  and  C_20
REMARK    4  A    between atoms: C_9  and  S_11
REMARK    5  A    between atoms: S_11  and  C_12
REMARK    6  A    between atoms: C_12  and  C_13
REMARK    7  A    between atoms: C_30  and  O_32
REMARK    8  A    between atoms: O_32  and  C_33
REMARK                            x       y       z     vdW  Elec       q    Type
REMARK                         _______ _______ _______ _____ _____    ______ ____
ROOT
ATOM      1  C   UNL     1      -0.018   1.503   0.010  0.00  0.00    +0.061 C 
ATOM      2  C   UNL     1       0.002  -0.004   0.002  0.00  0.00    +0.020 C 
ATOM      3  C   UNL     1      -1.164  -0.669   0.004  0.00  0.00    +0.082 C 
ATOM      4  C   UNL     1      -1.253  -2.171   0.007  0.00  0.00    +0.181 C 
ATOM      5  N   UNL     1       0.062  -2.737  -0.284  0.00  0.00    -0.220 N 
ATOM      6  C   UNL     1       1.208  -2.012  -0.281  0.00  0.00    +0.219 A 
ATOM      7  N   UNL     1       2.196  -2.814  -0.571  0.00  0.00    -0.187 NA
ATOM      8  C   UNL     1       1.724  -4.053  -0.770  0.00  0.00    +0.211 A 
ATOM      9  N   UNL     1       0.418  -4.046  -0.604  0.00  0.00    -0.141 NA
ATOM     10  N   UNL     1       1.212  -0.651  -0.013  0.00  0.00    -0.287 N 
ATOM     11  H   UNL     1       2.040  -0.175   0.160  0.00  0.00    +0.155 HD
ENDROOT
BRANCH   4  12
ATOM     12  C   UNL     1      -1.715  -2.644   1.361  0.00  0.00    +0.007 A 
ATOM     13  C   UNL     1      -1.099  -2.431   2.535  0.00  0.00    +0.089 A 
ATOM     14  N   UNL     1      -1.812  -3.010   3.549  0.00  0.00    -0.360 N 
ATOM     15  H   UNL     1      -1.565  -2.990   4.486  0.00  0.00    +0.165 HD
ATOM     16  C   UNL     1      -2.933  -3.627   3.040  0.00  0.00    +0.047 A 
ATOM     17  C   UNL     1      -2.925  -3.419   1.648  0.00  0.00    +0.005 A 
ATOM     18  C   UNL     1      -3.956  -3.934   0.861  0.00  0.00    +0.010 A 
ATOM     19  C   UNL     1      -4.972  -4.635   1.448  0.00  0.00    +0.001 A 
ATOM     20  C   UNL     1      -4.987  -4.838   2.820  0.00  0.00    +0.002 A 
ATOM     21  C   UNL     1      -3.974  -4.347   3.615  0.00  0.00    +0.026 A 
ENDBRANCH   4  12
BRANCH   3  22
ATOM     22  C   UNL     1      -2.364   0.077   0.003  0.00  0.00    +0.339 C 
ATOM     23  O   UNL     1      -2.325   1.293  -0.001  0.00  0.00    -0.245 OA
BRANCH  22  24
ATOM     24  O   UNL     1      -3.554  -0.560   0.004  0.00  0.00    -0.458 OA
BRANCH  24  25
ATOM     25  C   UNL     1      -4.727   0.257   0.003  0.00  0.00    +0.177 C 
ATOM     26  C   UNL     1      -5.146   0.545  -1.440  0.00  0.00    +0.044 C 
ATOM     27  C   UNL     1      -6.401   1.419  -1.442  0.00  0.00    +0.004 C 
ATOM     28  C   UNL     1      -7.533   0.687  -0.719  0.00  0.00    +0.000 C 
ATOM     29  C   UNL     1      -7.114   0.399   0.725  0.00  0.00    +0.004 C 
ATOM     30  C   UNL     1      -5.859  -0.475   0.726  0.00  0.00    +0.044 C 
ENDBRANCH  24  25
ENDBRANCH  22  24
ENDBRANCH   3  22
BRANCH   8  31
ATOM     31  S   UNL     1       2.694  -5.463  -1.188  0.00  0.00    -0.080 S 
BRANCH  31  32
ATOM     32  C   UNL     1       4.389  -4.821  -1.267  0.00  0.00    +0.112 C 
BRANCH  32  33
ATOM     33  C   UNL     1       5.334  -5.941  -1.621  0.00  0.00    -0.037 A 
ATOM     34  C   UNL     1       5.910  -6.701  -0.620  0.00  0.00    +0.004 A 
ATOM     35  C   UNL     1       6.776  -7.728  -0.944  0.00  0.00    +0.000 A 
ATOM     36  C   UNL     1       7.067  -7.995  -2.269  0.00  0.00    +0.000 A 
ATOM     37  C   UNL     1       6.491  -7.235  -3.269  0.00  0.00    +0.000 A 
ATOM     38  C   UNL     1       5.620  -6.211  -2.946  0.00  0.00    +0.004 A 
ENDBRANCH  32  33
ENDBRANCH  31  32
ENDBRANCH   8  31
TORSDOF 7
