REMARK  Name = ZINC02644623
REMARK  11 active torsions:
REMARK  status: ('A' for Active; 'I' for Inactive)
REMARK    1  A    between atoms: C_1  and  C_2
REMARK    2  A    between atoms: C_9  and  C_11
REMARK    3  A    between atoms: C_14  and  N_17
REMARK    4  A    between atoms: C_18  and  C_20
REMARK    5  A    between atoms: C_20  and  O_21
REMARK    6  A    between atoms: O_21  and  C_22
REMARK    7  A    between atoms: C_22  and  C_24
REMARK    8  A    between atoms: C_24  and  C_26
REMARK    9  A    between atoms: C_24  and  N_37
REMARK   10  A    between atoms: C_26  and  C_27
REMARK   11  A    between atoms: C_38  and  C_40
REMARK                            x       y       z     vdW  Elec       q    Type
REMARK                         _______ _______ _______ _____ _____    ______ ____
ROOT
ATOM      1  C   UNL     1      -0.027 -12.646   1.756  0.00  0.00    +0.328 C 
ENDROOT
BRANCH   1   3
ATOM      2  N   UNL     1       0.153 -10.274   2.434  0.00  0.00    -0.283 N 
ATOM      3  C   UNL     1       0.065 -11.177   1.436  0.00  0.00    +0.255 C 
ATOM      4  O   UNL     1       0.059 -10.806   0.282  0.00  0.00    -0.272 OA
ATOM      5  H   UNL     1       0.235 -10.574   3.353  0.00  0.00    +0.155 HD
BRANCH   2   9
ATOM      6  C   UNL     1       0.074  -6.198   1.569  0.00  0.00    +0.007 A 
ATOM      7  C   UNL     1      -0.663  -7.092   0.791  0.00  0.00    +0.012 A 
ATOM      8  C   UNL     1      -0.635  -8.439   1.080  0.00  0.00    +0.024 A 
ATOM      9  C   UNL     1       0.127  -8.908   2.144  0.00  0.00    +0.034 A 
ATOM     10  C   UNL     1       0.862  -8.020   2.921  0.00  0.00    +0.024 A 
ATOM     11  C   UNL     1       0.844  -6.673   2.634  0.00  0.00    +0.012 A 
BRANCH   6  20
ATOM     12  C   UNL     1      -0.123   1.474  -0.117  0.00  0.00    +0.044 C 
ATOM     13  C   UNL     1       0.105   0.089   0.432  0.00  0.00    -0.049 A 
ATOM     14  C   UNL     1       0.939  -0.102   1.525  0.00  0.00    +0.005 A 
ATOM     15  C   UNL     1       1.165  -1.338   2.044  0.00  0.00    +0.029 A 
ATOM     16  C   UNL     1       0.553  -2.484   1.481  0.00  0.00    +0.079 A 
ATOM     17  C   UNL     1      -0.291  -2.256   0.368  0.00  0.00    +0.040 A 
ATOM     18  C   UNL     1      -0.517  -1.002  -0.144  0.00  0.00    +0.020 A 
ATOM     19  S   UNL     1      -0.845  -3.897  -0.028  0.00  0.00    -0.067 S 
ATOM     20  C   UNL     1       0.046  -4.753   1.263  0.00  0.00    +0.109 A 
ATOM     21  N   UNL     1       0.671  -3.768   1.871  0.00  0.00    -0.239 NA
ENDBRANCH   6  20
ENDBRANCH   2   9
ENDBRANCH   1   3
BRANCH   1  22
ATOM     22  O   UNL     1      -0.110 -13.394   0.541  0.00  0.00    -0.454 OA
BRANCH  22  23
ATOM     23  C   UNL     1      -0.198 -14.729   0.651  0.00  0.00    +0.328 C 
ATOM     24  O   UNL     1      -0.204 -15.245   1.743  0.00  0.00    -0.249 OA
BRANCH  23  25
ATOM     25  C   UNL     1      -0.290 -15.583  -0.587  0.00  0.00    +0.186 C 
BRANCH  25  26
ATOM     26  N   UNL     1       0.099 -16.957  -0.262  0.00  0.00    -0.302 N 
ATOM     27  C   UNL     1      -0.591 -17.652   0.664  0.00  0.00    +0.211 C 
ATOM     28  O   UNL     1      -1.534 -17.139   1.228  0.00  0.00    -0.276 OA
ATOM     29  C   UNL     1      -0.192 -19.066   0.999  0.00  0.00    +0.109 C 
ATOM     30  H   UNL     1       0.853 -17.368  -0.713  0.00  0.00    +0.150 HD
ENDBRANCH  25  26
BRANCH  25  31
ATOM     31  C   UNL     1      -1.727 -15.569  -1.111  0.00  0.00    +0.071 C 
BRANCH  31  32
ATOM     32  C   UNL     1      -1.793 -16.322  -2.415  0.00  0.00    -0.020 A 
ATOM     33  C   UNL     1      -1.712 -15.793  -3.647  0.00  0.00    +0.087 A 
ATOM     34  N   UNL     1      -1.812 -16.783  -4.586  0.00  0.00    -0.360 N 
ATOM     35  H   UNL     1      -1.780 -16.645  -5.546  0.00  0.00    +0.165 HD
ATOM     36  C   UNL     1      -1.964 -18.003  -3.967  0.00  0.00    +0.047 A 
ATOM     37  C   UNL     1      -1.953 -17.768  -2.579  0.00  0.00    +0.003 A 
ATOM     38  C   UNL     1      -2.085 -18.837  -1.691  0.00  0.00    +0.010 A 
ATOM     39  C   UNL     1      -2.221 -20.108  -2.174  0.00  0.00    +0.001 A 
ATOM     40  C   UNL     1      -2.228 -20.346  -3.542  0.00  0.00    +0.002 A 
ATOM     41  C   UNL     1      -2.109 -19.304  -4.436  0.00  0.00    +0.026 A 
ENDBRANCH  31  32
ENDBRANCH  25  31
ENDBRANCH  23  25
ENDBRANCH  22  23
ENDBRANCH   1  22
TORSDOF 9
