REMARK  Name = ZINC12603899
REMARK  11 active torsions:
REMARK  status: ('A' for Active; 'I' for Inactive)
REMARK    1  A    between atoms: C_1  and  C_2
REMARK    2  A    between atoms: C_2  and  N_3
REMARK    3  A    between atoms: C_7  and  S_29
REMARK    4  A    between atoms: C_11  and  S_12
REMARK    5  A    between atoms: S_12  and  C_13
REMARK    6  A    between atoms: C_13  and  C_14
REMARK    7  A    between atoms: C_14  and  C_16
REMARK    8  A    between atoms: C_18  and  C_27
REMARK    9  A    between atoms: C_18  and  C_28
REMARK   10  A    between atoms: N_25  and  C_26
REMARK   11  A    between atoms: S_29  and  N_32
REMARK                            x       y       z     vdW  Elec       q    Type
REMARK                         _______ _______ _______ _____ _____    ______ ____
ROOT
ATOM      1  N   UNL     1      -7.916  -1.754   0.862  0.00  0.00    -0.319 N 
ATOM      2  C   UNL     1      -9.076  -1.029   1.084  0.00  0.00    +0.070 A 
ATOM      3  C   UNL     1     -10.404  -1.377   1.281  0.00  0.00    +0.030 A 
ATOM      4  C   UNL     1     -11.349  -0.392   1.481  0.00  0.00    +0.030 A 
ATOM      5  C   UNL     1     -10.981   0.945   1.486  0.00  0.00    +0.107 A 
ATOM      6  C   UNL     1      -9.667   1.309   1.292  0.00  0.00    +0.058 A 
ATOM      7  C   UNL     1      -8.697   0.324   1.088  0.00  0.00    +0.092 A 
ATOM      8  N   UNL     1      -7.355   0.364   0.880  0.00  0.00    -0.222 NA
ATOM      9  C   UNL     1      -6.894  -0.855   0.741  0.00  0.00    +0.170 A 
ENDROOT
BRANCH   5  10
ATOM     10  S   UNL     1     -12.203   2.188   1.742  0.00  0.00    +0.056 S 
ATOM     11  O   UNL     1     -13.272   1.567   2.443  0.00  0.00    -0.153 OA
ATOM     12  O   UNL     1     -11.523   3.329   2.247  0.00  0.00    -0.153 OA
BRANCH  10  13
ATOM     13  N   UNL     1     -12.794   2.609   0.254  0.00  0.00    -0.204 NA
ATOM     14  H   UNL     1     -12.450   2.178  -0.544  0.00  0.00    +0.144 HD
ATOM     15  H   UNL     1     -13.484   3.286   0.180  0.00  0.00    +0.144 HD
ENDBRANCH  10  13
ENDBRANCH   5  10
BRANCH   1  17
ATOM     16  C   UNL     1      -7.539  -3.787   2.167  0.00  0.00    +0.027 C 
ATOM     17  C   UNL     1      -7.806  -3.212   0.775  0.00  0.00    +0.121 C 
ENDBRANCH   1  17
BRANCH   9  18
ATOM     18  S   UNL     1      -5.207  -1.272   0.450  0.00  0.00    -0.080 S 
BRANCH  18  19
ATOM     19  C   UNL     1      -4.476   0.383   0.412  0.00  0.00    +0.156 C 
BRANCH  19  20
ATOM     20  C   UNL     1      -2.993   0.271   0.168  0.00  0.00    +0.168 C 
ATOM     21  O   UNL     1      -2.480  -0.823   0.032  0.00  0.00    -0.292 OA
BRANCH  20  22
ATOM     22  C   UNL     1      -2.205   1.428   0.097  0.00  0.00    +0.067 C 
ATOM     23  C   UNL     1      -0.858   1.325  -0.017  0.00  0.00    +0.024 C 
ATOM     24  C   UNL     1      -0.055   0.044  -0.092  0.00  0.00    +0.030 C 
ATOM     25  C   UNL     1       1.377   0.512  -0.216  0.00  0.00    -0.015 A 
ATOM     26  C   UNL     1       2.573  -0.162  -0.324  0.00  0.00    +0.006 A 
ATOM     27  C   UNL     1       3.758   0.545  -0.426  0.00  0.00    +0.000 A 
ATOM     28  C   UNL     1       3.737   1.928  -0.420  0.00  0.00    +0.002 A 
ATOM     29  C   UNL     1       2.541   2.606  -0.311  0.00  0.00    +0.024 A 
ATOM     30  C   UNL     1       1.343   1.901  -0.208  0.00  0.00    +0.038 A 
ATOM     31  N   UNL     1       0.029   2.353  -0.091  0.00  0.00    -0.305 N 
ATOM     32  C   UNL     1      -0.350   3.768  -0.053  0.00  0.00    +0.135 C 
ATOM     33  C   UNL     1      -0.240  -0.780   1.184  0.00  0.00    +0.022 C 
ATOM     34  C   UNL     1      -0.460  -0.771  -1.321  0.00  0.00    +0.022 C 
ENDBRANCH  20  22
ENDBRANCH  19  20
ENDBRANCH  18  19
ENDBRANCH   9  18
TORSDOF 7
