REMARK  Name = ZINC61602277
REMARK  8 active torsions:
REMARK  status: ('A' for Active; 'I' for Inactive)
REMARK    1  A    between atoms: N_3  and  C_23
REMARK    2  A    between atoms: C_6  and  N_7
REMARK    3  A    between atoms: C_8  and  C_10
REMARK    4  A    between atoms: C_10  and  C_11
REMARK    5  A    between atoms: C_11  and  C_12
REMARK    6  A    between atoms: C_12  and  C_13
REMARK    7  A    between atoms: C_13  and  C_14
REMARK    8  A    between atoms: C_23  and  C_24
REMARK                            x       y       z     vdW  Elec       q    Type
REMARK                         _______ _______ _______ _____ _____    ______ ____
ROOT
ATOM      1  N   UNL     1      -1.405  -0.494  -0.172  0.00  0.00    -0.313 N 
ATOM      2  C   UNL     1      -1.707  -1.705   0.338  0.00  0.00    +0.213 C 
ATOM      3  O   UNL     1      -0.849  -2.364   0.884  0.00  0.00    -0.276 OA
ATOM      4  H   UNL     1      -2.092   0.033  -0.610  0.00  0.00    +0.149 HD
ENDROOT
BRANCH   1  10
ATOM      5  C   UNL     1      -0.069   1.556  -0.121  0.00  0.00    +0.003 C 
ATOM      6  C   UNL     1       1.365   2.089  -0.090  0.00  0.00    -0.077 C 
ATOM      7  N   UNL     1       2.110   1.570  -1.244  0.00  0.00    +0.383 N 
ATOM      8  C   UNL     1       2.203   0.107  -1.159  0.00  0.00    -0.077 C 
ATOM      9  C   UNL     1       0.801  -0.502  -1.232  0.00  0.00    +0.003 C 
ATOM     10  C   UNL     1      -0.040   0.025  -0.066  0.00  0.00    +0.069 C 
ATOM     11  H   UNL     1       1.631   1.827  -2.094  0.00  0.00    -0.082 HD
BRANCH   7  12
ATOM     12  C   UNL     1       3.461   2.145  -1.252  0.00  0.00    -0.006 C 
BRANCH  12  13
ATOM     13  C   UNL     1       3.374   3.647  -1.532  0.00  0.00    +0.325 C 
ATOM     14  F   UNL     1       2.640   3.861  -2.704  0.00  0.00    -0.211 F 
ATOM     15  F   UNL     1       2.740   4.286  -0.462  0.00  0.00    -0.211 F 
ENDBRANCH  12  13
ENDBRANCH   7  12
ENDBRANCH   1  10
BRANCH   2  16
ATOM     16  C   UNL     1      -3.112  -2.239   0.228  0.00  0.00    +0.096 C 
BRANCH  16  17
ATOM     17  C   UNL     1      -3.184  -3.621   0.881  0.00  0.00    +0.009 C 
BRANCH  17  18
ATOM     18  C   UNL     1      -4.611  -4.164   0.770  0.00  0.00    +0.002 C 
BRANCH  18  19
ATOM     19  C   UNL     1      -4.683  -5.545   1.424  0.00  0.00    +0.016 C 
BRANCH  19  20
ATOM     20  C   UNL     1      -6.109  -6.088   1.313  0.00  0.00    +0.069 C 
ATOM     21  C   UNL     1      -6.214  -7.500   1.928  0.00  0.00    +0.108 C 
ATOM     22  C   UNL     1      -7.108  -8.454   1.130  0.00  0.00    +0.105 C 
ATOM     23  C   UNL     1      -7.726  -7.815  -0.132  0.00  0.00    +0.093 C 
ATOM     24  S   UNL     1      -6.555  -6.423  -0.446  0.00  0.00    -0.154 S 
ATOM     25  N   UNL     1      -6.199  -9.538   0.724  0.00  0.00    -0.294 N 
ATOM     26  C   UNL     1      -4.972  -9.280   1.196  0.00  0.00    +0.300 C 
ATOM     27  O   UNL     1      -4.021 -10.014   1.009  0.00  0.00    -0.253 OA
ATOM     28  N   UNL     1      -4.889  -8.139   1.895  0.00  0.00    -0.294 N 
ATOM     29  H   UNL     1      -6.449 -10.315   0.198  0.00  0.00    +0.151 HD
ATOM     30  H   UNL     1      -4.085  -7.791   2.311  0.00  0.00    +0.151 HD
ENDBRANCH  19  20
ENDBRANCH  18  19
ENDBRANCH  17  18
ENDBRANCH  16  17
ENDBRANCH   2  16
TORSDOF 8
