REMARK  Name = ZINC01455439
REMARK  7 active torsions:
REMARK  status: ('A' for Active; 'I' for Inactive)
REMARK    1  A    between atoms: C_1  and  N_2
REMARK    2  A    between atoms: C_10  and  S_11
REMARK    3  A    between atoms: S_11  and  C_12
REMARK    4  A    between atoms: C_12  and  C_13
REMARK    5  A    between atoms: N_15  and  N_16
REMARK    6  A    between atoms: C_17  and  C_18
REMARK    7  A    between atoms: C_27  and  O_28
REMARK                            x       y       z     vdW  Elec       q    Type
REMARK                         _______ _______ _______ _____ _____    ______ ____
ROOT
ATOM      1  C   UNL     1       1.984   3.586   0.002  0.00  0.00    +0.242 C 
ATOM      2  O   UNL     1       1.037   4.344   0.015  0.00  0.00    -0.273 OA
ATOM      3  N   UNL     1       3.240   4.076  -0.007  0.00  0.00    -0.206 N 
ATOM      4  H   UNL     1       3.997   3.469  -0.018  0.00  0.00    +0.177 HD
ENDROOT
BRANCH   3   5
ATOM      5  N   UNL     1       3.451   5.461  -0.002  0.00  0.00    -0.188 NA
ATOM      6  C   UNL     1       4.662   5.933  -0.011  0.00  0.00    +0.142 C 
BRANCH   6   7
ATOM      7  C   UNL     1       4.884   7.386  -0.005  0.00  0.00    +0.044 A 
ATOM      8  C   UNL     1       6.239   7.934  -0.015  0.00  0.00    -0.006 A 
ATOM      9  C   UNL     1       7.364   7.101  -0.030  0.00  0.00    +0.009 A 
ATOM     10  C   UNL     1       8.611   7.652  -0.040  0.00  0.00    +0.001 A 
ATOM     11  C   UNL     1       8.782   9.034  -0.035  0.00  0.00    +0.001 A 
ATOM     12  C   UNL     1       7.709   9.873  -0.020  0.00  0.00    +0.008 A 
ATOM     13  C   UNL     1       6.409   9.340  -0.009  0.00  0.00    -0.017 A 
ATOM     14  C   UNL     1       5.278  10.175   0.005  0.00  0.00    +0.012 A 
ATOM     15  C   UNL     1       4.025   9.648   0.015  0.00  0.00    +0.046 A 
ATOM     16  C   UNL     1       3.807   8.271   0.004  0.00  0.00    +0.126 A 
BRANCH  16  17
ATOM     17  O   UNL     1       2.538   7.789   0.009  0.00  0.00    -0.506 OA
ATOM     18  H   UNL     1       2.174   7.646   0.893  0.00  0.00    +0.292 HD
ENDBRANCH  16  17
ENDBRANCH   6   7
ENDBRANCH   3   5
BRANCH   1  19
ATOM     19  C   UNL     1       1.756   2.096  -0.004  0.00  0.00    +0.174 C 
BRANCH  19  20
ATOM     20  S   UNL     1      -0.022   1.758   0.012  0.00  0.00    -0.078 S 
BRANCH  20  30
ATOM     21  C   UNL     1      -2.500  -0.358   0.025  0.00  0.00    +0.151 C 
ATOM     22  N   UNL     1      -1.105  -0.804   0.008  0.00  0.00    -0.322 N 
ATOM     23  C   UNL     1      -0.663  -2.117  -0.004  0.00  0.00    +0.069 A 
ATOM     24  C   UNL     1      -1.303  -3.347  -0.004  0.00  0.00    +0.028 A 
ATOM     25  C   UNL     1      -0.559  -4.509  -0.017  0.00  0.00    +0.002 A 
ATOM     26  C   UNL     1       0.827  -4.455  -0.030  0.00  0.00    +0.002 A 
ATOM     27  C   UNL     1       1.480  -3.243  -0.030  0.00  0.00    +0.030 A 
ATOM     28  C   UNL     1       0.740  -2.057  -0.017  0.00  0.00    +0.090 A 
ATOM     29  N   UNL     1       1.085  -0.743  -0.018  0.00  0.00    -0.222 NA
ATOM     30  C   UNL     1       0.002  -0.004   0.002  0.00  0.00    +0.170 A 
ENDBRANCH  20  30
ENDBRANCH  19  20
ENDBRANCH   1  19
TORSDOF 6
