REMARK  Name = ZINC12823684
REMARK  7 active torsions:
REMARK  status: ('A' for Active; 'I' for Inactive)
REMARK    1  A    between atoms: C_1  and  N_2
REMARK    2  A    between atoms: N_2  and  C_3
REMARK    3  A    between atoms: N_2  and  C_20
REMARK    4  A    between atoms: C_3  and  C_4
REMARK    5  A    between atoms: C_9  and  C_14
REMARK    6  A    between atoms: C_20  and  C_21
REMARK    7  A    between atoms: N_23  and  C_24
REMARK                            x       y       z     vdW  Elec       q    Type
REMARK                         _______ _______ _______ _____ _____    ______ ____
ROOT
ATOM      1  C   UNL     1      -0.720   0.065   1.637  0.00  0.00    +0.037 A 
ATOM      2  C   UNL     1      -1.164  -0.915   2.498  0.00  0.00    +0.093 A 
ATOM      3  C   UNL     1      -1.375  -0.610   3.843  0.00  0.00    +0.259 A 
ATOM      4  O   UNL     1      -1.768  -1.474   4.612  0.00  0.00    -0.267 OA
ATOM      5  N   UNL     1      -1.143   0.657   4.300  0.00  0.00    -0.256 N 
ATOM      6  C   UNL     1      -1.305   1.109   5.594  0.00  0.00    +0.066 A 
ATOM      7  C   UNL     1      -1.037   2.392   5.910  0.00  0.00    +0.075 A 
ATOM      8  S   UNL     1      -0.522   3.057   4.335  0.00  0.00    -0.059 S 
ATOM      9  C   UNL     1      -0.704   1.568   3.377  0.00  0.00    +0.159 A 
ATOM     10  N   UNL     1      -0.498   1.287   2.114  0.00  0.00    -0.337 N 
ATOM     11  H   UNL     1      -0.183   1.982   1.516  0.00  0.00    +0.168 HD
ENDROOT
BRANCH   6  12
ATOM     12  C   UNL     1      -1.776   0.179   6.643  0.00  0.00    -0.001 A 
ATOM     13  C   UNL     1      -1.044  -0.971   6.940  0.00  0.00    +0.010 A 
ATOM     14  C   UNL     1      -1.489  -1.835   7.919  0.00  0.00    +0.001 A 
ATOM     15  C   UNL     1      -2.659  -1.563   8.606  0.00  0.00    +0.000 A 
ATOM     16  C   UNL     1      -3.390  -0.425   8.315  0.00  0.00    +0.001 A 
ATOM     17  C   UNL     1      -2.953   0.450   7.343  0.00  0.00    +0.010 A 
ENDBRANCH   6  12
BRANCH   1  18
ATOM     18  C   UNL     1      -0.484  -0.244   0.180  0.00  0.00    +0.138 C 
BRANCH  18  20
ATOM     19  C   UNL     1      -1.131   0.369  -2.071  0.00  0.00    +0.105 C 
ATOM     20  N   UNL     1      -1.437   0.515  -0.641  0.00  0.00    -0.291 NA
BRANCH  20  21
ATOM     21  C   UNL     1      -2.819   0.110  -0.355  0.00  0.00    +0.180 C 
BRANCH  21  22
ATOM     22  C   UNL     1      -3.772   1.067  -1.024  0.00  0.00    +0.231 C 
ATOM     23  O   UNL     1      -3.342   1.994  -1.676  0.00  0.00    -0.274 OA
ATOM     24  N   UNL     1      -5.102   0.891  -0.898  0.00  0.00    -0.284 N 
ATOM     25  H   UNL     1      -5.447   0.189  -0.324  0.00  0.00    +0.155 HD
BRANCH  24  26
ATOM     26  C   UNL     1      -5.987   1.722  -1.596  0.00  0.00    +0.047 A 
ATOM     27  C   UNL     1      -5.603   3.009  -1.946  0.00  0.00    +0.024 A 
ATOM     28  C   UNL     1      -6.477   3.826  -2.635  0.00  0.00    +0.002 A 
ATOM     29  C   UNL     1      -7.736   3.364  -2.976  0.00  0.00    +0.001 A 
ATOM     30  C   UNL     1      -8.122   2.083  -2.628  0.00  0.00    +0.017 A 
ATOM     31  C   UNL     1      -7.249   1.258  -1.945  0.00  0.00    +0.039 A 
ATOM     32 BR   UNL     1      -7.776  -0.497  -1.476  0.00  0.00    -0.048 Br
ENDBRANCH  24  26
ENDBRANCH  21  22
ENDBRANCH  20  21
ENDBRANCH  18  20
ENDBRANCH   1  18
TORSDOF 6
