REMARK  Name = ZINC39682547
REMARK  8 active torsions:
REMARK  status: ('A' for Active; 'I' for Inactive)
REMARK    1  A    between atoms: C_1  and  C_2
REMARK    2  A    between atoms: C_4  and  C_11
REMARK    3  A    between atoms: C_5  and  C_7
REMARK    4  A    between atoms: C_15  and  C_24
REMARK    5  A    between atoms: N_26  and  C_27
REMARK    6  A    between atoms: C_27  and  C_29
REMARK    7  A    between atoms: C_27  and  C_33
REMARK    8  A    between atoms: C_29  and  C_30
REMARK                            x       y       z     vdW  Elec       q    Type
REMARK                         _______ _______ _______ _____ _____    ______ ____
ROOT
ATOM      1  C   UNL     1      -1.164  -2.734  -0.360  0.00  0.00    +0.250 C 
ATOM      2  O   UNL     1      -0.478  -3.713  -0.135  0.00  0.00    -0.270 OA
ATOM      3  N   UNL     1      -2.473  -2.740  -0.038  0.00  0.00    -0.296 N 
ATOM      4  C   UNL     1      -3.486  -1.702  -0.338  0.00  0.00    +0.121 C 
ATOM      5  C   UNL     1      -4.760  -2.494  -0.707  0.00  0.00    +0.100 C 
ATOM      6  C   UNL     1      -4.583  -3.861  -0.025  0.00  0.00    -0.004 C 
ATOM      7  C   UNL     1      -3.225  -3.791   0.689  0.00  0.00    +0.115 C 
ATOM      8  C   UNL     1      -5.701  -4.096   0.986  0.00  0.00    -0.010 C 
ATOM      9  C   UNL     1      -5.536  -5.486   1.609  0.00  0.00    -0.082 C 
ATOM     10  N   UNL     1      -5.581  -6.505   0.554  0.00  0.00    +0.379 N 
ATOM     11  C   UNL     1      -4.448  -6.328  -0.363  0.00  0.00    -0.082 C 
ATOM     12  C   UNL     1      -4.567  -4.974  -1.069  0.00  0.00    -0.010 C 
ATOM     13  H   UNL     1      -5.533  -7.422   0.972  0.00  0.00    -0.086 HD
ATOM     14  H   UNL     1      -6.445  -6.417   0.040  0.00  0.00    -0.086 HD
ENDROOT
BRANCH   1  18
ATOM     15  C   UNL     1      -0.121   2.094  -1.635  0.00  0.00    +0.086 C 
ATOM     16  C   UNL     1      -0.118   0.591  -1.532  0.00  0.00    +0.103 A 
ATOM     17  C   UNL     1      -0.930  -0.137  -0.750  0.00  0.00    +0.058 A 
ATOM     18  C   UNL     1      -0.563  -1.542  -0.983  0.00  0.00    +0.087 A 
ATOM     19  C   UNL     1       0.449  -1.510  -1.897  0.00  0.00    +0.220 A 
ATOM     20  O   UNL     1       0.693  -0.234  -2.212  0.00  0.00    -0.455 OA
BRANCH  19  21
ATOM     21  C   UNL     1       1.167  -2.709  -2.460  0.00  0.00    +0.451 C 
ATOM     22  F   UNL     1       0.507  -3.149  -3.613  0.00  0.00    -0.163 F 
ATOM     23  F   UNL     1       2.482  -2.358  -2.780  0.00  0.00    -0.163 F 
ATOM     24  F   UNL     1       1.176  -3.736  -1.509  0.00  0.00    -0.163 F 
ENDBRANCH  19  21
ENDBRANCH   1  18
BRANCH   5  25
ATOM     25  C   UNL     1      -5.985  -1.795  -0.176  0.00  0.00    +0.219 C 
ATOM     26  O   UNL     1      -5.939  -1.216   0.889  0.00  0.00    -0.275 OA
ATOM     27  N   UNL     1      -7.132  -1.813  -0.884  0.00  0.00    -0.308 N 
ATOM     28  H   UNL     1      -7.148  -2.209  -1.770  0.00  0.00    +0.149 HD
BRANCH  27  29
ATOM     29  C   UNL     1      -8.352  -1.236  -0.317  0.00  0.00    +0.114 C 
BRANCH  29  30
ATOM     30  C   UNL     1      -8.282   0.268  -0.399  0.00  0.00    -0.027 A 
ATOM     31  C   UNL     1      -7.762   0.875  -1.527  0.00  0.00    +0.005 A 
ATOM     32  C   UNL     1      -7.697   2.253  -1.602  0.00  0.00    +0.000 A 
ATOM     33  C   UNL     1      -8.153   3.025  -0.549  0.00  0.00    +0.000 A 
ATOM     34  C   UNL     1      -8.674   2.418   0.578  0.00  0.00    +0.000 A 
ATOM     35  C   UNL     1      -8.742   1.039   0.651  0.00  0.00    +0.005 A 
ENDBRANCH  29  30
BRANCH  29  36
ATOM     36  C   UNL     1      -9.566  -1.733  -1.105  0.00  0.00    +0.152 C 
BRANCH  36  37
ATOM     37  C   UNL     1      -9.710  -3.221  -0.919  0.00  0.00    +0.358 C 
ATOM     38  O   UNL     1      -8.991  -3.810  -0.129  0.00  0.00    -0.246 OA
ATOM     39  O   UNL     1     -10.545  -3.838  -1.558  0.00  0.00    -0.246 OA
ENDBRANCH  36  37
ENDBRANCH  29  36
ENDBRANCH  27  29
ENDBRANCH   5  25
TORSDOF 7
