REMARK  Name = ZINC39726758
REMARK  7 active torsions:
REMARK  status: ('A' for Active; 'I' for Inactive)
REMARK    1  A    between atoms: C_4  and  C_7
REMARK    2  A    between atoms: C_7  and  N_8
REMARK    3  A    between atoms: C_14  and  C_16
REMARK    4  A    between atoms: C_16  and  S_17
REMARK    5  A    between atoms: S_17  and  C_18
REMARK    6  A    between atoms: C_22  and  C_27
REMARK    7  A    between atoms: N_23  and  C_24
REMARK                            x       y       z     vdW  Elec       q    Type
REMARK                         _______ _______ _______ _____ _____    ______ ____
ROOT
ATOM      1  C   UNL     1       8.888  -5.364   5.491  0.00  0.00    +0.237 C 
ATOM      2  N   UNL     1       9.479  -4.061   5.838  0.00  0.00    -0.237 N 
ATOM      3  N   UNL     1      10.420  -3.774   4.843  0.00  0.00    -0.169 NA
ATOM      4  C   UNL     1      10.472  -4.727   3.950  0.00  0.00    +0.147 C 
ATOM      5  N   UNL     1       9.573  -5.758   4.249  0.00  0.00    -0.282 N 
ATOM      6  H   UNL     1       9.258  -3.510   6.605  0.00  0.00    +0.171 HD
ENDROOT
BRANCH   4   7
ATOM      7  C   UNL     1      11.322  -4.718   2.833  0.00  0.00    +0.022 C 
ATOM      8  C   UNL     1      12.307  -3.778   2.529  0.00  0.00    +0.006 A 
ATOM      9  C   UNL     1      12.747  -2.611   3.190  0.00  0.00    +0.010 A 
ATOM     10  C   UNL     1      13.749  -1.870   2.652  0.00  0.00    +0.001 A 
ATOM     11  C   UNL     1      14.364  -2.232   1.452  0.00  0.00    +0.002 A 
ATOM     12  C   UNL     1      13.992  -3.340   0.764  0.00  0.00    +0.026 A 
ATOM     13  C   UNL     1      12.951  -4.165   1.264  0.00  0.00    +0.043 A 
ATOM     14  N   UNL     1      12.415  -5.274   0.793  0.00  0.00    -0.380 N 
ATOM     15  C   UNL     1      11.366  -5.731   1.710  0.00  0.00    +0.152 C 
ATOM     16  H   UNL     1      12.677  -5.720  -0.028  0.00  0.00    +0.160 HD
ENDBRANCH   4   7
BRANCH   5  17
ATOM     17  C   UNL     1       9.355  -6.985   3.479  0.00  0.00    +0.078 C 
ATOM     18  C   UNL     1       8.251  -7.931   3.956  0.00  0.00    +0.024 C 
ATOM     19  C   UNL     1       9.721  -8.312   4.147  0.00  0.00    +0.024 C 
ENDBRANCH   5  17
BRANCH   1  20
ATOM     20  S   UNL     1       7.104  -5.197   5.206  0.00  0.00    -0.109 S 
BRANCH  20  21
ATOM     21  C   UNL     1       6.984  -3.947   3.897  0.00  0.00    +0.168 C 
BRANCH  21  28
ATOM     22  N   UNL     1       4.601  -1.804   0.082  0.00  0.00    -0.295 NA
ATOM     23  C   UNL     1       3.635  -2.691   0.744  0.00  0.00    +0.103 C 
ATOM     24  C   UNL     1       3.793  -2.569   2.264  0.00  0.00    +0.123 C 
ATOM     25  N   UNL     1       5.202  -2.816   2.608  0.00  0.00    -0.298 N 
ATOM     26  C   UNL     1       6.237  -2.061   1.886  0.00  0.00    +0.123 C 
ATOM     27  C   UNL     1       5.983  -2.203   0.381  0.00  0.00    +0.103 C 
ATOM     28  C   UNL     1       5.535  -3.710   3.560  0.00  0.00    +0.226 C 
ATOM     29  O   UNL     1       4.668  -4.324   4.146  0.00  0.00    -0.275 OA
BRANCH  22  30
ATOM     30  C   UNL     1       4.368  -1.760  -1.368  0.00  0.00    +0.119 C 
BRANCH  30  34
ATOM     31  C   UNL     1       0.584   0.061  -2.150  0.00  0.00    +0.000 A 
ATOM     32  C   UNL     1       1.724   0.840  -2.075  0.00  0.00    +0.000 A 
ATOM     33  C   UNL     1       2.948   0.250  -1.822  0.00  0.00    +0.005 A 
ATOM     34  C   UNL     1       3.033  -1.118  -1.643  0.00  0.00    -0.033 A 
ATOM     35  C   UNL     1       1.893  -1.896  -1.717  0.00  0.00    +0.005 A 
ATOM     36  C   UNL     1       0.669  -1.307  -1.972  0.00  0.00    +0.000 A 
ENDBRANCH  30  34
ENDBRANCH  22  30
ENDBRANCH  21  28
ENDBRANCH  20  21
ENDBRANCH   1  20
TORSDOF 7
