REMARK  Name = ZINC06301087
REMARK  8 active torsions:
REMARK  status: ('A' for Active; 'I' for Inactive)
REMARK    1  A    between atoms: C_1  and  C_2
REMARK    2  A    between atoms: C_4  and  C_40
REMARK    3  A    between atoms: C_9  and  C_14
REMARK    4  A    between atoms: C_14  and  C_16
REMARK    5  A    between atoms: C_14  and  N_69
REMARK    6  A    between atoms: N_20  and  C_21
REMARK    7  A    between atoms: C_21  and  C_22
REMARK    8  A    between atoms: C_30  and  C_33
REMARK                            x       y       z     vdW  Elec       q    Type
REMARK                         _______ _______ _______ _____ _____    ______ ____
ROOT
ATOM      1  C   UNL     1      -2.490   0.996   0.019  0.00  0.00    +0.039 C 
ENDROOT
BRANCH   1  10
ATOM      2  C   UNL     1       4.797   1.220  -1.550  0.00  0.00    +0.044 C 
ATOM      3  C   UNL     1       3.489   1.917  -1.280  0.00  0.00    -0.050 A 
ATOM      4  C   UNL     1       3.433   3.304  -1.293  0.00  0.00    +0.008 A 
ATOM      5  C   UNL     1       2.248   3.963  -1.048  0.00  0.00    -0.026 A 
ATOM      6  C   UNL     1       1.094   3.232  -0.785  0.00  0.00    +0.052 A 
ATOM      7  C   UNL     1       1.154   1.826  -0.772  0.00  0.00    -0.001 A 
ATOM      8  C   UNL     1       2.369   1.179  -1.023  0.00  0.00    +0.013 A 
ATOM      9  C   UNL     1      -0.066   1.066  -0.494  0.00  0.00    +0.017 A 
ATOM     10  C   UNL     1      -1.215   1.748  -0.264  0.00  0.00    +0.011 A 
ATOM     11  C   UNL     1      -1.221   3.159  -0.282  0.00  0.00    +0.251 A 
ATOM     12  O   UNL     1      -2.264   3.752  -0.067  0.00  0.00    -0.268 OA
ATOM     13  N   UNL     1      -0.106   3.865  -0.537  0.00  0.00    -0.322 N 
ATOM     14  H   UNL     1      -0.145   4.835  -0.546  0.00  0.00    +0.169 HD
ATOM     15  C   UNL     1       2.202   5.469  -1.066  0.00  0.00    +0.046 C 
ENDBRANCH   1  10
BRANCH   1  21
ATOM     16  C   UNL     1      -2.159   1.254   2.406  0.00  0.00    -0.072 C 
ATOM     17  C   UNL     1      -2.667   2.050   3.611  0.00  0.00    +0.017 C 
ATOM     18  C   UNL     1      -4.133   1.782   3.814  0.00  0.00    -0.048 C 
ATOM     19  C   UNL     1      -4.891   1.244   2.885  0.00  0.00    -0.041 C 
ATOM     20  C   UNL     1      -4.370   0.838   1.536  0.00  0.00    -0.049 C 
ATOM     21  N   UNL     1      -3.080   1.504   1.279  0.00  0.00    +0.392 N 
ATOM     22  H   UNL     1      -3.236   2.515   1.191  0.00  0.00    -0.080 HD
BRANCH  18  23
ATOM     23  C   UNL     1      -4.745   2.139   5.111  0.00  0.00    -0.022 A 
ATOM     24  C   UNL     1      -4.815   3.474   5.509  0.00  0.00    +0.011 A 
ATOM     25  C   UNL     1      -5.394   3.802   6.717  0.00  0.00    +0.039 A 
ATOM     26  C   UNL     1      -5.895   2.806   7.541  0.00  0.00    +0.123 A 
ATOM     27  C   UNL     1      -5.822   1.478   7.153  0.00  0.00    +0.039 A 
ATOM     28  C   UNL     1      -5.251   1.140   5.944  0.00  0.00    +0.011 A 
ATOM     29  F   UNL     1      -6.456   3.132   8.726  0.00  0.00    -0.205 F 
ENDBRANCH  18  23
ENDBRANCH   1  21
BRANCH   1  30
ATOM     30  C   UNL     1      -3.466   1.219  -1.108  0.00  0.00    +0.143 A 
ATOM     31  N   UNL     1      -4.199   2.287  -1.309  0.00  0.00    -0.115 NA
ATOM     32  N   UNL     1      -4.898   2.095  -2.373  0.00  0.00    -0.023 NA
ATOM     33  N   UNL     1      -4.637   0.929  -2.852  0.00  0.00    -0.044 NA
ATOM     34  N   UNL     1      -3.758   0.357  -2.100  0.00  0.00    -0.228 N 
BRANCH  34  35
ATOM     35  C   UNL     1      -3.187  -0.978  -2.290  0.00  0.00    +0.178 C 
BRANCH  35  36
ATOM     36  C   UNL     1      -4.044  -2.009  -1.553  0.00  0.00    +0.140 C 
ATOM     37  C   UNL     1      -3.386  -3.403  -1.651  0.00  0.00    +0.035 C 
ATOM     38  C   UNL     1      -4.614  -4.333  -1.849  0.00  0.00    +0.031 C 
ATOM     39  C   UNL     1      -5.544  -3.419  -2.686  0.00  0.00    +0.160 C 
ATOM     40  O   UNL     1      -5.335  -2.096  -2.167  0.00  0.00    -0.375 OA
ENDBRANCH  35  36
ENDBRANCH  34  35
ENDBRANCH   1  30
TORSDOF 6
