REMARK  Name = ZINC04492170
REMARK  9 active torsions:
REMARK  status: ('A' for Active; 'I' for Inactive)
REMARK    1  A    between atoms: C_1  and  C_2
REMARK    2  A    between atoms: C_5  and  C_8
REMARK    3  A    between atoms: C_10  and  C_23
REMARK    4  A    between atoms: C_11  and  N_22
REMARK    5  A    between atoms: C_13  and  C_21
REMARK    6  A    between atoms: C_14  and  C_15
REMARK    7  A    between atoms: C_15  and  O_17
REMARK    8  A    between atoms: O_17  and  C_18
REMARK    9  A    between atoms: C_18  and  C_19
REMARK                            x       y       z     vdW  Elec       q    Type
REMARK                         _______ _______ _______ _____ _____    ______ ____
ROOT
ATOM      1  C   UNL     1      -1.538   3.431   2.666  0.00  0.00    +0.105 C 
ATOM      2  C   UNL     1      -2.353   2.342   3.311  0.00  0.00    +0.098 C 
ATOM      3  C   UNL     1      -2.139   1.041   3.001  0.00  0.00    +0.198 C 
ATOM      4  O   UNL     1      -1.198   0.669   2.115  0.00  0.00    -0.445 OA
ATOM      5  C   UNL     1      -0.718   1.572   1.248  0.00  0.00    +0.115 C 
ATOM      6  C   UNL     1      -0.839   2.890   1.448  0.00  0.00    +0.087 C 
ATOM      7  C   UNL     1      -0.013   1.086   0.008  0.00  0.00    +0.087 C 
ENDROOT
BRANCH   1  12
ATOM      8  C   UNL     1       2.405   5.364   6.421  0.00  0.00    +0.044 C 
ATOM      9  C   UNL     1       1.377   4.860   5.441  0.00  0.00    -0.050 A 
ATOM     10  C   UNL     1       0.430   5.726   4.926  0.00  0.00    +0.003 A 
ATOM     11  C   UNL     1      -0.513   5.263   4.028  0.00  0.00    +0.005 A 
ATOM     12  C   UNL     1      -0.510   3.935   3.645  0.00  0.00    -0.034 A 
ATOM     13  C   UNL     1       0.434   3.068   4.164  0.00  0.00    +0.005 A 
ATOM     14  C   UNL     1       1.380   3.532   5.058  0.00  0.00    +0.003 A 
ENDBRANCH   1  12
BRANCH   3  15
ATOM     15  N   UNL     1      -2.902   0.076   3.609  0.00  0.00    -0.328 N 
ATOM     16  H   UNL     1      -2.760  -0.860   3.397  0.00  0.00    +0.145 HD
ATOM     17  H   UNL     1      -3.584   0.329   4.251  0.00  0.00    +0.145 HD
ENDBRANCH   3  15
BRANCH   6  18
ATOM     18  C   UNL     1      -0.302   3.791   0.495  0.00  0.00    +0.340 C 
ATOM     19  O   UNL     1       0.262   3.365  -0.494  0.00  0.00    -0.245 OA
BRANCH  18  20
ATOM     20  O   UNL     1      -0.417   5.122   0.686  0.00  0.00    -0.457 OA
BRANCH  20  21
ATOM     21  C   UNL     1       0.146   5.972  -0.315  0.00  0.00    +0.259 C 
BRANCH  21  22
ATOM     22  C   UNL     1      -0.077   7.413   0.066  0.00  0.00    +0.006 C 
ATOM     23  C   UNL     1       0.901   8.277  -0.041  0.00  0.00    +0.007 C 
ENDBRANCH  21  22
ENDBRANCH  20  21
ENDBRANCH  18  20
ENDBRANCH   6  18
BRANCH   2  24
ATOM     24  C   UNL     1      -3.365   2.686   4.264  0.00  0.00    +0.101 C 
ATOM     25  N   UNL     1      -4.168   2.959   5.019  0.00  0.00    -0.191 NA
ENDBRANCH   2  24
TORSDOF 7
