REMARK  Name = ZINC39457619
REMARK  5 active torsions:
REMARK  status: ('A' for Active; 'I' for Inactive)
REMARK    1  A    between atoms: C_1  and  C_2
REMARK    2  A    between atoms: C_3  and  C_31
REMARK    3  A    between atoms: C_10  and  S_18
REMARK    4  A    between atoms: S_18  and  C_21
REMARK    5  A    between atoms: C_36  and  O_37
REMARK                            x       y       z     vdW  Elec       q    Type
REMARK                         _______ _______ _______ _____ _____    ______ ____
ROOT
ATOM      1  C   UNL     1      -1.099   0.922  -0.923  0.00  0.00    +0.067 C 
ATOM      2  C   UNL     1      -0.922  -0.552  -0.663  0.00  0.00    +0.058 A 
ATOM      3  C   UNL     1      -1.065  -1.548  -1.587  0.00  0.00    +0.013 A 
ATOM      4  C   UNL     1      -0.815  -2.767  -0.933  0.00  0.00    -0.009 A 
ATOM      5  C   UNL     1      -0.510  -2.467   0.369  0.00  0.00    +0.105 A 
ATOM      6  N   UNL     1      -0.585  -1.115   0.530  0.00  0.00    -0.180 N 
ATOM      7  F   UNL     1      -0.374  -0.470   1.639  0.00  0.00    -0.093 F 
ATOM      8  C   UNL     1      -0.142  -3.504   1.352  0.00  0.00    +0.103 A 
ATOM      9  C   UNL     1       0.808  -4.530   0.897  0.00  0.00    +0.071 A 
ATOM     10  C   UNL     1       1.159  -5.551   1.764  0.00  0.00    +0.115 A 
ATOM     11  C   UNL     1       0.597  -5.538   3.056  0.00  0.00    +0.026 A 
ATOM     12  C   UNL     1       0.911  -6.551   3.979  0.00  0.00    +0.012 A 
ATOM     13  C   UNL     1       0.371  -6.516   5.229  0.00  0.00    +0.001 A 
ATOM     14  C   UNL     1      -0.493  -5.489   5.605  0.00  0.00    +0.002 A 
ATOM     15  C   UNL     1      -0.823  -4.496   4.736  0.00  0.00    +0.028 A 
ATOM     16  C   UNL     1      -0.291  -4.498   3.433  0.00  0.00    +0.074 A 
ATOM     17  N   UNL     1      -0.628  -3.530   2.571  0.00  0.00    -0.244 NA
ATOM     18  C   UNL     1       1.362  -4.417  -0.451  0.00  0.00    +0.167 C 
ATOM     19  O   UNL     1       2.510  -4.052  -0.595  0.00  0.00    -0.292 OA
ATOM     20  C   UNL     1       0.530  -4.746  -1.669  0.00  0.00    +0.084 C 
ATOM     21  C   UNL     1      -0.877  -4.157  -1.498  0.00  0.00    +0.046 C 
ENDROOT
BRANCH   3  22
ATOM     22  C   UNL     1      -1.421  -1.375  -3.018  0.00  0.00    +0.026 A 
ATOM     23  C   UNL     1      -0.420  -1.209  -3.972  0.00  0.00    +0.012 A 
ATOM     24  C   UNL     1      -0.756  -1.049  -5.301  0.00  0.00    +0.001 A 
ATOM     25  C   UNL     1      -2.084  -1.052  -5.690  0.00  0.00    +0.004 A 
ATOM     26  C   UNL     1      -3.085  -1.217  -4.750  0.00  0.00    +0.046 A 
ATOM     27  C   UNL     1      -2.761  -1.384  -3.414  0.00  0.00    +0.125 A 
BRANCH  27  28
ATOM     28  O   UNL     1      -3.744  -1.552  -2.490  0.00  0.00    -0.506 OA
ATOM     29  H   UNL     1      -4.068  -0.725  -2.107  0.00  0.00    +0.292 HD
ENDBRANCH  27  28
ENDBRANCH   3  22
BRANCH  10  30
ATOM     30  S   UNL     1       2.271  -6.824   1.268  0.00  0.00    +0.026 S 
ATOM     31  O   UNL     1       1.812  -8.024   1.876  0.00  0.00    -0.164 OA
ATOM     32  O   UNL     1       2.434  -6.696  -0.137  0.00  0.00    -0.164 OA
BRANCH  30  33
ATOM     33  C   UNL     1       3.836  -6.460   1.992  0.00  0.00    +0.094 A 
ATOM     34  C   UNL     1       4.747  -5.675   1.311  0.00  0.00    +0.027 A 
ATOM     35  C   UNL     1       5.974  -5.389   1.878  0.00  0.00    +0.002 A 
ATOM     36  C   UNL     1       6.291  -5.888   3.128  0.00  0.00    +0.000 A 
ATOM     37  C   UNL     1       5.380  -6.673   3.810  0.00  0.00    +0.002 A 
ATOM     38  C   UNL     1       4.151  -6.955   3.244  0.00  0.00    +0.027 A 
ENDBRANCH  30  33
ENDBRANCH  10  30
TORSDOF 4
