REMARK  Name = ZINC09424359
REMARK  5 active torsions:
REMARK  status: ('A' for Active; 'I' for Inactive)
REMARK    1  A    between atoms: C_1  and  C_2
REMARK    2  A    between atoms: C_5  and  C_8
REMARK    3  A    between atoms: C_9  and  C_26
REMARK    4  A    between atoms: C_9  and  C_30
REMARK    5  A    between atoms: N_17  and  C_20
REMARK                            x       y       z     vdW  Elec       q    Type
REMARK                         _______ _______ _______ _____ _____    ______ ____
ROOT
ATOM      1  C   UNL     1      -0.384  -0.981   1.982  0.00  0.00    +0.106 C 
ATOM      2  C   UNL     1       0.565  -2.945   0.934  0.00  0.00    +0.264 C 
ATOM      3  C   UNL     1      -0.427  -2.697  -0.166  0.00  0.00    +0.098 A 
ATOM      4  C   UNL     1      -0.364  -3.436  -1.359  0.00  0.00    +0.262 A 
ATOM      5  O   UNL     1       0.504  -4.279  -1.515  0.00  0.00    -0.267 OA
ATOM      6  N   UNL     1      -1.270  -3.207  -2.331  0.00  0.00    -0.274 N 
ATOM      7  H   UNL     1      -1.227  -3.732  -3.181  0.00  0.00    +0.173 HD
ATOM      8  C   UNL     1      -2.231  -2.280  -2.168  0.00  0.00    +0.335 A 
ATOM      9  O   UNL     1      -3.039  -2.093  -3.057  0.00  0.00    -0.246 OA
ATOM     10  N   UNL     1      -2.311  -1.556  -1.036  0.00  0.00    -0.250 N 
ATOM     11  C   UNL     1      -1.405  -1.757  -0.022  0.00  0.00    +0.124 A 
ATOM     12  N   UNL     1      -1.474  -1.019   1.136  0.00  0.00    -0.286 N 
ATOM     13  H   UNL     1      -2.282  -0.530   1.357  0.00  0.00    +0.155 HD
ATOM     14  N   UNL     1       0.638  -1.843   1.957  0.00  0.00    -0.348 N 
ATOM     15  H   UNL     1       1.432  -1.758   2.603  0.00  0.00    +0.162 HD
ENDROOT
BRANCH   1  20
ATOM     16  C   UNL     1      -0.058   3.168   5.960  0.00  0.00    +0.044 C 
ATOM     17  C   UNL     1      -0.143   2.081   4.918  0.00  0.00    -0.050 A 
ATOM     18  C   UNL     1       0.866   1.140   4.821  0.00  0.00    +0.004 A 
ATOM     19  C   UNL     1       0.793   0.143   3.870  0.00  0.00    +0.011 A 
ATOM     20  C   UNL     1      -0.300   0.086   3.005  0.00  0.00    +0.013 A 
ATOM     21  C   UNL     1      -1.310   1.042   3.104  0.00  0.00    +0.011 A 
ATOM     22  C   UNL     1      -1.230   2.031   4.064  0.00  0.00    +0.004 A 
ENDBRANCH   1  20
BRANCH  10  23
ATOM     23  C   UNL     1      -3.320  -0.595  -0.890  0.00  0.00    +0.053 A 
ATOM     24  C   UNL     1      -3.093   0.717  -1.282  0.00  0.00    +0.026 A 
ATOM     25  C   UNL     1      -4.092   1.661  -1.143  0.00  0.00    +0.002 A 
ATOM     26  C   UNL     1      -5.314   1.302  -0.603  0.00  0.00    +0.000 A 
ATOM     27  C   UNL     1      -5.541  -0.004  -0.207  0.00  0.00    +0.002 A 
ATOM     28  C   UNL     1      -4.548  -0.953  -0.349  0.00  0.00    +0.026 A 
ENDBRANCH  10  23
BRANCH   2  29
ATOM     29  C   UNL     1       0.205  -4.249   1.648  0.00  0.00    +0.426 C 
ATOM     30  F   UNL     1       0.243  -5.307   0.734  0.00  0.00    -0.167 F 
ATOM     31  F   UNL     1       1.125  -4.487   2.675  0.00  0.00    -0.167 F 
ATOM     32  F   UNL     1      -1.081  -4.146   2.189  0.00  0.00    -0.167 F 
ENDBRANCH   2  29
BRANCH   2  33
ATOM     33  C   UNL     1       1.963  -3.075   0.327  0.00  0.00    +0.426 C 
ATOM     34  F   UNL     1       2.154  -2.068  -0.625  0.00  0.00    -0.167 F 
ATOM     35  F   UNL     1       2.923  -2.949   1.337  0.00  0.00    -0.167 F 
ATOM     36  F   UNL     1       2.091  -4.327  -0.284  0.00  0.00    -0.167 F 
ENDBRANCH   2  33
TORSDOF 4
