REMARK  Name = ZINC12160070
REMARK  12 active torsions:
REMARK  status: ('A' for Active; 'I' for Inactive)
REMARK    1  A    between atoms: C_1  and  C_2
REMARK    2  A    between atoms: C_2  and  C_3
REMARK    3  A    between atoms: C_2  and  C_4
REMARK    4  A    between atoms: C_4  and  C_5
REMARK    5  A    between atoms: C_5  and  C_6
REMARK    6  A    between atoms: C_6  and  C_17
REMARK    7  A    between atoms: N_9  and  C_13
REMARK    8  A    between atoms: C_13  and  C_14
REMARK    9  A    between atoms: C_14  and  N_67
REMARK   10  A    between atoms: C_15  and  N_67
REMARK   11  A    between atoms: C_16  and  N_67
REMARK   12  A    between atoms: C_23  and  C_25
REMARK                            x       y       z     vdW  Elec       q    Type
REMARK                         _______ _______ _______ _____ _____    ______ ____
ROOT
ATOM      1  C   UNL     1      -6.987   1.993   1.908  0.00  0.00    +0.115 C 
ATOM      2  C   UNL     1      -6.588   2.504   3.279  0.00  0.00    +0.247 C 
ATOM      3  O   UNL     1      -5.547   2.295   3.864  0.00  0.00    -0.273 OA
ATOM      4  N   UNL     1      -7.636   3.242   3.708  0.00  0.00    -0.226 N 
ATOM      5  C   UNL     1      -8.627   3.262   2.810  0.00  0.00    +0.309 C 
ATOM      6  O   UNL     1      -9.674   3.858   2.972  0.00  0.00    -0.252 OA
ATOM      7  N   UNL     1      -8.336   2.549   1.707  0.00  0.00    -0.285 N 
ATOM      8  H   UNL     1      -8.904   2.425   0.930  0.00  0.00    +0.151 HD
ENDROOT
BRANCH   1   9
ATOM      9  C   UNL     1      -6.025   2.514   0.839  0.00  0.00    +0.024 C 
ATOM     10  C   UNL     1      -5.908   4.035   0.955  0.00  0.00    +0.025 C 
ATOM     11  C   UNL     1      -4.971   4.556  -0.140  0.00  0.00    +0.108 C 
ATOM     12  N   UNL     1      -3.690   3.844  -0.044  0.00  0.00    -0.297 N 
ATOM     13  C   UNL     1      -3.696   2.375  -0.060  0.00  0.00    +0.108 C 
ATOM     14  C   UNL     1      -4.647   1.878   1.039  0.00  0.00    +0.025 C 
ATOM     15  C   UNL     1      -2.531   4.525   0.051  0.00  0.00    +0.249 C 
ATOM     16  O   UNL     1      -2.544   5.738   0.136  0.00  0.00    -0.270 OA
BRANCH  15  17
ATOM     17  C   UNL     1      -1.245   3.798   0.051  0.00  0.00    +0.073 A 
ATOM     18  C   UNL     1      -1.066   2.690  -0.779  0.00  0.00    +0.036 A 
ATOM     19  C   UNL     1       0.136   2.012  -0.770  0.00  0.00    +0.042 A 
ATOM     20  C   UNL     1       1.168   2.435   0.051  0.00  0.00    +0.023 A 
ATOM     21  C   UNL     1       1.001   3.534   0.872  0.00  0.00    +0.040 A 
ATOM     22  C   UNL     1      -0.200   4.220   0.878  0.00  0.00    +0.136 A 
ATOM     23  F   UNL     1      -0.362   5.295   1.680  0.00  0.00    -0.205 F 
ATOM     24 CL   UNL     1       0.358   0.630  -1.797  0.00  0.00    -0.084 Cl
ENDBRANCH  15  17
ENDBRANCH   1   9
BRANCH   1  25
ATOM     25  C   UNL     1      -7.027   0.464   1.895  0.00  0.00    +0.036 C 
BRANCH  25  26
ATOM     26  C   UNL     1      -8.085  -0.027   2.886  0.00  0.00    +0.005 C 
BRANCH  26  28
ATOM     27  C   UNL     1      -9.093  -2.050   3.950  0.00  0.00    +0.007 C 
ATOM     28  C   UNL     1      -8.126  -1.556   2.873  0.00  0.00    -0.017 C 
ATOM     29  C   UNL     1      -8.598  -2.043   1.501  0.00  0.00    +0.007 C 
ENDBRANCH  26  28
ENDBRANCH  25  26
ENDBRANCH   1  25
BRANCH   4  30
ATOM     30  C   UNL     1      -7.681   3.931   5.000  0.00  0.00    +0.099 C 
BRANCH  30  31
ATOM     31  C   UNL     1      -8.272   2.996   6.057  0.00  0.00    -0.060 C 
BRANCH  31  34
ATOM     32  C   UNL     1      -9.261   4.813   7.315  0.00  0.00    -0.097 C 
ATOM     33  C   UNL     1      -8.654   2.754   8.435  0.00  0.00    -0.097 C 
ATOM     34  N   UNL     1      -8.291   3.698   7.357  0.00  0.00    +0.377 N 
ATOM     35  H   UNL     1      -7.356   4.077   7.546  0.00  0.00    -0.083 HD
ENDBRANCH  31  34
ENDBRANCH  30  31
ENDBRANCH   4  30
TORSDOF 8
