REMARK  Name = ZINC59020825
REMARK  11 active torsions:
REMARK  status: ('A' for Active; 'I' for Inactive)
REMARK    1  A    between atoms: C_1  and  C_2
REMARK    2  A    between atoms: C_5  and  S_9
REMARK    3  A    between atoms: C_6  and  C_8
REMARK    4  A    between atoms: S_9  and  C_10
REMARK    5  A    between atoms: C_13  and  N_16
REMARK    6  A    between atoms: C_17  and  C_19
REMARK    7  A    between atoms: C_19  and  C_20
REMARK    8  A    between atoms: C_20  and  C_21
REMARK    9  A    between atoms: C_22  and  C_34
REMARK   10  A    between atoms: C_25  and  C_31
REMARK   11  A    between atoms: C_29  and  C_30
REMARK                            x       y       z     vdW  Elec       q    Type
REMARK                         _______ _______ _______ _____ _____    ______ ____
ROOT
ATOM      1  N   UNL     1       0.315  -6.348  -5.665  0.00  0.00    -0.285 N 
ATOM      2  C   UNL     1       0.175  -7.655  -5.960  0.00  0.00    +0.218 C 
ATOM      3  O   UNL     1       0.088  -8.472  -5.067  0.00  0.00    -0.275 OA
ATOM      4  H   UNL     1       0.451  -5.702  -6.377  0.00  0.00    +0.155 HD
ENDROOT
BRANCH   1   8
ATOM      5  C   UNL     1       0.162  -5.075  -1.697  0.00  0.00    +0.013 A 
ATOM      6  C   UNL     1      -0.358  -4.272  -2.705  0.00  0.00    +0.017 A 
ATOM      7  C   UNL     1      -0.307  -4.694  -4.018  0.00  0.00    +0.024 A 
ATOM      8  C   UNL     1       0.264  -5.920  -4.332  0.00  0.00    +0.033 A 
ATOM      9  C   UNL     1       0.783  -6.723  -3.325  0.00  0.00    +0.024 A 
ATOM     10  C   UNL     1       0.737  -6.300  -2.012  0.00  0.00    +0.017 A 
BRANCH   5  11
ATOM     11  S   UNL     1       0.098  -4.537  -0.020  0.00  0.00    -0.089 S 
BRANCH  11  16
ATOM     12  C   UNL     1      -4.907  -7.120   2.152  0.00  0.00    +0.044 C 
ATOM     13  C   UNL     1      -3.657  -6.475   1.610  0.00  0.00    -0.050 A 
ATOM     14  C   UNL     1      -3.344  -6.598   0.268  0.00  0.00    +0.004 A 
ATOM     15  C   UNL     1      -2.200  -6.009  -0.232  0.00  0.00    +0.015 A 
ATOM     16  C   UNL     1      -1.363  -5.290   0.614  0.00  0.00    +0.016 A 
ATOM     17  C   UNL     1      -1.681  -5.169   1.961  0.00  0.00    -0.036 A 
ATOM     18  C   UNL     1      -2.830  -5.757   2.453  0.00  0.00    +0.007 A 
ATOM     19  C   UNL     1      -0.777  -4.392   2.882  0.00  0.00    +0.045 C 
ENDBRANCH  11  16
ENDBRANCH   5  11
ENDBRANCH   1   8
BRANCH   2  20
ATOM     20  C   UNL     1       0.126  -8.103  -7.398  0.00  0.00    +0.101 C 
BRANCH  20  21
ATOM     21  C   UNL     1      -0.037  -9.624  -7.453  0.00  0.00    +0.048 C 
BRANCH  21  22
ATOM     22  C   UNL     1      -0.086 -10.072  -8.891  0.00  0.00    -0.005 A 
ATOM     23  C   UNL     1      -1.294 -10.048  -9.598  0.00  0.00    +0.045 A 
ATOM     24  N   UNL     1      -1.332 -10.439 -10.853  0.00  0.00    -0.232 NA
ATOM     25  C   UNL     1      -0.228 -10.863 -11.471  0.00  0.00    +0.168 A 
ATOM     26  C   UNL     1       0.010 -11.328 -12.778  0.00  0.00    +0.100 A 
ATOM     27  C   UNL     1       1.380 -11.635 -12.860  0.00  0.00    +0.150 A 
ATOM     28  N   UNL     1       1.937 -11.382 -11.704  0.00  0.00    -0.172 NA
ATOM     29  N   UNL     1       0.970 -10.900 -10.816  0.00  0.00    -0.218 N 
ATOM     30  C   UNL     1       1.042 -10.496  -9.516  0.00  0.00    +0.047 A 
ATOM     31  C   UNL     1       2.356 -10.526  -8.779  0.00  0.00    +0.066 C 
ATOM     32  C   UNL     1      -2.553  -9.574  -8.920  0.00  0.00    +0.066 C 
BRANCH  26  33
ATOM     33  C   UNL     1      -0.980 -11.465 -13.850  0.00  0.00    +0.247 C 
ATOM     34  O   UNL     1      -2.142 -11.162 -13.648  0.00  0.00    -0.270 OA
ATOM     35  N   UNL     1      -0.605 -11.927 -15.059  0.00  0.00    -0.325 N 
ATOM     36  H   UNL     1       0.321 -12.168 -15.221  0.00  0.00    +0.145 HD
ATOM     37  H   UNL     1      -1.260 -12.018 -15.769  0.00  0.00    +0.145 HD
ENDBRANCH  26  33
ENDBRANCH  21  22
ENDBRANCH  20  21
ENDBRANCH   2  20
TORSDOF 7
