REMARK  Name = ZINC08782131
REMARK  6 active torsions:
REMARK  status: ('A' for Active; 'I' for Inactive)
REMARK    1  A    between atoms: C_4  and  N_7
REMARK    2  A    between atoms: C_12  and  C_13
REMARK    3  A    between atoms: C_12  and  N_58
REMARK    4  A    between atoms: C_13  and  O_29
REMARK    5  A    between atoms: N_16  and  S_19
REMARK    6  A    between atoms: S_19  and  C_22
REMARK                            x       y       z     vdW  Elec       q    Type
REMARK                         _______ _______ _______ _____ _____    ______ ____
ROOT
ATOM      1  C   UNL     1      -0.657   1.617   1.290  0.00  0.00    +0.054 C 
ATOM      2  C   UNL     1      -0.847   3.132   1.175  0.00  0.00    +0.050 C 
ATOM      3  C   UNL     1      -1.524   3.655   2.446  0.00  0.00    +0.112 C 
ATOM      4  N   UNL     1      -0.734   3.232   3.611  0.00  0.00    -0.176 NA
ATOM      5  C   UNL     1      -0.417   1.806   3.769  0.00  0.00    +0.112 C 
ATOM      6  C   UNL     1       0.247   1.304   2.483  0.00  0.00    +0.050 C 
ENDROOT
BRANCH   4   7
ATOM      7  S   UNL     1      -0.213   4.341   4.724  0.00  0.00    +0.061 S 
ATOM      8  O   UNL     1      -1.094   5.453   4.634  0.00  0.00    -0.153 OA
ATOM      9  O   UNL     1      -0.004   3.631   5.938  0.00  0.00    -0.153 OA
BRANCH   7  10
ATOM     10  C   UNL     1       1.369   4.908   4.194  0.00  0.00    +0.106 A 
ATOM     11  C   UNL     1       2.513   4.258   4.617  0.00  0.00    +0.030 A 
ATOM     12  C   UNL     1       3.754   4.699   4.197  0.00  0.00    +0.022 A 
ATOM     13  C   UNL     1       3.851   5.798   3.362  0.00  0.00    +0.041 A 
ATOM     14  C   UNL     1       2.706   6.451   2.943  0.00  0.00    +0.022 A 
ATOM     15  C   UNL     1       1.465   6.006   3.359  0.00  0.00    +0.030 A 
ATOM     16 CL   UNL     1       5.410   6.356   2.839  0.00  0.00    -0.084 Cl
ENDBRANCH   7  10
ENDBRANCH   4   7
BRANCH   1  17
ATOM     17  O   UNL     1      -1.928   0.992   1.478  0.00  0.00    -0.390 OA
ATOM     18  H   UNL     1      -2.395   1.282   2.274  0.00  0.00    +0.210 HD
ENDBRANCH   1  17
BRANCH   1  19
ATOM     19  C   UNL     1      -0.013   1.086   0.008  0.00  0.00    -0.043 C 
BRANCH  19  25
ATOM     20  N   UNL     1      -2.108   1.173  -3.659  0.00  0.00    -0.333 N 
ATOM     21  C   UNL     1      -0.852   1.930  -3.566  0.00  0.00    +0.086 C 
ATOM     22  C   UNL     1      -0.025   1.397  -2.394  0.00  0.00    -0.059 C 
ATOM     23  C   UNL     1      -2.059   0.761  -1.246  0.00  0.00    -0.059 C 
ATOM     24  C   UNL     1      -2.886   1.294  -2.418  0.00  0.00    +0.086 C 
ATOM     25  N   UNL     1      -0.809   1.545  -1.150  0.00  0.00    +0.384 N 
ATOM     26  H   UNL     1      -1.046   2.536  -1.021  0.00  0.00    -0.082 HD
BRANCH  20  30
ATOM     27  C   UNL     1      -4.347   2.398  -6.949  0.00  0.00    +0.000 A 
ATOM     28  C   UNL     1      -4.826   1.399  -6.122  0.00  0.00    +0.002 A 
ATOM     29  C   UNL     1      -4.086   0.990  -5.030  0.00  0.00    +0.023 A 
ATOM     30  C   UNL     1      -2.859   1.584  -4.763  0.00  0.00    +0.030 A 
ATOM     31  C   UNL     1      -2.384   2.591  -5.592  0.00  0.00    +0.023 A 
ATOM     32  C   UNL     1      -3.126   2.991  -6.686  0.00  0.00    +0.002 A 
ENDBRANCH  20  30
ENDBRANCH  19  25
ENDBRANCH   1  19
TORSDOF 6
