REMARK  Name = ZINC63361878
REMARK  9 active torsions:
REMARK  status: ('A' for Active; 'I' for Inactive)
REMARK    1  A    between atoms: C_1  and  C_2
REMARK    2  A    between atoms: C_2  and  C_4
REMARK    3  A    between atoms: C_2  and  C_36
REMARK    4  A    between atoms: C_4  and  N_5
REMARK    5  A    between atoms: C_6  and  C_8
REMARK    6  A    between atoms: C_13  and  N_14
REMARK    7  A    between atoms: C_17  and  C_35
REMARK    8  A    between atoms: C_23  and  O_28
REMARK    9  A    between atoms: O_28  and  C_29
REMARK                            x       y       z     vdW  Elec       q    Type
REMARK                         _______ _______ _______ _____ _____    ______ ____
ROOT
ATOM      1  N   UNL     1       1.257  -1.109  -6.298  0.00  0.00    -0.192 N 
ATOM      2  C   UNL     1       1.340  -2.455  -6.330  0.00  0.00    +0.253 C 
ATOM      3  O   UNL     1       0.430  -3.247  -6.208  0.00  0.00    -0.272 OA
ATOM      4  C   UNL     1       2.803  -2.772  -6.553  0.00  0.00    +0.137 C 
ATOM      5  C   UNL     1       3.357  -3.564  -5.363  0.00  0.00    +0.139 C 
ATOM      6  C   UNL     1       4.869  -3.371  -5.384  0.00  0.00    -0.034 C 
ATOM      7  C   UNL     1       5.399  -4.588  -5.455  0.00  0.00    +0.003 A 
ATOM      8  C   UNL     1       6.796  -5.050  -5.447  0.00  0.00    +0.055 A 
ATOM      9  C   UNL     1       6.995  -6.393  -5.549  0.00  0.00    +0.121 A 
ATOM     10  C   UNL     1       5.959  -7.333  -5.656  0.00  0.00    +0.047 A 
ATOM     11  C   UNL     1       4.639  -7.017  -5.667  0.00  0.00    +0.029 A 
ATOM     12  C   UNL     1       4.297  -5.592  -5.559  0.00  0.00    +0.043 A 
ATOM     13  N   UNL     1       3.127  -5.002  -5.526  0.00  0.00    -0.375 N 
ATOM     14  C   UNL     1       5.530  -2.015  -5.391  0.00  0.00    +0.052 C 
ATOM     15  C   UNL     1       4.892  -1.203  -6.536  0.00  0.00    +0.115 C 
ATOM     16  N   UNL     1       3.446  -1.438  -6.517  0.00  0.00    -0.268 N 
ATOM     17  C   UNL     1       2.460  -0.536  -6.437  0.00  0.00    +0.317 C 
ATOM     18  O   UNL     1       2.636   0.666  -6.482  0.00  0.00    -0.252 OA
ATOM     19  C   UNL     1       3.037  -3.486  -7.885  0.00  0.00    +0.044 C 
ATOM     20  H   UNL     1       2.261  -5.433  -5.598  0.00  0.00    +0.160 HD
ENDROOT
BRANCH   1  26
ATOM     21  C   UNL     1      -0.392  -0.058  -4.863  0.00  0.00    +0.059 A 
ATOM     22  C   UNL     1      -1.584   0.655  -4.722  0.00  0.00    +0.015 A 
ATOM     23  C   UNL     1      -2.307   1.014  -5.839  0.00  0.00    +0.001 A 
ATOM     24  C   UNL     1      -1.857   0.669  -7.103  0.00  0.00    +0.002 A 
ATOM     25  C   UNL     1      -0.680  -0.036  -7.257  0.00  0.00    +0.025 A 
ATOM     26  C   UNL     1       0.064  -0.400  -6.144  0.00  0.00    +0.058 A 
BRANCH  21  28
ATOM     27  N   UNL     1      -0.055  -0.114  -2.441  0.00  0.00    -0.311 N 
ATOM     28  C   UNL     1       0.387  -0.445  -3.670  0.00  0.00    +0.246 C 
ATOM     29  O   UNL     1       1.427  -1.062  -3.797  0.00  0.00    -0.270 OA
ATOM     30  H   UNL     1      -0.885   0.378  -2.339  0.00  0.00    +0.149 HD
BRANCH  27  31
ATOM     31  C   UNL     1       0.718  -0.497  -1.257  0.00  0.00    +0.112 C 
BRANCH  31  33
ATOM     32  C   UNL     1      -0.019   1.526   0.010  0.00  0.00    +0.014 C 
ATOM     33  C   UNL     1       0.002  -0.004   0.002  0.00  0.00    +0.033 C 
BRANCH  33  34
ATOM     34  C   UNL     1       0.731  -0.503   1.223  0.00  0.00    -0.043 A 
ATOM     35  C   UNL     1       2.050  -0.148   1.434  0.00  0.00    +0.004 A 
ATOM     36  C   UNL     1       2.719  -0.606   2.554  0.00  0.00    +0.000 A 
ATOM     37  C   UNL     1       2.068  -1.419   3.463  0.00  0.00    +0.000 A 
ATOM     38  C   UNL     1       0.749  -1.773   3.252  0.00  0.00    +0.000 A 
ATOM     39  C   UNL     1       0.079  -1.312   2.135  0.00  0.00    +0.004 A 
ENDBRANCH  33  34
ENDBRANCH  31  33
ENDBRANCH  27  31
ENDBRANCH  21  28
ENDBRANCH   1  26
BRANCH   9  40
ATOM     40  O   UNL     1       8.274  -6.851  -5.546  0.00  0.00    -0.495 OA
ATOM     41  C   UNL     1       8.458  -8.264  -5.653  0.00  0.00    +0.277 C 
ENDBRANCH   9  40
TORSDOF 6
