REMARK  Name = ZINC39670473
REMARK  8 active torsions:
REMARK  status: ('A' for Active; 'I' for Inactive)
REMARK    1  A    between atoms: C_1  and  C_2
REMARK    2  A    between atoms: C_7  and  C_11
REMARK    3  A    between atoms: C_11  and  N_12
REMARK    4  A    between atoms: C_13  and  C_15
REMARK    5  A    between atoms: C_26  and  C_28
REMARK    6  A    between atoms: C_28  and  C_30
REMARK    7  A    between atoms: C_28  and  O_31
REMARK    8  A    between atoms: O_31  and  C_32
REMARK                            x       y       z     vdW  Elec       q    Type
REMARK                         _______ _______ _______ _____ _____    ______ ____
ROOT
ATOM      1  C   UNL     1       3.172  -7.577   3.237  0.00  0.00    +0.100 C 
ATOM      2  C   UNL     1       4.017  -6.524   3.988  0.00  0.00    +0.121 C 
ATOM      3  N   UNL     1       3.996  -6.966   5.402  0.00  0.00    -0.297 N 
ATOM      4  C   UNL     1       4.107  -8.443   5.328  0.00  0.00    +0.115 C 
ATOM      5  C   UNL     1       3.237  -8.836   4.118  0.00  0.00    -0.004 C 
ATOM      6  C   UNL     1       3.887  -9.984   3.351  0.00  0.00    -0.010 C 
ATOM      7  C   UNL     1       3.887 -11.241   4.226  0.00  0.00    -0.082 C 
ATOM      8  N   UNL     1       2.508 -11.587   4.589  0.00  0.00    +0.379 N 
ATOM      9  C   UNL     1       1.921 -10.517   5.406  0.00  0.00    -0.082 C 
ATOM     10  C   UNL     1       1.838  -9.230   4.580  0.00  0.00    -0.010 C 
ATOM     11  C   UNL     1       3.899  -6.199   6.506  0.00  0.00    +0.256 C 
ATOM     12  O   UNL     1       3.718  -5.005   6.401  0.00  0.00    -0.272 OA
ATOM     13  H   UNL     1       1.960 -11.706   3.750  0.00  0.00    -0.086 HD
ATOM     14  H   UNL     1       2.506 -12.449   5.115  0.00  0.00    -0.086 HD
ENDROOT
BRANCH   1  16
ATOM     15  N   UNL     1       1.010  -7.492   2.038  0.00  0.00    -0.309 N 
ATOM     16  C   UNL     1       1.748  -7.106   3.099  0.00  0.00    +0.219 C 
ATOM     17  O   UNL     1       1.264  -6.381   3.942  0.00  0.00    -0.275 OA
ATOM     18  H   UNL     1       1.397  -8.072   1.364  0.00  0.00    +0.149 HD
BRANCH  15  19
ATOM     19  C   UNL     1      -0.375  -7.034   1.904  0.00  0.00    +0.159 C 
BRANCH  19  26
ATOM     20  C   UNL     1      -2.921  -8.609  -4.853  0.00  0.00    +0.045 C 
ATOM     21  C   UNL     1      -2.580  -8.741  -3.391  0.00  0.00    -0.034 A 
ATOM     22  C   UNL     1      -2.913  -9.917  -2.699  0.00  0.00    +0.008 A 
ATOM     23  C   UNL     1      -2.603 -10.034  -1.379  0.00  0.00    +0.045 A 
ATOM     24  C   UNL     1      -1.952  -8.968  -0.727  0.00  0.00    +0.115 A 
ATOM     25  N   UNL     1      -1.538  -8.805   0.522  0.00  0.00    -0.342 N 
ATOM     26  C   UNL     1      -0.972  -7.602   0.642  0.00  0.00    +0.051 A 
ATOM     27  C   UNL     1      -1.022  -6.979  -0.555  0.00  0.00    +0.115 A 
ATOM     28  N   UNL     1      -1.640  -7.832  -1.429  0.00  0.00    -0.308 N 
ATOM     29  C   UNL     1      -1.952  -7.731  -2.754  0.00  0.00    +0.096 A 
ATOM     30  H   UNL     1      -1.632  -9.456   1.235  0.00  0.00    +0.167 HD
ENDBRANCH  19  26
ENDBRANCH  15  19
ENDBRANCH   1  16
BRANCH  11  31
ATOM     31  C   UNL     1       4.015  -6.827   7.872  0.00  0.00    +0.256 C 
ATOM     32  C   UNL     1       5.449  -7.311   8.091  0.00  0.00    +0.062 C 
BRANCH  31  33
ATOM     33  O   UNL     1       3.680  -5.860   8.870  0.00  0.00    -0.480 OA
BRANCH  33  34
ATOM     34  C   UNL     1       3.228  -6.334  10.060  0.00  0.00    +0.122 A 
ATOM     35  C   UNL     1       2.768  -5.453  11.029  0.00  0.00    +0.045 A 
ATOM     36  C   UNL     1       2.308  -5.938  12.238  0.00  0.00    +0.004 A 
ATOM     37  C   UNL     1       2.305  -7.298  12.484  0.00  0.00    +0.000 A 
ATOM     38  C   UNL     1       2.763  -8.178  11.520  0.00  0.00    +0.004 A 
ATOM     39  C   UNL     1       3.218  -7.699  10.307  0.00  0.00    +0.045 A 
ENDBRANCH  33  34
ENDBRANCH  31  33
ENDBRANCH  11  31
TORSDOF 6
