REMARK  Name = ZINC61595182
REMARK  9 active torsions:
REMARK  status: ('A' for Active; 'I' for Inactive)
REMARK    1  A    between atoms: C_1  and  C_2
REMARK    2  A    between atoms: C_2  and  C_4
REMARK    3  A    between atoms: C_2  and  N_24
REMARK    4  A    between atoms: C_4  and  C_6
REMARK    5  A    between atoms: C_4  and  S_13
REMARK    6  A    between atoms: S_13  and  C_14
REMARK    7  A    between atoms: N_20  and  C_21
REMARK    8  A    between atoms: C_21  and  C_22
REMARK    9  A    between atoms: C_21  and  C_23
REMARK                            x       y       z     vdW  Elec       q    Type
REMARK                         _______ _______ _______ _____ _____    ______ ____
ROOT
ATOM      1  C   UNL     1       0.854  -0.524   1.162  0.00  0.00    +0.069 C 
ENDROOT
BRANCH   1   2
ATOM      2  C   UNL     1       0.972  -2.001   0.887  0.00  0.00    -0.035 A 
ATOM      3  C   UNL     1       1.499  -2.441  -0.313  0.00  0.00    +0.005 A 
ATOM      4  C   UNL     1       1.607  -3.796  -0.566  0.00  0.00    +0.001 A 
ATOM      5  C   UNL     1       1.189  -4.711   0.382  0.00  0.00    +0.015 A 
ATOM      6  C   UNL     1       0.663  -4.272   1.583  0.00  0.00    +0.018 A 
ATOM      7  C   UNL     1       0.559  -2.916   1.837  0.00  0.00    +0.020 A 
ATOM      8 BR   UNL     1       0.090  -5.524   2.879  0.00  0.00    -0.050 Br
ENDBRANCH   1   2
BRANCH   1  10
ATOM      9  C   UNL     1      -0.225   1.606   0.427  0.00  0.00    -0.013 C 
ATOM     10  C   UNL     1      -0.051   0.120   0.109  0.00  0.00    -0.060 C 
BRANCH  10  11
ATOM     11  N   UNL     1      -1.363  -0.541   0.122  0.00  0.00    +0.381 N 
ATOM     12  H   UNL     1      -1.782  -0.438   1.034  0.00  0.00    -0.090 HD
ATOM     13  H   UNL     1      -1.960  -0.116  -0.573  0.00  0.00    -0.090 HD
ATOM     14  H   UNL     1      -1.248  -1.521  -0.088  0.00  0.00    -0.090 HD
ENDBRANCH  10  11
ENDBRANCH   1  10
BRANCH   1  15
ATOM     15  S   UNL     1       2.499   0.237   1.092  0.00  0.00    -0.080 S 
BRANCH  15  16
ATOM     16  C   UNL     1       3.339  -0.435   2.488  0.00  0.00    +0.193 A 
ATOM     17  N   UNL     1       2.809  -1.205   3.394  0.00  0.00    -0.145 NA
ATOM     18  N   UNL     1       3.804  -1.521   4.330  0.00  0.00    -0.226 N 
ATOM     19  H   UNL     1       3.697  -2.080   5.115  0.00  0.00    +0.194 HD
ATOM     20  C   UNL     1       4.939  -0.906   3.937  0.00  0.00    +0.345 A 
ATOM     21  O   UNL     1       6.016  -0.950   4.504  0.00  0.00    -0.245 OA
ATOM     22  N   UNL     1       4.665  -0.237   2.799  0.00  0.00    -0.268 N 
BRANCH  22  23
ATOM     23  C   UNL     1       5.617   0.566   2.026  0.00  0.00    +0.088 C 
ATOM     24  C   UNL     1       6.160   1.696   2.903  0.00  0.00    +0.031 C 
ATOM     25  C   UNL     1       6.774  -0.321   1.562  0.00  0.00    +0.031 C 
ENDBRANCH  22  23
ENDBRANCH  15  16
ENDBRANCH   1  15
TORSDOF 6
