REMARK  Name = ZINC36066391
REMARK  9 active torsions:
REMARK  status: ('A' for Active; 'I' for Inactive)
REMARK    1  A    between atoms: C_1  and  C_2
REMARK    2  A    between atoms: C_2  and  C_3
REMARK    3  A    between atoms: C_3  and  C_5
REMARK    4  A    between atoms: C_3  and  N_6
REMARK    5  A    between atoms: C_7  and  C_31
REMARK    6  A    between atoms: C_15  and  C_21
REMARK    7  A    between atoms: N_23  and  C_24
REMARK    8  A    between atoms: C_27  and  C_30
REMARK    9  A    between atoms: N_33  and  C_34
REMARK                            x       y       z     vdW  Elec       q    Type
REMARK                         _______ _______ _______ _____ _____    ______ ____
ROOT
ATOM      1  N   UNL     1       0.173  -0.090   2.990  0.00  0.00    -0.284 N 
ATOM      2  C   UNL     1       0.389   0.969   4.026  0.00  0.00    +0.199 C 
ATOM      3  C   UNL     1      -0.689   0.657   5.017  0.00  0.00    +0.127 C 
ATOM      4  C   UNL     1      -0.415  -0.610   5.806  0.00  0.00    +0.009 C 
ATOM      5  C   UNL     1      -1.439  -0.745   6.636  0.00  0.00    +0.004 C 
ATOM      6  C   UNL     1      -2.376   0.422   6.303  0.00  0.00    +0.155 C 
ATOM      7  O   UNL     1      -1.401   1.477   5.913  0.00  0.00    -0.358 OA
ATOM      8  C   UNL     1      -2.983  -0.024   4.917  0.00  0.00    +0.123 C 
ATOM      9  C   UNL     1      -1.843   0.364   3.976  0.00  0.00    +0.128 C 
ATOM     10  C   UNL     1      -1.133  -0.517   3.033  0.00  0.00    +0.224 C 
ATOM     11  O   UNL     1      -1.610  -1.444   2.413  0.00  0.00    -0.275 OA
ENDROOT
BRANCH   8  12
ATOM     12  C   UNL     1      -3.247  -1.508   4.895  0.00  0.00    +0.224 C 
ATOM     13  O   UNL     1      -2.675  -2.213   4.090  0.00  0.00    -0.275 OA
ATOM     14  N   UNL     1      -4.117  -2.051   5.768  0.00  0.00    -0.285 N 
ATOM     15  H   UNL     1      -4.621  -1.480   6.369  0.00  0.00    +0.155 HD
BRANCH  14  16
ATOM     16  C   UNL     1      -4.295  -3.438   5.808  0.00  0.00    +0.033 A 
ATOM     17  C   UNL     1      -4.548  -4.073   7.017  0.00  0.00    +0.023 A 
ATOM     18  C   UNL     1      -4.723  -5.443   7.053  0.00  0.00    +0.005 A 
ATOM     19  C   UNL     1      -4.646  -6.182   5.887  0.00  0.00    -0.050 A 
ATOM     20  C   UNL     1      -4.394  -5.553   4.681  0.00  0.00    +0.005 A 
ATOM     21  C   UNL     1      -4.224  -4.183   4.638  0.00  0.00    +0.023 A 
ATOM     22  C   UNL     1      -4.837  -7.676   5.930  0.00  0.00    +0.044 C 
ENDBRANCH  14  16
ENDBRANCH   8  12
BRANCH   2  23
ATOM     23  C   UNL     1       0.200   2.343   3.437  0.00  0.00    +0.237 C 
ATOM     24  O   UNL     1      -0.355   2.474   2.367  0.00  0.00    -0.274 OA
ATOM     25  N   UNL     1       0.648   3.428   4.101  0.00  0.00    -0.311 N 
ATOM     26  H   UNL     1       1.092   3.323   4.957  0.00  0.00    +0.149 HD
BRANCH  25  27
ATOM     27  C   UNL     1       0.465   4.764   3.529  0.00  0.00    +0.073 C 
ATOM     28  C   UNL     1       1.609   5.066   2.560  0.00  0.00    +0.022 C 
ATOM     29  C   UNL     1       1.417   6.461   1.963  0.00  0.00    +0.002 C 
ATOM     30  C   UNL     1       1.413   7.500   3.086  0.00  0.00    +0.000 C 
ATOM     31  C   UNL     1       0.268   7.198   4.055  0.00  0.00    +0.002 C 
ATOM     32  C   UNL     1       0.460   5.803   4.652  0.00  0.00    +0.022 C 
ENDBRANCH  25  27
ENDBRANCH   2  23
BRANCH   1  33
ATOM     33  C   UNL     1       1.195  -0.592   2.068  0.00  0.00    +0.074 C 
ATOM     34  C   UNL     1       1.819   0.583   1.312  0.00  0.00    +0.028 C 
BRANCH  33  36
ATOM     35  C   UNL     1       1.683  -2.571   3.513  0.00  0.00    +0.005 C 
ATOM     36  C   UNL     1       2.281  -1.323   2.860  0.00  0.00    +0.019 C 
ENDBRANCH  33  36
ENDBRANCH   1  33
TORSDOF 6
