REMARK  Name = ZINC40778042
REMARK  8 active torsions:
REMARK  status: ('A' for Active; 'I' for Inactive)
REMARK    1  A    between atoms: C_4  and  N_7
REMARK    2  A    between atoms: N_7  and  C_8
REMARK    3  A    between atoms: N_7  and  N_14
REMARK    4  A    between atoms: C_16  and  N_35
REMARK    5  A    between atoms: C_17  and  N_21
REMARK    6  A    between atoms: N_21  and  C_22
REMARK    7  A    between atoms: C_25  and  O_28
REMARK    8  A    between atoms: O_28  and  C_29
REMARK                            x       y       z     vdW  Elec       q    Type
REMARK                         _______ _______ _______ _____ _____    ______ ____
ROOT
ATOM      1  N   UNL     1       5.452  -0.601  -0.732  0.00  0.00    -0.242 N 
ATOM      2  C   UNL     1       6.091  -0.070   0.382  0.00  0.00    +0.161 A 
ATOM      3  C   UNL     1       7.160   0.815   0.231  0.00  0.00    +0.105 A 
ATOM      4  C   UNL     1       7.766   1.319   1.383  0.00  0.00    +0.126 A 
ATOM      5  N   UNL     1       7.305   0.939   2.573  0.00  0.00    -0.333 N 
ATOM      6  C   UNL     1       6.293   0.102   2.671  0.00  0.00    +0.200 A 
ATOM      7  N   UNL     1       5.689  -0.393   1.609  0.00  0.00    -0.219 NA
ATOM      8  H   UNL     1       5.751  -0.361  -1.623  0.00  0.00    +0.172 HD
ATOM      9  H   UNL     1       7.720   1.284   3.379  0.00  0.00    +0.168 HD
ENDROOT
BRANCH   3  10
ATOM     10  N   UNL     1       7.614   1.188  -1.044  0.00  0.00    -0.353 N 
ATOM     11  H   UNL     1       7.183   0.829  -1.836  0.00  0.00    +0.143 HD
ATOM     12  H   UNL     1       8.358   1.804  -1.133  0.00  0.00    +0.143 HD
ENDBRANCH   3  10
BRANCH   4  13
ATOM     13  N   UNL     1       8.835   2.203   1.290  0.00  0.00    -0.299 N 
ATOM     14  H   UNL     1       9.105   2.548   0.424  0.00  0.00    +0.154 HD
BRANCH  13  15
ATOM     15  C   UNL     1       9.521   2.596   2.445  0.00  0.00    +0.033 A 
ATOM     16  C   UNL     1       9.949   3.909   2.586  0.00  0.00    +0.027 A 
ATOM     17  C   UNL     1      10.626   4.296   3.726  0.00  0.00    +0.048 A 
ATOM     18  C   UNL     1      10.880   3.372   4.729  0.00  0.00    +0.129 A 
ATOM     19  C   UNL     1      10.453   2.060   4.589  0.00  0.00    +0.048 A 
ATOM     20  C   UNL     1       9.770   1.673   3.453  0.00  0.00    +0.027 A 
BRANCH  18  21
ATOM     21  O   UNL     1      11.548   3.753   5.851  0.00  0.00    -0.456 OA
BRANCH  21  22
ATOM     22  C   UNL     1      11.846   5.071   5.999  0.00  0.00    +0.128 A 
ATOM     23  C   UNL     1      10.861   5.968   6.386  0.00  0.00    +0.046 A 
ATOM     24  C   UNL     1      11.167   7.306   6.535  0.00  0.00    +0.004 A 
ATOM     25  C   UNL     1      12.454   7.753   6.299  0.00  0.00    +0.000 A 
ATOM     26  C   UNL     1      13.438   6.861   5.913  0.00  0.00    +0.004 A 
ATOM     27  C   UNL     1      13.138   5.521   5.768  0.00  0.00    +0.046 A 
ENDBRANCH  21  22
ENDBRANCH  18  21
ENDBRANCH  13  15
ENDBRANCH   4  13
BRANCH   1  28
ATOM     28  N   UNL     1       4.376  -1.484  -0.568  0.00  0.00    -0.221 N 
BRANCH  28  32
ATOM     29  C   UNL     1       0.649  -0.031   0.587  0.00  0.00    +0.000 A 
ATOM     30  C   UNL     1       1.008  -1.331   0.894  0.00  0.00    +0.002 A 
ATOM     31  C   UNL     1       2.244  -1.816   0.512  0.00  0.00    +0.025 A 
ATOM     32  C   UNL     1       3.126  -0.997  -0.181  0.00  0.00    +0.053 A 
ATOM     33  C   UNL     1       2.761   0.309  -0.487  0.00  0.00    +0.025 A 
ATOM     34  C   UNL     1       1.525   0.787  -0.102  0.00  0.00    +0.002 A 
ENDBRANCH  28  32
BRANCH  28  35
ATOM     35  C   UNL     1       4.555  -2.851  -0.793  0.00  0.00    +0.053 A 
ATOM     36  C   UNL     1       3.588  -3.576  -1.480  0.00  0.00    +0.025 A 
ATOM     37  C   UNL     1       3.768  -4.927  -1.700  0.00  0.00    +0.002 A 
ATOM     38  C   UNL     1       4.908  -5.559  -1.238  0.00  0.00    +0.000 A 
ATOM     39  C   UNL     1       5.871  -4.841  -0.553  0.00  0.00    +0.002 A 
ATOM     40  C   UNL     1       5.701  -3.488  -0.335  0.00  0.00    +0.025 A 
ENDBRANCH  28  35
ENDBRANCH   1  28
TORSDOF 8
