REMARK  Name = ZINC39984586
REMARK  10 active torsions:
REMARK  status: ('A' for Active; 'I' for Inactive)
REMARK    1  A    between atoms: C_1  and  C_2
REMARK    2  A    between atoms: C_2  and  C_3
REMARK    3  A    between atoms: C_3  and  C_4
REMARK    4  A    between atoms: C_4  and  O_5
REMARK    5  A    between atoms: O_5  and  C_6
REMARK    6  A    between atoms: C_10  and  N_12
REMARK    7  A    between atoms: N_12  and  C_13
REMARK    8  A    between atoms: N_16  and  S_17
REMARK    9  A    between atoms: S_17  and  C_20
REMARK   10  A    between atoms: C_23  and  C_26
REMARK                            x       y       z     vdW  Elec       q    Type
REMARK                         _______ _______ _______ _____ _____    ______ ____
ROOT
ATOM      1  C   UNL     1       3.116  -7.692  -5.121  0.00  0.00    +0.237 C 
ATOM      2  C   UNL     1       2.768  -8.095  -6.536  0.00  0.00    +0.192 C 
ATOM      3  N   UNL     1       1.584  -7.855  -7.018  0.00  0.00    -0.110 NA
ATOM      4  N   UNL     1       3.699  -8.703  -7.288  0.00  0.00    -0.226 NA
ATOM      5  C   UNL     1       4.905  -8.956  -6.823  0.00  0.00    +0.089 A 
ATOM      6  C   UNL     1       5.863  -9.601  -7.646  0.00  0.00    +0.030 A 
ATOM      7  C   UNL     1       7.102  -9.863  -7.174  0.00  0.00    +0.002 A 
ATOM      8  C   UNL     1       7.507  -9.523  -5.873  0.00  0.00    +0.002 A 
ATOM      9  C   UNL     1       6.672  -8.907  -5.007  0.00  0.00    +0.027 A 
ATOM     10  C   UNL     1       5.306  -8.586  -5.444  0.00  0.00    +0.063 A 
ATOM     11  N   UNL     1       4.473  -7.991  -4.637  0.00  0.00    -0.359 N 
ATOM     12  H   UNL     1       4.742  -7.750  -3.736  0.00  0.00    +0.162 HD
ENDROOT
BRANCH   3  13
ATOM     13  S   UNL     1       1.216  -8.301  -8.569  0.00  0.00    +0.100 S 
ATOM     14  O   UNL     1       2.026  -7.506  -9.424  0.00  0.00    -0.146 OA
ATOM     15  O   UNL     1       1.242  -9.722  -8.600  0.00  0.00    -0.146 OA
BRANCH  13  16
ATOM     16  C   UNL     1      -0.453  -7.822  -8.867  0.00  0.00    +0.113 A 
ATOM     17  C   UNL     1      -1.485  -8.696  -8.583  0.00  0.00    +0.029 A 
ATOM     18  C   UNL     1      -2.795  -8.320  -8.816  0.00  0.00    +0.005 A 
ATOM     19  C   UNL     1      -3.072  -7.069  -9.334  0.00  0.00    -0.050 A 
ATOM     20  C   UNL     1      -2.041  -6.194  -9.617  0.00  0.00    +0.005 A 
ATOM     21  C   UNL     1      -0.731  -6.568  -9.380  0.00  0.00    +0.029 A 
ATOM     22  C   UNL     1      -4.500  -6.659  -9.589  0.00  0.00    +0.044 C 
ENDBRANCH  13  16
ENDBRANCH   3  13
BRANCH   1  23
ATOM     23  N   UNL     1       2.908  -6.247  -5.003  0.00  0.00    -0.318 N 
ATOM     24  H   UNL     1       3.309  -5.644  -5.649  0.00  0.00    +0.148 HD
BRANCH  23  29
ATOM     25  C   UNL     1       0.931  -6.061  -1.908  0.00  0.00    +0.122 A 
ATOM     26  C   UNL     1       0.591  -4.715  -1.896  0.00  0.00    +0.046 A 
ATOM     27  C   UNL     1       1.020  -3.884  -2.913  0.00  0.00    +0.005 A 
ATOM     28  C   UNL     1       1.788  -4.389  -3.945  0.00  0.00    +0.023 A 
ATOM     29  C   UNL     1       2.131  -5.736  -3.961  0.00  0.00    +0.032 A 
ATOM     30  C   UNL     1       1.706  -6.571  -2.937  0.00  0.00    +0.068 A 
BRANCH  25  31
ATOM     31  O   UNL     1       0.508  -6.878  -0.907  0.00  0.00    -0.492 OA
BRANCH  31  32
ATOM     32  C   UNL     1      -0.287  -6.285   0.122  0.00  0.00    +0.229 C 
BRANCH  32  33
ATOM     33  C   UNL     1      -0.666  -7.350   1.152  0.00  0.00    +0.041 C 
BRANCH  33  35
ATOM     34  C   UNL     1      -1.896  -7.781   3.284  0.00  0.00    +0.004 C 
ATOM     35  C   UNL     1      -1.518  -6.715   2.253  0.00  0.00    -0.000 C 
ENDBRANCH  33  35
ENDBRANCH  32  33
ENDBRANCH  31  32
ENDBRANCH  25  31
ENDBRANCH  23  29
ENDBRANCH   1  23
TORSDOF 8
