REMARK  Name = ZINC42711669
REMARK  7 active torsions:
REMARK  status: ('A' for Active; 'I' for Inactive)
REMARK    1  A    between atoms: C_1  and  C_2
REMARK    2  A    between atoms: C_2  and  C_34
REMARK    3  A    between atoms: C_4  and  N_10
REMARK    4  A    between atoms: C_6  and  C_8
REMARK    5  A    between atoms: C_6  and  C_9
REMARK    6  A    between atoms: C_11  and  C_13
REMARK    7  A    between atoms: N_24  and  C_26
REMARK                            x       y       z     vdW  Elec       q    Type
REMARK                         _______ _______ _______ _____ _____    ______ ____
ROOT
ATOM      1  C   UNL     1       4.312  -0.866  -4.426  0.00  0.00    +0.122 C 
ATOM      2  C   UNL     1       5.504  -1.868  -4.176  0.00  0.00    +0.155 C 
ATOM      3  C   UNL     1       6.229  -1.220  -2.990  0.00  0.00    +0.004 C 
ATOM      4  C   UNL     1       6.821  -0.147  -3.495  0.00  0.00    +0.008 C 
ATOM      5  C   UNL     1       6.517  -0.170  -4.982  0.00  0.00    +0.116 C 
ATOM      6  C   UNL     1       4.997   0.223  -5.212  0.00  0.00    +0.127 C 
ATOM      7  C   UNL     1       5.059   1.657  -4.875  0.00  0.00    +0.227 C 
ATOM      8  O   UNL     1       4.195   2.308  -4.326  0.00  0.00    -0.275 OA
ATOM      9  N   UNL     1       6.282   2.115  -5.301  0.00  0.00    -0.268 N 
ATOM     10  C   UNL     1       7.127   0.982  -5.718  0.00  0.00    +0.153 C 
ATOM     11  O   UNL     1       6.418  -1.554  -5.309  0.00  0.00    -0.359 OA
ENDROOT
BRANCH   9  12
ATOM     12  C   UNL     1       6.685   3.456  -5.303  0.00  0.00    +0.036 A 
ATOM     13  C   UNL     1       7.948   3.802  -5.765  0.00  0.00    +0.025 A 
ATOM     14  C   UNL     1       8.344   5.125  -5.765  0.00  0.00    +0.022 A 
ATOM     15  C   UNL     1       7.482   6.106  -5.306  0.00  0.00    +0.041 A 
ATOM     16  C   UNL     1       6.223   5.764  -4.845  0.00  0.00    +0.022 A 
ATOM     17  C   UNL     1       5.821   4.443  -4.848  0.00  0.00    +0.025 A 
ATOM     18 CL   UNL     1       7.982   7.769  -5.308  0.00  0.00    -0.084 Cl
ENDBRANCH   9  12
BRANCH   1  20
ATOM     19  N   UNL     1       2.630  -0.838  -2.612  0.00  0.00    -0.312 N 
ATOM     20  C   UNL     1       3.770  -0.334  -3.123  0.00  0.00    +0.220 C 
ATOM     21  O   UNL     1       4.361   0.547  -2.536  0.00  0.00    -0.275 OA
ATOM     22  H   UNL     1       2.157  -1.542  -3.082  0.00  0.00    +0.149 HD
BRANCH  19  26
ATOM     23  C   UNL     1      -0.030   1.478   0.026  0.00  0.00    -0.010 C 
ATOM     24  C   UNL     1       0.022  -0.054   0.030  0.00  0.00    -0.072 C 
ATOM     25  C   UNL     1       0.592  -0.554  -1.292  0.00  0.00    +0.009 C 
ATOM     26  C   UNL     1       2.102  -0.320  -1.344  0.00  0.00    +0.070 C 
ATOM     27  C   UNL     1       2.742  -1.082  -0.183  0.00  0.00    +0.009 C 
ATOM     28  C   UNL     1       2.188  -0.587   1.148  0.00  0.00    -0.072 C 
ATOM     29  N   UNL     1       0.736  -0.555   1.191  0.00  0.00    +0.386 N 
ATOM     30  C   UNL     1       2.785   0.785   1.480  0.00  0.00    -0.010 C 
ATOM     31  C   UNL     1       2.669  -1.567   2.243  0.00  0.00    -0.010 C 
ATOM     32  C   UNL     1      -1.438  -0.556   0.123  0.00  0.00    -0.010 C 
ATOM     33  H   UNL     1       0.451  -0.003   2.006  0.00  0.00    -0.084 HD
ATOM     34  H   UNL     1       0.401  -1.503   1.389  0.00  0.00    -0.084 HD
ENDBRANCH  19  26
ENDBRANCH   1  20
TORSDOF 3
