REMARK  Name = ZINC36207720
REMARK  14 active torsions:
REMARK  status: ('A' for Active; 'I' for Inactive)
REMARK    1  A    between atoms: C_1  and  O_2
REMARK    2  A    between atoms: O_2  and  C_3
REMARK    3  A    between atoms: C_6  and  C_11
REMARK    4  A    between atoms: C_8  and  O_9
REMARK    5  A    between atoms: O_9  and  C_10
REMARK    6  A    between atoms: C_20  and  C_22
REMARK    7  A    between atoms: C_22  and  N_23
REMARK    8  A    between atoms: N_23  and  C_24
REMARK    9  A    between atoms: N_23  and  C_36
REMARK   10  A    between atoms: C_24  and  C_25
REMARK   11  A    between atoms: C_25  and  C_27
REMARK   12  A    between atoms: C_25  and  O_35
REMARK   13  A    between atoms: C_27  and  O_28
REMARK   14  A    between atoms: O_28  and  C_29
REMARK                            x       y       z     vdW  Elec       q    Type
REMARK                         _______ _______ _______ _____ _____    ______ ____
ROOT
ATOM      1  C   UNL     1       2.292  -2.708  -4.391  0.00  0.00    +0.004 A 
ATOM      2  C   UNL     1       3.343  -3.537  -4.184  0.00  0.00    +0.056 A 
ATOM      3  S   UNL     1       3.995  -3.794  -5.822  0.00  0.00    -0.076 S 
ATOM      4  C   UNL     1       2.853  -2.791  -6.738  0.00  0.00    +0.116 A 
ATOM      5  C   UNL     1       1.990  -2.285  -5.753  0.00  0.00    +0.080 A 
ATOM      6  C   UNL     1       0.945  -1.428  -6.225  0.00  0.00    +0.260 A 
ATOM      7  O   UNL     1       0.148  -0.937  -5.444  0.00  0.00    -0.267 OA
ATOM      8  N   UNL     1       0.856  -1.173  -7.543  0.00  0.00    -0.312 N 
ATOM      9  H   UNL     1       0.150  -0.593  -7.869  0.00  0.00    +0.170 HD
ATOM     10  C   UNL     1       1.736  -1.711  -8.427  0.00  0.00    +0.094 A 
ATOM     11  N   UNL     1       2.705  -2.489  -8.025  0.00  0.00    -0.229 NA
ENDROOT
BRANCH   1  15
ATOM     12  C   UNL     1      -0.093  -1.367  -1.130  0.00  0.00    +0.162 A 
ATOM     13  C   UNL     1       0.406  -0.454  -2.046  0.00  0.00    +0.050 A 
ATOM     14  C   UNL     1       1.179  -0.886  -3.104  0.00  0.00    +0.012 A 
ATOM     15  C   UNL     1       1.461  -2.243  -3.254  0.00  0.00    -0.013 A 
ATOM     16  C   UNL     1       0.961  -3.162  -2.333  0.00  0.00    +0.058 A 
ATOM     17  C   UNL     1       0.190  -2.724  -1.271  0.00  0.00    +0.162 A 
BRANCH  12  19
ATOM     18  C   UNL     1      -1.106   0.467  -0.004  0.00  0.00    +0.277 C 
ATOM     19  O   UNL     1      -0.855  -0.938  -0.089  0.00  0.00    -0.491 OA
ENDBRANCH  12  19
BRANCH  17  20
ATOM     20  O   UNL     1      -0.296  -3.617  -0.368  0.00  0.00    -0.491 OA
ATOM     21  C   UNL     1       0.034  -4.992  -0.575  0.00  0.00    +0.277 C 
ENDBRANCH  17  20
ENDBRANCH   1  15
BRANCH  10  22
ATOM     22  C   UNL     1       1.597  -1.396  -9.894  0.00  0.00    -0.003 C 
BRANCH  22  23
ATOM     23  N   UNL     1       2.566  -2.193 -10.659  0.00  0.00    +0.388 N 
ATOM     24  H   UNL     1       3.491  -2.051 -10.282  0.00  0.00    -0.081 HD
BRANCH  23  25
ATOM     25  C   UNL     1       2.541  -1.775 -12.067  0.00  0.00    -0.068 C 
ATOM     26  C   UNL     1       3.885  -1.552 -12.761  0.00  0.00    -0.017 C 
ATOM     27  C   UNL     1       3.008  -0.355 -12.390  0.00  0.00    -0.017 C 
ENDBRANCH  23  25
BRANCH  23  28
ATOM     28  C   UNL     1       2.212  -3.616 -10.564  0.00  0.00    -0.043 C 
BRANCH  28  29
ATOM     29  C   UNL     1       3.288  -4.456 -11.255  0.00  0.00    +0.135 C 
BRANCH  29  30
ATOM     30  O   UNL     1       4.522  -4.326 -10.547  0.00  0.00    -0.390 OA
ATOM     31  H   UNL     1       4.480  -4.617  -9.626  0.00  0.00    +0.210 HD
ENDBRANCH  29  30
BRANCH  29  32
ATOM     32  C   UNL     1       2.859  -5.925 -11.266  0.00  0.00    +0.258 C 
BRANCH  32  33
ATOM     33  O   UNL     1       3.806  -6.692 -12.013  0.00  0.00    -0.489 OA
BRANCH  33  34
ATOM     34  C   UNL     1       3.572  -8.026 -12.121  0.00  0.00    +0.121 A 
ATOM     35  C   UNL     1       2.450  -8.585 -11.525  0.00  0.00    +0.045 A 
ATOM     36  C   UNL     1       2.213  -9.941 -11.637  0.00  0.00    +0.004 A 
ATOM     37  C   UNL     1       3.094 -10.742 -12.341  0.00  0.00    +0.000 A 
ATOM     38  C   UNL     1       4.213 -10.188 -12.934  0.00  0.00    +0.004 A 
ATOM     39  C   UNL     1       4.450  -8.831 -12.831  0.00  0.00    +0.045 A 
ENDBRANCH  33  34
ENDBRANCH  32  33
ENDBRANCH  29  32
ENDBRANCH  28  29
ENDBRANCH  23  28
ENDBRANCH  22  23
ENDBRANCH  10  22
TORSDOF 12
