REMARK  Name = ZINC08382921
REMARK  5 active torsions:
REMARK  status: ('A' for Active; 'I' for Inactive)
REMARK    1  A    between atoms: C_1  and  S_2
REMARK    2  A    between atoms: S_2  and  C_3
REMARK    3  A    between atoms: C_11  and  N_24
REMARK    4  A    between atoms: C_12  and  C_22
REMARK    5  A    between atoms: C_13  and  C_15
REMARK                            x       y       z     vdW  Elec       q    Type
REMARK                         _______ _______ _______ _____ _____    ______ ____
ROOT
ATOM      1  C   UNL     1      -1.702  -0.454   0.016  0.00  0.00    +0.193 A 
ATOM      2  N   UNL     1      -2.621   0.501   0.024  0.00  0.00    -0.183 NA
ATOM      3  C   UNL     1      -3.916   0.201   0.033  0.00  0.00    +0.280 A 
ATOM      4  O   UNL     1      -4.850   1.183   0.040  0.00  0.00    -0.265 OA
ATOM      5  C   UNL     1      -4.298  -1.136   0.034  0.00  0.00    +0.071 A 
ATOM      6  C   UNL     1      -3.308  -2.109   0.028  0.00  0.00    +0.136 A 
ATOM      7  N   UNL     1      -2.030  -1.738   0.012  0.00  0.00    -0.206 NA
ATOM      8  N   UNL     1      -3.649  -3.453   0.038  0.00  0.00    -0.287 N 
ATOM      9  C   UNL     1      -4.916  -3.837   0.404  0.00  0.00    +0.101 C 
ATOM     10  C   UNL     1      -5.940  -2.947   0.423  0.00  0.00    +0.077 C 
ATOM     11  C   UNL     1      -5.752  -1.508   0.039  0.00  0.00    +0.101 C 
ATOM     12  H   UNL     1      -2.993  -4.122  -0.214  0.00  0.00    +0.155 HD
ENDROOT
BRANCH  11  13
ATOM     13  C   UNL     1      -6.324  -1.285  -1.337  0.00  0.00    -0.034 A 
ATOM     14  C   UNL     1      -5.807  -1.972  -2.420  0.00  0.00    +0.006 A 
ATOM     15  C   UNL     1      -6.331  -1.768  -3.682  0.00  0.00    +0.020 A 
ATOM     16  C   UNL     1      -7.373  -0.877  -3.863  0.00  0.00    +0.041 A 
ATOM     17  C   UNL     1      -7.891  -0.190  -2.779  0.00  0.00    +0.020 A 
ATOM     18  C   UNL     1      -7.370  -0.399  -1.516  0.00  0.00    +0.006 A 
ATOM     19 CL   UNL     1      -8.032  -0.620  -5.448  0.00  0.00    -0.084 Cl
ENDBRANCH  11  13
BRANCH   9  20
ATOM     20  N   UNL     1      -5.151  -5.144   0.757  0.00  0.00    -0.346 N 
ATOM     21  H   UNL     1      -4.425  -5.787   0.746  0.00  0.00    +0.144 HD
ATOM     22  H   UNL     1      -6.043  -5.424   1.017  0.00  0.00    +0.144 HD
ENDBRANCH   9  20
BRANCH   1  24
ATOM     23  C   UNL     1      -0.022   1.810   0.012  0.00  0.00    +0.093 C 
ATOM     24  S   UNL     1       0.002  -0.004   0.002  0.00  0.00    -0.089 S 
ENDBRANCH   1  24
BRANCH  10  25
ATOM     25  C   UNL     1      -7.241  -3.394   0.821  0.00  0.00    +0.099 C 
ATOM     26  N   UNL     1      -8.273  -3.748   1.138  0.00  0.00    -0.191 NA
ENDBRANCH  10  25
TORSDOF 4
