REMARK  Name = ZINC67103220
REMARK  9 active torsions:
REMARK  status: ('A' for Active; 'I' for Inactive)
REMARK    1  A    between atoms: C_1  and  C_2
REMARK    2  A    between atoms: C_6  and  C_8
REMARK    3  A    between atoms: N_10  and  N_11
REMARK    4  A    between atoms: N_14  and  C_15
REMARK    5  A    between atoms: C_15  and  C_17
REMARK    6  A    between atoms: C_15  and  C_21
REMARK    7  A    between atoms: C_17  and  C_18
REMARK    8  A    between atoms: C_18  and  S_19
REMARK    9  A    between atoms: S_19  and  C_20
REMARK                            x       y       z     vdW  Elec       q    Type
REMARK                         _______ _______ _______ _____ _____    ______ ____
ROOT
ATOM      1  N   UNL     1       0.086  -4.905   3.652  0.00  0.00    -0.218 N 
ATOM      2  C   UNL     1       0.103  -6.252   3.639  0.00  0.00    +0.317 C 
ATOM      3  O   UNL     1       0.117  -6.870   4.686  0.00  0.00    -0.251 OA
ATOM      4  N   UNL     1       0.106  -6.915   2.466  0.00  0.00    -0.288 N 
ATOM      5  H   UNL     1       0.083  -4.428   4.496  0.00  0.00    +0.174 HD
ATOM      6  H   UNL     1       0.096  -6.423   1.630  0.00  0.00    +0.151 HD
ENDROOT
BRANCH   1   9
ATOM      7  C   UNL     1       0.053  -2.845   2.458  0.00  0.00    +0.260 C 
ATOM      8  O   UNL     1       0.050  -2.248   3.516  0.00  0.00    -0.269 OA
ATOM      9  N   UNL     1       0.070  -4.193   2.445  0.00  0.00    -0.229 N 
ATOM     10  H   UNL     1       0.073  -4.670   1.601  0.00  0.00    +0.173 HD
BRANCH   7  16
ATOM     11  C   UNL     1      -0.018   1.503   0.010  0.00  0.00    +0.044 C 
ATOM     12  C   UNL     1       0.002  -0.004   0.002  0.00  0.00    -0.050 A 
ATOM     13  C   UNL     1       0.006  -0.688  -1.201  0.00  0.00    +0.003 A 
ATOM     14  C   UNL     1       0.025  -2.071  -1.218  0.00  0.00    +0.001 A 
ATOM     15  C   UNL     1       0.040  -2.778  -0.033  0.00  0.00    +0.013 A 
ATOM     16  C   UNL     1       0.036  -2.095   1.184  0.00  0.00    +0.038 A 
ATOM     17  C   UNL     1       0.023  -0.699   1.194  0.00  0.00    +0.016 A 
ENDBRANCH   7  16
ENDBRANCH   1   9
BRANCH   4  18
ATOM     18  C   UNL     1       0.126  -8.380   2.452  0.00  0.00    +0.141 C 
BRANCH  18  19
ATOM     19  C   UNL     1       0.727  -8.862   1.157  0.00  0.00    +0.129 A 
ATOM     20  N   UNL     1       1.271  -8.059   0.204  0.00  0.00    -0.340 N 
ATOM     21  H   UNL     1       1.340  -7.092   0.237  0.00  0.00    +0.167 HD
ATOM     22  C   UNL     1       1.708  -8.876  -0.821  0.00  0.00    +0.066 A 
ATOM     23  C   UNL     1       2.333  -8.648  -2.039  0.00  0.00    +0.028 A 
ATOM     24  C   UNL     1       2.645  -9.713  -2.857  0.00  0.00    +0.002 A 
ATOM     25  C   UNL     1       2.337 -11.010  -2.470  0.00  0.00    +0.002 A 
ATOM     26  C   UNL     1       1.722 -11.253  -1.275  0.00  0.00    +0.030 A 
ATOM     27  C   UNL     1       1.397 -10.189  -0.429  0.00  0.00    +0.089 A 
ATOM     28  N   UNL     1       0.805 -10.108   0.790  0.00  0.00    -0.231 NA
ENDBRANCH  18  19
BRANCH  18  29
ATOM     29  C   UNL     1      -1.304  -8.910   2.580  0.00  0.00    +0.041 C 
BRANCH  29  30
ATOM     30  C   UNL     1      -1.870  -8.526   3.948  0.00  0.00    +0.071 C 
BRANCH  30  31
ATOM     31  S   UNL     1      -3.564  -9.154   4.100  0.00  0.00    -0.164 S 
ATOM     32  C   UNL     1      -4.084  -8.621   5.755  0.00  0.00    +0.084 C 
ENDBRANCH  30  31
ENDBRANCH  29  30
ENDBRANCH  18  29
ENDBRANCH   4  18
TORSDOF 7
