REMARK  Name = ZINC00720637
REMARK  13 active torsions:
REMARK  status: ('A' for Active; 'I' for Inactive)
REMARK    1  A    between atoms: C_1  and  C_2
REMARK    2  A    between atoms: C_2  and  O_3
REMARK    3  A    between atoms: O_3  and  C_4
REMARK    4  A    between atoms: C_4  and  C_6
REMARK    5  A    between atoms: C_9  and  N_12
REMARK    6  A    between atoms: N_12  and  C_13
REMARK    7  A    between atoms: C_15  and  C_31
REMARK    8  A    between atoms: N_17  and  C_20
REMARK    9  A    between atoms: C_23  and  C_26
REMARK   10  A    between atoms: C_26  and  O_28
REMARK   11  A    between atoms: O_28  and  C_29
REMARK   12  A    between atoms: C_29  and  C_30
REMARK   13  A    between atoms: C_34  and  O_37
REMARK                            x       y       z     vdW  Elec       q    Type
REMARK                         _______ _______ _______ _____ _____    ______ ____
ROOT
ATOM      1  C   UNL     1      -3.597   3.026  -0.010  0.00  0.00    +0.093 C 
ATOM      2  C   UNL     1      -4.846   3.493  -0.079  0.00  0.00    +0.029 C 
ATOM      3  C   UNL     1      -5.764   2.293  -0.119  0.00  0.00    +0.137 C 
ATOM      4  N   UNL     1      -4.890   1.115  -0.065  0.00  0.00    -0.255 N 
ATOM      5  C   UNL     1      -3.619   1.555  -0.008  0.00  0.00    +0.265 C 
ATOM      6  O   UNL     1      -2.635   0.842   0.043  0.00  0.00    -0.268 OA
ENDROOT
BRANCH   4   7
ATOM      7  C   UNL     1      -5.301  -0.217  -0.078  0.00  0.00    +0.038 A 
ATOM      8  C   UNL     1      -6.657  -0.524  -0.140  0.00  0.00    +0.024 A 
ATOM      9  C   UNL     1      -7.066  -1.838  -0.158  0.00  0.00    +0.017 A 
ATOM     10  C   UNL     1      -6.118  -2.865  -0.101  0.00  0.00    +0.059 A 
ATOM     11  C   UNL     1      -4.757  -2.552  -0.032  0.00  0.00    +0.017 A 
ATOM     12  C   UNL     1      -4.355  -1.236  -0.021  0.00  0.00    +0.024 A 
BRANCH  10  13
ATOM     13  C   UNL     1      -6.553  -4.273  -0.112  0.00  0.00    +0.339 C 
ATOM     14  O   UNL     1      -5.728  -5.164  -0.062  0.00  0.00    -0.245 OA
BRANCH  13  15
ATOM     15  O   UNL     1      -7.865  -4.573  -0.178  0.00  0.00    -0.461 OA
BRANCH  15  16
ATOM     16  C   UNL     1      -8.220  -5.981  -0.185  0.00  0.00    +0.229 C 
ATOM     17  C   UNL     1      -9.741  -6.123  -0.264  0.00  0.00    +0.048 C 
ENDBRANCH  15  16
ENDBRANCH  13  15
ENDBRANCH  10  13
ENDBRANCH   4   7
BRANCH   3  18
ATOM     18  C   UNL     1      -6.561   2.293  -1.398  0.00  0.00    -0.023 A 
ATOM     19  C   UNL     1      -5.974   1.872  -2.577  0.00  0.00    +0.009 A 
ATOM     20  C   UNL     1      -6.705   1.865  -3.749  0.00  0.00    +0.046 A 
ATOM     21  C   UNL     1      -8.025   2.292  -3.745  0.00  0.00    +0.117 A 
ATOM     22  C   UNL     1      -8.610   2.719  -2.562  0.00  0.00    +0.046 A 
ATOM     23  C   UNL     1      -7.877   2.718  -1.391  0.00  0.00    +0.009 A 
BRANCH  21  24
ATOM     24  O   UNL     1      -8.743   2.292  -4.899  0.00  0.00    -0.507 OA
ATOM     25  H   UNL     1      -8.685   3.117  -5.399  0.00  0.00    +0.292 HD
ENDBRANCH  21  24
ENDBRANCH   3  18
BRANCH   1  26
ATOM     26  N   UNL     1      -2.443   3.815   0.046  0.00  0.00    -0.311 N 
ATOM     27  H   UNL     1      -2.254   4.449  -0.663  0.00  0.00    +0.152 HD
BRANCH  26  31
ATOM     28  C   UNL     1       0.179   3.440   3.250  0.00  0.00    +0.059 A 
ATOM     29  C   UNL     1      -1.047   2.766   3.265  0.00  0.00    +0.017 A 
ATOM     30  C   UNL     1      -1.907   2.887   2.204  0.00  0.00    +0.024 A 
ATOM     31  C   UNL     1      -1.566   3.689   1.118  0.00  0.00    +0.031 A 
ATOM     32  C   UNL     1      -0.346   4.361   1.100  0.00  0.00    +0.024 A 
ATOM     33  C   UNL     1       0.520   4.240   2.155  0.00  0.00    +0.017 A 
BRANCH  28  34
ATOM     34  C   UNL     1       1.108   3.307   4.386  0.00  0.00    +0.339 C 
ATOM     35  O   UNL     1       0.809   2.612   5.337  0.00  0.00    -0.245 OA
BRANCH  34  36
ATOM     36  O   UNL     1       2.288   3.957   4.371  0.00  0.00    -0.461 OA
BRANCH  36  38
ATOM     37  C   UNL     1       4.438   4.588   5.326  0.00  0.00    +0.048 C 
ATOM     38  C   UNL     1       3.153   3.780   5.524  0.00  0.00    +0.229 C 
ENDBRANCH  36  38
ENDBRANCH  34  36
ENDBRANCH  28  34
ENDBRANCH  26  31
ENDBRANCH   1  26
TORSDOF 11
