REMARK  Name = ZINC13674648
REMARK  12 active torsions:
REMARK  status: ('A' for Active; 'I' for Inactive)
REMARK    1  A    between atoms: C_1  and  C_2
REMARK    2  A    between atoms: C_2  and  O_3
REMARK    3  A    between atoms: O_3  and  C_4
REMARK    4  A    between atoms: C_4  and  C_6
REMARK    5  A    between atoms: C_10  and  N_13
REMARK    6  A    between atoms: C_11  and  C_12
REMARK    7  A    between atoms: C_14  and  C_16
REMARK    8  A    between atoms: C_16  and  N_17
REMARK    9  A    between atoms: N_17  and  C_18
REMARK   10  A    between atoms: N_17  and  S_34
REMARK   11  A    between atoms: C_21  and  C_24
REMARK   12  A    between atoms: S_34  and  C_37
REMARK                            x       y       z     vdW  Elec       q    Type
REMARK                         _______ _______ _______ _____ _____    ______ ____
ROOT
ATOM      1  N   UNL     1       5.122  -4.037   0.383  0.00  0.00    -0.199 N 
ENDROOT
BRANCH   1   2
ATOM      2  C   UNL     1       4.866  -4.634   1.619  0.00  0.00    +0.051 A 
ATOM      3  C   UNL     1       5.221  -5.959   1.839  0.00  0.00    +0.025 A 
ATOM      4  C   UNL     1       4.971  -6.545   3.065  0.00  0.00    +0.006 A 
ATOM      5  C   UNL     1       4.358  -5.817   4.069  0.00  0.00    -0.041 A 
ATOM      6  C   UNL     1       3.998  -4.500   3.851  0.00  0.00    +0.006 A 
ATOM      7  C   UNL     1       4.250  -3.906   2.630  0.00  0.00    +0.025 A 
BRANCH   5   8
ATOM      8  C   UNL     1       4.081  -6.462   5.402  0.00  0.00    -0.003 C 
ATOM      9  C   UNL     1       2.576  -6.439   5.678  0.00  0.00    +0.015 C 
ATOM     10  C   UNL     1       2.295  -7.093   7.032  0.00  0.00    -0.010 C 
ATOM     11  C   UNL     1       2.787  -8.542   7.010  0.00  0.00    +0.007 C 
ATOM     12  C   UNL     1       4.292  -8.565   6.735  0.00  0.00    -0.010 C 
ATOM     13  C   UNL     1       4.573  -7.911   5.381  0.00  0.00    +0.015 C 
ATOM     14  C   UNL     1       5.024  -7.795   7.835  0.00  0.00    +0.007 C 
ATOM     15  C   UNL     1       4.532  -6.346   7.857  0.00  0.00    -0.010 C 
ATOM     16  C   UNL     1       3.027  -6.322   8.132  0.00  0.00    +0.007 C 
ATOM     17  C   UNL     1       4.813  -5.691   6.503  0.00  0.00    +0.015 C 
ENDBRANCH   5   8
ENDBRANCH   1   2
BRANCH   1  18
ATOM     18  S   UNL     1       5.258  -4.973  -0.976  0.00  0.00    +0.043 S 
ATOM     19  O   UNL     1       4.418  -6.092  -0.731  0.00  0.00    -0.155 OA
ATOM     20  O   UNL     1       4.990  -4.088  -2.055  0.00  0.00    -0.155 OA
ATOM     21  C   UNL     1       6.996  -5.492  -1.012  0.00  0.00    +0.218 C 
ENDBRANCH   1  18
BRANCH   1  22
ATOM     22  C   UNL     1       5.269  -2.582   0.289  0.00  0.00    +0.227 C 
BRANCH  22  24
ATOM     23  N   UNL     1       3.798  -0.608   0.048  0.00  0.00    -0.284 N 
ATOM     24  C   UNL     1       3.909  -1.948   0.151  0.00  0.00    +0.236 C 
ATOM     25  O   UNL     1       2.915  -2.642   0.134  0.00  0.00    -0.274 OA
ATOM     26  H   UNL     1       4.595  -0.059  -0.020  0.00  0.00    +0.155 HD
BRANCH  23  31
ATOM     27  C   UNL     1       1.095   1.822  -0.566  0.00  0.00    +0.064 A 
ATOM     28  C   UNL     1       0.016   1.162   0.027  0.00  0.00    +0.015 A 
ATOM     29  C   UNL     1       0.201  -0.072   0.616  0.00  0.00    +0.003 A 
ATOM     30  C   UNL     1       1.453  -0.658   0.623  0.00  0.00    +0.023 A 
ATOM     31  C   UNL     1       2.533  -0.010   0.037  0.00  0.00    +0.037 A 
ATOM     32  C   UNL     1       2.358   1.230  -0.558  0.00  0.00    -0.015 A 
ATOM     33  C   UNL     1       3.528   1.936  -1.193  0.00  0.00    +0.046 C 
BRANCH  27  34
ATOM     34  C   UNL     1       0.899   3.143  -1.198  0.00  0.00    +0.339 C 
ATOM     35  O   UNL     1       1.853   3.751  -1.641  0.00  0.00    -0.245 OA
BRANCH  34  36
ATOM     36  O   UNL     1      -0.337   3.673  -1.283  0.00  0.00    -0.461 OA
BRANCH  36  38
ATOM     37  C   UNL     1      -1.921   5.409  -1.921  0.00  0.00    +0.048 C 
ATOM     38  C   UNL     1      -0.454   4.974  -1.917  0.00  0.00    +0.229 C 
ENDBRANCH  36  38
ENDBRANCH  34  36
ENDBRANCH  27  34
ENDBRANCH  23  31
ENDBRANCH  22  24
ENDBRANCH   1  22
TORSDOF 9
