REMARK  Name = ZINC13644368
REMARK  7 active torsions:
REMARK  status: ('A' for Active; 'I' for Inactive)
REMARK    1  A    between atoms: C_1  and  N_2
REMARK    2  A    between atoms: N_2  and  C_3
REMARK    3  A    between atoms: N_2  and  C_4
REMARK    4  A    between atoms: C_7  and  C_10
REMARK    5  A    between atoms: C_23  and  C_26
REMARK    6  A    between atoms: N_28  and  C_29
REMARK    7  A    between atoms: N_28  and  C_30
REMARK                            x       y       z     vdW  Elec       q    Type
REMARK                         _______ _______ _______ _____ _____    ______ ____
ROOT
ATOM      1  C   UNL     1       2.392   0.440   0.321  0.00  0.00    +0.105 C 
ATOM      2  C   UNL     1       1.383  -0.156  -0.639  0.00  0.00    +0.029 C 
ATOM      3  C   UNL     1       1.306  -1.683  -0.749  0.00  0.00    +0.033 C 
ATOM      4  C   UNL     1      -0.165  -1.886  -1.124  0.00  0.00    -0.030 C 
ATOM      5  C   UNL     1      -0.891  -0.868  -0.675  0.00  0.00    -0.023 C 
ATOM      6  C   UNL     1       0.003   0.064   0.054  0.00  0.00    +0.049 C 
ATOM      7  C   UNL     1      -0.225   1.525   0.091  0.00  0.00    -0.019 A 
ATOM      8  C   UNL     1      -1.489   2.064  -0.011  0.00  0.00    +0.006 A 
ATOM      9  C   UNL     1      -1.684   3.434   0.043  0.00  0.00    +0.001 A 
ATOM     10  C   UNL     1      -0.603   4.275   0.194  0.00  0.00    +0.015 A 
ATOM     11  C   UNL     1       0.683   3.748   0.290  0.00  0.00    +0.058 A 
ATOM     12  C   UNL     1       0.891   2.354   0.229  0.00  0.00    +0.044 A 
ATOM     13  N   UNL     1       2.197   1.898   0.303  0.00  0.00    -0.336 N 
ATOM     14  H   UNL     1       2.692   2.339   1.064  0.00  0.00    +0.147 HD
ENDROOT
BRANCH   1  18
ATOM     15  C   UNL     1       1.717  -1.071   4.262  0.00  0.00    +0.029 A 
ATOM     16  C   UNL     1       2.514  -1.779   3.372  0.00  0.00    +0.023 A 
ATOM     17  C   UNL     1       2.730  -1.289   2.099  0.00  0.00    +0.007 A 
ATOM     18  C   UNL     1       2.154  -0.093   1.711  0.00  0.00    -0.027 A 
ATOM     19  C   UNL     1       1.365   0.618   2.596  0.00  0.00    +0.007 A 
ATOM     20  C   UNL     1       1.140   0.130   3.869  0.00  0.00    +0.023 A 
BRANCH  15  22
ATOM     21  C   UNL     1       2.106  -2.831   5.963  0.00  0.00    +0.129 C 
ATOM     22  N   UNL     1       1.496  -1.564   5.550  0.00  0.00    -0.336 N 
ATOM     23  C   UNL     1       0.656  -0.816   6.487  0.00  0.00    +0.129 C 
ENDBRANCH  15  22
ENDBRANCH   1  18
BRANCH  11  24
ATOM     24  C   UNL     1       1.835   4.654   0.457  0.00  0.00    +0.248 C 
ATOM     25  O   UNL     1       2.623   4.474   1.365  0.00  0.00    -0.270 OA
ATOM     26  N   UNL     1       2.013   5.681  -0.397  0.00  0.00    -0.297 N 
ATOM     27  C   UNL     1       1.009   5.961  -1.427  0.00  0.00    +0.132 C 
BRANCH  26  28
ATOM     28  C   UNL     1       3.211   6.519  -0.296  0.00  0.00    +0.076 C 
ATOM     29  C   UNL     1       2.799   7.967  -0.027  0.00  0.00    +0.022 C 
ATOM     30  C   UNL     1       4.050   8.842   0.079  0.00  0.00    +0.002 C 
ATOM     31  C   UNL     1       4.836   8.770  -1.232  0.00  0.00    +0.000 C 
ATOM     32  C   UNL     1       5.247   7.321  -1.500  0.00  0.00    +0.002 C 
ATOM     33  C   UNL     1       3.997   6.446  -1.607  0.00  0.00    +0.022 C 
ENDBRANCH  26  28
ENDBRANCH  11  24
TORSDOF 4
