REMARK  Name = ZINC39636228
REMARK  7 active torsions:
REMARK  status: ('A' for Active; 'I' for Inactive)
REMARK    1  A    between atoms: C_1  and  O_2
REMARK    2  A    between atoms: O_2  and  C_3
REMARK    3  A    between atoms: C_8  and  C_9
REMARK    4  A    between atoms: C_9  and  C_10
REMARK    5  A    between atoms: C_10  and  N_11
REMARK    6  A    between atoms: C_12  and  C_14
REMARK    7  A    between atoms: C_25  and  C_27
REMARK                            x       y       z     vdW  Elec       q    Type
REMARK                         _______ _______ _______ _____ _____    ______ ____
ROOT
ATOM      1  C   UNL     1       3.676  -4.871   2.543  0.00  0.00    +0.100 C 
ATOM      2  C   UNL     1       4.741  -4.177   1.664  0.00  0.00    +0.121 C 
ATOM      3  N   UNL     1       5.550  -3.380   2.616  0.00  0.00    -0.296 N 
ATOM      4  C   UNL     1       5.677  -4.250   3.810  0.00  0.00    +0.115 C 
ATOM      5  C   UNL     1       4.296  -4.921   3.949  0.00  0.00    -0.004 C 
ATOM      6  C   UNL     1       4.455  -6.368   4.406  0.00  0.00    -0.010 C 
ATOM      7  C   UNL     1       5.019  -6.390   5.830  0.00  0.00    -0.082 C 
ATOM      8  N   UNL     1       4.110  -5.669   6.729  0.00  0.00    +0.379 N 
ATOM      9  C   UNL     1       4.035  -4.256   6.338  0.00  0.00    -0.082 C 
ATOM     10  C   UNL     1       3.430  -4.144   4.936  0.00  0.00    -0.010 C 
ATOM     11  C   UNL     1       6.057  -2.144   2.437  0.00  0.00    +0.249 C 
ATOM     12  O   UNL     1       6.706  -1.620   3.320  0.00  0.00    -0.270 OA
ATOM     13  H   UNL     1       3.190  -6.080   6.676  0.00  0.00    -0.086 HD
ATOM     14  H   UNL     1       4.452  -5.737   7.676  0.00  0.00    -0.086 HD
ENDROOT
BRANCH  11  15
ATOM     15  C   UNL     1       5.823  -1.427   1.167  0.00  0.00    +0.073 A 
ATOM     16  C   UNL     1       4.705  -0.602   1.023  0.00  0.00    +0.054 A 
ATOM     17  C   UNL     1       4.493   0.066  -0.167  0.00  0.00    +0.021 A 
ATOM     18  C   UNL     1       5.384  -0.081  -1.215  0.00  0.00    +0.003 A 
ATOM     19  C   UNL     1       6.493  -0.897  -1.080  0.00  0.00    +0.021 A 
ATOM     20  C   UNL     1       6.721  -1.567   0.106  0.00  0.00    +0.054 A 
ATOM     21 CL   UNL     1       8.118  -2.584   0.276  0.00  0.00    -0.083 Cl
ATOM     22 CL   UNL     1       3.585  -0.416   2.336  0.00  0.00    -0.083 Cl
ENDBRANCH  11  15
BRANCH   1  24
ATOM     23  N   UNL     1       1.225  -4.672   2.810  0.00  0.00    -0.315 N 
ATOM     24  C   UNL     1       2.402  -4.066   2.559  0.00  0.00    +0.218 C 
ATOM     25  O   UNL     1       2.437  -2.873   2.345  0.00  0.00    -0.275 OA
ATOM     26  H   UNL     1       1.198  -5.627   2.980  0.00  0.00    +0.149 HD
BRANCH  23  27
ATOM     27  C   UNL     1      -0.013  -3.889   2.825  0.00  0.00    +0.109 C 
BRANCH  27  28
ATOM     28  C   UNL     1      -1.195  -4.811   3.132  0.00  0.00    +0.057 C 
BRANCH  28  34
ATOM     29  C   UNL     1      -3.145  -3.752   1.964  0.00  0.00    +0.123 A 
ATOM     30  C   UNL     1      -4.321  -3.015   1.982  0.00  0.00    +0.046 A 
ATOM     31  C   UNL     1      -4.811  -2.530   3.179  0.00  0.00    +0.004 A 
ATOM     32  C   UNL     1      -4.133  -2.779   4.358  0.00  0.00    +0.000 A 
ATOM     33  C   UNL     1      -2.961  -3.513   4.342  0.00  0.00    +0.007 A 
ATOM     34  C   UNL     1      -2.469  -4.005   3.148  0.00  0.00    -0.004 A 
BRANCH  29  36
ATOM     35  C   UNL     1      -3.409  -3.932  -0.392  0.00  0.00    +0.277 C 
ATOM     36  O   UNL     1      -2.661  -4.231   0.788  0.00  0.00    -0.495 OA
ENDBRANCH  29  36
ENDBRANCH  28  34
ENDBRANCH  27  28
ENDBRANCH  23  27
ENDBRANCH   1  24
TORSDOF 6
