REMARK  Name = ZINC62039268
REMARK  12 active torsions:
REMARK  status: ('A' for Active; 'I' for Inactive)
REMARK    1  A    between atoms: C_1  and  C_2
REMARK    2  A    between atoms: C_2  and  O_3
REMARK    3  A    between atoms: O_3  and  C_4
REMARK    4  A    between atoms: C_4  and  C_6
REMARK    5  A    between atoms: C_7  and  C_25
REMARK    6  A    between atoms: C_10  and  N_11
REMARK    7  A    between atoms: C_12  and  C_14
REMARK    8  A    between atoms: C_14  and  C_15
REMARK    9  A    between atoms: N_17  and  C_24
REMARK   10  A    between atoms: C_28  and  C_31
REMARK   11  A    between atoms: C_31  and  C_32
REMARK   12  A    between atoms: C_31  and  C_33
REMARK                            x       y       z     vdW  Elec       q    Type
REMARK                         _______ _______ _______ _____ _____    ______ ____
ROOT
ATOM      1  C   UNL     1       1.496  -2.370   2.466  0.00  0.00    +0.095 A 
ATOM      2  C   UNL     1       0.794  -2.684   3.698  0.00  0.00    +0.005 A 
ATOM      3  C   UNL     1       1.563  -3.194   4.694  0.00  0.00    +0.056 A 
ATOM      4  S   UNL     1       3.188  -3.244   3.971  0.00  0.00    -0.080 S 
ATOM      5  C   UNL     1       2.857  -2.631   2.445  0.00  0.00    +0.086 A 
ENDROOT
BRANCH   2   6
ATOM      6  C   UNL     1      -0.663  -2.461   3.858  0.00  0.00    -0.017 A 
ATOM      7  C   UNL     1      -1.225  -1.233   3.514  0.00  0.00    +0.009 A 
ATOM      8  C   UNL     1      -2.582  -1.032   3.664  0.00  0.00    +0.004 A 
ATOM      9  C   UNL     1      -3.384  -2.046   4.156  0.00  0.00    -0.045 A 
ATOM     10  C   UNL     1      -2.832  -3.267   4.499  0.00  0.00    +0.004 A 
ATOM     11  C   UNL     1      -1.477  -3.482   4.347  0.00  0.00    +0.009 A 
BRANCH   9  12
ATOM     12  C   UNL     1      -4.865  -1.820   4.319  0.00  0.00    +0.013 C 
ATOM     13  C   UNL     1      -5.633  -2.828   3.461  0.00  0.00    +0.012 C 
ATOM     14  C   UNL     1      -5.250  -2.002   5.788  0.00  0.00    +0.012 C 
ENDBRANCH   9  12
ENDBRANCH   2   6
BRANCH   5  15
ATOM     15  N   UNL     1       3.744  -2.428   1.400  0.00  0.00    -0.279 N 
ATOM     16  C   UNL     1       5.047  -2.740   1.552  0.00  0.00    +0.222 C 
ATOM     17  O   UNL     1       5.442  -3.197   2.604  0.00  0.00    -0.275 OA
ATOM     18  H   UNL     1       3.428  -2.062   0.559  0.00  0.00    +0.155 HD
BRANCH  16  19
ATOM     19  C   UNL     1       6.012  -2.519   0.416  0.00  0.00    +0.133 C 
BRANCH  19  20
ATOM     20  C   UNL     1       7.394  -2.945   0.841  0.00  0.00    -0.013 A 
ATOM     21  C   UNL     1       8.353  -2.153   1.346  0.00  0.00    +0.090 A 
ATOM     22  N   UNL     1       9.473  -2.891   1.615  0.00  0.00    -0.349 N 
ATOM     23  C   UNL     1       9.257  -4.210   1.281  0.00  0.00    +0.049 A 
ATOM     24  C   UNL     1       7.943  -4.302   0.787  0.00  0.00    +0.003 A 
ATOM     25  C   UNL     1       7.440  -5.536   0.372  0.00  0.00    +0.010 A 
ATOM     26  C   UNL     1       8.227  -6.651   0.451  0.00  0.00    +0.001 A 
ATOM     27  C   UNL     1       9.523  -6.565   0.940  0.00  0.00    +0.002 A 
ATOM     28  C   UNL     1      10.042  -5.356   1.347  0.00  0.00    +0.026 A 
ATOM     29  C   UNL     1      10.718  -2.358   2.175  0.00  0.00    +0.149 C 
ENDBRANCH  19  20
ENDBRANCH  16  19
ENDBRANCH   5  15
BRANCH   1  30
ATOM     30  C   UNL     1       0.801  -1.814   1.305  0.00  0.00    +0.342 C 
ATOM     31  O   UNL     1       0.321  -2.557   0.470  0.00  0.00    -0.245 OA
BRANCH  30  32
ATOM     32  O   UNL     1       0.693  -0.477   1.160  0.00  0.00    -0.461 OA
BRANCH  32  34
ATOM     33  C   UNL     1      -0.019   1.526   0.010  0.00  0.00    +0.048 C 
ATOM     34  C   UNL     1       0.002  -0.004   0.002  0.00  0.00    +0.229 C 
ENDBRANCH  32  34
ENDBRANCH  30  32
ENDBRANCH   1  30
TORSDOF 8
