REMARK  Name = ZINC44728488
REMARK  6 active torsions:
REMARK  status: ('A' for Active; 'I' for Inactive)
REMARK    1  A    between atoms: C_1  and  C_2
REMARK    2  A    between atoms: C_11  and  C_12
REMARK    3  A    between atoms: C_12  and  C_13
REMARK    4  A    between atoms: C_13  and  N_14
REMARK    5  A    between atoms: C_15  and  C_17
REMARK    6  A    between atoms: C_28  and  C_30
REMARK                            x       y       z     vdW  Elec       q    Type
REMARK                         _______ _______ _______ _____ _____    ______ ____
ROOT
ATOM      1  C   UNL     1       2.682  -8.419   3.948  0.00  0.00    +0.100 C 
ATOM      2  C   UNL     1       2.247  -8.264   5.422  0.00  0.00    +0.121 C 
ATOM      3  N   UNL     1       3.149  -9.167   6.176  0.00  0.00    -0.296 N 
ATOM      4  C   UNL     1       4.468  -9.003   5.518  0.00  0.00    +0.115 C 
ATOM      5  C   UNL     1       4.140  -8.903   4.015  0.00  0.00    -0.004 C 
ATOM      6  C   UNL     1       4.273 -10.272   3.354  0.00  0.00    -0.010 C 
ATOM      7  C   UNL     1       5.741 -10.707   3.383  0.00  0.00    -0.082 C 
ATOM      8  N   UNL     1       6.561  -9.716   2.674  0.00  0.00    +0.379 N 
ATOM      9  C   UNL     1       6.500  -8.425   3.369  0.00  0.00    -0.082 C 
ATOM     10  C   UNL     1       5.064  -7.894   3.340  0.00  0.00    -0.010 C 
ATOM     11  C   UNL     1       2.840  -9.958   7.222  0.00  0.00    +0.248 C 
ATOM     12  O   UNL     1       3.717 -10.575   7.797  0.00  0.00    -0.270 OA
ATOM     13  H   UNL     1       7.518 -10.035   2.641  0.00  0.00    -0.086 HD
ATOM     14  H   UNL     1       6.213  -9.607   1.733  0.00  0.00    -0.086 HD
ENDROOT
BRANCH  11  15
ATOM     15  C   UNL     1       1.446 -10.075   7.668  0.00  0.00    +0.052 A 
ATOM     16  C   UNL     1       0.597  -9.017   7.596  0.00  0.00    +0.059 A 
ATOM     17  S   UNL     1      -0.865  -9.578   8.197  0.00  0.00    -0.096 S 
ATOM     18  C   UNL     1      -0.427 -11.252   8.577  0.00  0.00    +0.020 A 
ATOM     19  C   UNL     1       0.927 -11.338   8.198  0.00  0.00    +0.001 A 
ATOM     20  C   UNL     1       1.570 -12.577   8.379  0.00  0.00    +0.010 A 
ATOM     21  C   UNL     1       0.885 -13.646   8.899  0.00  0.00    +0.001 A 
ATOM     22  C   UNL     1      -0.450 -13.537   9.260  0.00  0.00    +0.001 A 
ATOM     23  C   UNL     1      -1.104 -12.330   9.105  0.00  0.00    +0.015 A 
ENDBRANCH  11  15
BRANCH   1  25
ATOM     24  N   UNL     1       2.362  -7.055   1.909  0.00  0.00    -0.315 N 
ATOM     25  C   UNL     1       2.602  -7.093   3.235  0.00  0.00    +0.218 C 
ATOM     26  O   UNL     1       2.753  -6.062   3.854  0.00  0.00    -0.275 OA
ATOM     27  H   UNL     1       2.240  -7.880   1.414  0.00  0.00    +0.149 HD
BRANCH  24  28
ATOM     28  C   UNL     1       2.283  -5.766   1.217  0.00  0.00    +0.109 C 
BRANCH  28  29
ATOM     29  C   UNL     1       2.004  -6.002  -0.269  0.00  0.00    +0.056 C 
BRANCH  29  40
ATOM     30  C   UNL     1       2.745  -0.564  -3.302  0.00  0.00    +0.046 C 
ATOM     31  C   UNL     1       3.325  -1.809  -2.683  0.00  0.00    -0.027 A 
ATOM     32  C   UNL     1       4.686  -2.022  -2.705  0.00  0.00    +0.005 A 
ATOM     33  C   UNL     1       5.234  -3.164  -2.139  0.00  0.00    +0.001 A 
ATOM     34  C   UNL     1       4.430  -4.100  -1.549  0.00  0.00    +0.010 A 
ATOM     35  C   UNL     1       3.049  -3.905  -1.515  0.00  0.00    +0.003 A 
ATOM     36  C   UNL     1       2.489  -2.745  -2.084  0.00  0.00    +0.050 A 
ATOM     37  N   UNL     1       1.127  -2.819  -1.900  0.00  0.00    -0.360 N 
ATOM     38  H   UNL     1       0.487  -2.153  -2.196  0.00  0.00    +0.165 HD
ATOM     39  C   UNL     1       0.809  -3.973  -1.236  0.00  0.00    +0.087 A 
ATOM     40  C   UNL     1       1.924  -4.676  -0.982  0.00  0.00    -0.021 A 
ENDBRANCH  29  40
ENDBRANCH  28  29
ENDBRANCH  24  28
ENDBRANCH   1  25
TORSDOF 5
