REMARK  Name = ZINC16789137
REMARK  9 active torsions:
REMARK  status: ('A' for Active; 'I' for Inactive)
REMARK    1  A    between atoms: C_1  and  C_2
REMARK    2  A    between atoms: C_5  and  N_9
REMARK    3  A    between atoms: C_10  and  C_12
REMARK    4  A    between atoms: C_12  and  C_14
REMARK    5  A    between atoms: C_12  and  S_15
REMARK    6  A    between atoms: S_15  and  C_16
REMARK    7  A    between atoms: C_19  and  C_22
REMARK    8  A    between atoms: N_20  and  N_21
REMARK    9  A    between atoms: C_26  and  C_27
REMARK                            x       y       z     vdW  Elec       q    Type
REMARK                         _______ _______ _______ _____ _____    ______ ____
ROOT
ATOM      1  S   UNL     1       3.474  -2.615   0.865  0.00  0.00    -0.072 S 
ENDROOT
BRANCH   1   2
ATOM      2  C   UNL     1       5.143  -3.164   1.006  0.00  0.00    +0.209 A 
ATOM      3  N   UNL     1       6.217  -2.485   0.674  0.00  0.00    -0.121 NA
ATOM      4  N   UNL     1       7.270  -3.184   0.906  0.00  0.00    -0.127 NA
ATOM      5  C   UNL     1       6.933  -4.352   1.401  0.00  0.00    +0.185 A 
ATOM      6  N   UNL     1       5.561  -4.374   1.486  0.00  0.00    -0.224 N 
BRANCH   5   7
ATOM      7  C   UNL     1       7.856  -5.437   1.799  0.00  0.00    +0.061 A 
ATOM      8  C   UNL     1       7.496  -6.748   2.353  0.00  0.00    +0.053 A 
ATOM      9  C   UNL     1       8.655  -7.395   2.559  0.00  0.00    +0.196 A 
ATOM     10  O   UNL     1       9.671  -6.603   2.183  0.00  0.00    -0.467 OA
ATOM     11  C   UNL     1       9.214  -5.430   1.721  0.00  0.00    +0.112 A 
ATOM     12  C   UNL     1      10.062  -4.295   1.206  0.00  0.00    +0.087 C 
ENDBRANCH   5   7
BRANCH   6  13
ATOM     13  N   UNL     1       4.779  -5.393   1.950  0.00  0.00    -0.295 N 
ATOM     14  H   UNL     1       4.526  -6.024   1.204  0.00  0.00    +0.163 HD
ATOM     15  H   UNL     1       5.236  -5.887   2.702  0.00  0.00    +0.163 HD
ENDBRANCH   6  13
ENDBRANCH   1   2
BRANCH   1  16
ATOM     16  C   UNL     1       3.744  -0.964   0.175  0.00  0.00    +0.137 C 
ATOM     17  C   UNL     1       4.361  -1.088  -1.220  0.00  0.00    +0.029 C 
BRANCH  16  19
ATOM     18  N   UNL     1       2.403   1.106  -0.015  0.00  0.00    -0.284 N 
ATOM     19  C   UNL     1       2.427  -0.238   0.078  0.00  0.00    +0.230 C 
ATOM     20  O   UNL     1       1.388  -0.864   0.085  0.00  0.00    -0.274 OA
ATOM     21  H   UNL     1       3.233   1.602  -0.086  0.00  0.00    +0.155 HD
BRANCH  18  26
ATOM     22  C   UNL     1      -2.556   3.864   0.003  0.00  0.00    +0.044 C 
ATOM     23  C   UNL     1      -1.239   3.132  -0.001  0.00  0.00    -0.049 A 
ATOM     24  C   UNL     1      -1.141   1.892  -0.607  0.00  0.00    +0.005 A 
ATOM     25  C   UNL     1       0.064   1.216  -0.608  0.00  0.00    +0.024 A 
ATOM     26  C   UNL     1       1.179   1.786  -0.010  0.00  0.00    +0.047 A 
ATOM     27  C   UNL     1       1.079   3.034   0.593  0.00  0.00    +0.039 A 
ATOM     28  C   UNL     1      -0.130   3.703   0.595  0.00  0.00    +0.020 A 
ATOM     29 BR   UNL     1       2.595   3.816   1.409  0.00  0.00    -0.048 Br
ENDBRANCH  18  26
ENDBRANCH  16  19
ENDBRANCH   1  16
TORSDOF 6
