REMARK  Name = ZINC51036139
REMARK  7 active torsions:
REMARK  status: ('A' for Active; 'I' for Inactive)
REMARK    1  A    between atoms: C_1  and  C_2
REMARK    2  A    between atoms: C_2  and  C_3
REMARK    3  A    between atoms: C_3  and  C_5
REMARK    4  A    between atoms: C_3  and  N_24
REMARK    5  A    between atoms: C_5  and  C_7
REMARK    6  A    between atoms: C_5  and  S_13
REMARK    7  A    between atoms: S_13  and  C_14
REMARK                            x       y       z     vdW  Elec       q    Type
REMARK                         _______ _______ _______ _____ _____    ______ ____
ROOT
ATOM      1  C   UNL     1       0.760  -2.076  -1.577  0.00  0.00    +0.075 C 
ENDROOT
BRANCH   1   2
ATOM      2  C   UNL     1       1.376  -2.666  -2.819  0.00  0.00    +0.003 A 
ATOM      3  C   UNL     1       2.463  -3.468  -2.934  0.00  0.00    +0.027 A 
ATOM      4  C   UNL     1       2.851  -3.894  -4.191  0.00  0.00    +0.025 A 
ATOM      5  C   UNL     1       2.134  -3.495  -5.271  0.00  0.00    +0.060 A 
ATOM      6  S   UNL     1       0.861  -2.494  -4.520  0.00  0.00    -0.099 S 
ATOM      7 BR   UNL     1       4.361  -5.014  -4.401  0.00  0.00    -0.050 Br
ENDBRANCH   1   2
BRANCH   1   8
ATOM      8  C   UNL     1       0.771  -0.549  -1.677  0.00  0.00    -0.057 C 
BRANCH   8   9
ATOM      9  N   UNL     1       2.153  -0.079  -1.840  0.00  0.00    +0.381 N 
ATOM     10  H   UNL     1       2.702  -0.368  -1.044  0.00  0.00    -0.090 HD
ATOM     11  H   UNL     1       2.546  -0.474  -2.681  0.00  0.00    -0.090 HD
ATOM     12  H   UNL     1       2.160   0.928  -1.906  0.00  0.00    -0.090 HD
ENDBRANCH   8   9
BRANCH   8  14
ATOM     13  C   UNL     1       0.071   1.569  -0.552  0.00  0.00    +0.002 C 
ATOM     14  C   UNL     1       0.175   0.050  -0.402  0.00  0.00    -0.018 C 
ENDBRANCH   8  14
ENDBRANCH   1   8
BRANCH   1  15
ATOM     15  S   UNL     1      -0.951  -2.659  -1.415  0.00  0.00    -0.097 S 
BRANCH  15  16
ATOM     16  C   UNL     1      -0.786  -4.389  -1.128  0.00  0.00    +0.126 A 
ATOM     17  C   UNL     1      -1.912  -5.213  -1.058  0.00  0.00    +0.117 A 
ATOM     18  C   UNL     1      -1.729  -6.585  -0.828  0.00  0.00    +0.182 A 
ATOM     19  N   UNL     1      -2.954  -7.144  -0.806  0.00  0.00    -0.216 NA
ATOM     20  H   UNL     1      -3.725  -4.178  -1.327  0.00  0.00    +0.167 HD
ATOM     21  C   UNL     1      -3.860  -6.228  -1.005  0.00  0.00    +0.199 A 
ATOM     22  N   UNL     1      -3.273  -5.021  -1.166  0.00  0.00    -0.341 N 
ATOM     23  N   UNL     1      -0.484  -7.051  -0.683  0.00  0.00    -0.214 NA
ATOM     24  C   UNL     1       0.547  -6.238  -0.756  0.00  0.00    +0.224 A 
ATOM     25  N   UNL     1       0.416  -4.943  -0.977  0.00  0.00    -0.227 NA
ENDBRANCH  15  16
ENDBRANCH   1  15
TORSDOF 6
