REMARK  Name = ZINC36148864
REMARK  3 active torsions:
REMARK  status: ('A' for Active; 'I' for Inactive)
REMARK    1  A    between atoms: N_14  and  C_16
REMARK    2  A    between atoms: C_16  and  C_17
REMARK    3  A    between atoms: C_17  and  C_18
REMARK                            x       y       z     vdW  Elec       q    Type
REMARK                         _______ _______ _______ _____ _____    ______ ____
ROOT
ATOM      1  C   UNL     1      -0.017   1.379   0.010  0.00  0.00    +0.023 A 
ATOM      2  C   UNL     1       1.170   2.084   0.002  0.00  0.00    +0.047 A 
ATOM      3  C   UNL     1       2.386   1.408  -0.012  0.00  0.00    +0.124 A 
ATOM      4  C   UNL     1       2.402   0.024  -0.014  0.00  0.00    -0.004 A 
ATOM      5  C   UNL     1       1.209  -0.678  -0.010  0.00  0.00    +0.027 A 
ATOM      6  C   UNL     1       0.002  -0.004   0.002  0.00  0.00    +0.041 A 
ATOM      7 CL   UNL     1      -1.489  -0.893   0.008  0.00  0.00    -0.084 Cl
ATOM      8  C   UNL     1       3.696  -0.750  -0.014  0.00  0.00    +0.042 C 
ATOM      9  C   UNL     1       4.841   0.158  -0.473  0.00  0.00    +0.051 C 
ATOM     10  C   UNL     1       4.750   1.477   0.292  0.00  0.00    +0.095 C 
ATOM     11  O   UNL     1       3.533   2.138  -0.028  0.00  0.00    -0.487 OA
ATOM     12  C   UNL     1       5.953   2.373  -0.061  0.00  0.00    +0.027 C 
ATOM     13  C   UNL     1       6.315   3.015   1.303  0.00  0.00    -0.075 C 
ATOM     14  N   UNL     1       6.072   1.916   2.273  0.00  0.00    +0.383 N 
ATOM     15  C   UNL     1       4.850   1.225   1.803  0.00  0.00    -0.030 C 
ATOM     16  H   UNL     1       6.853   1.278   2.278  0.00  0.00    -0.082 HD
ENDROOT
BRANCH  14  17
ATOM     17  C   UNL     1       5.856   2.466   3.618  0.00  0.00    -0.067 C 
BRANCH  17  18
ATOM     18  C   UNL     1       7.149   3.115   4.117  0.00  0.00    +0.106 C 
BRANCH  18  19
ATOM     19  C   UNL     1       6.927   3.680   5.497  0.00  0.00    +0.354 C 
ATOM     20  O   UNL     1       5.837   3.572   6.032  0.00  0.00    -0.246 OA
ATOM     21  O   UNL     1       7.839   4.243   6.079  0.00  0.00    -0.246 OA
ENDBRANCH  18  19
ENDBRANCH  17  18
ENDBRANCH  14  17
TORSDOF 3
