REMARK  Name = ZINC02286801
REMARK  9 active torsions:
REMARK  status: ('A' for Active; 'I' for Inactive)
REMARK    1  A    between atoms: C_1  and  C_2
REMARK    2  A    between atoms: C_2  and  O_3
REMARK    3  A    between atoms: O_3  and  C_4
REMARK    4  A    between atoms: C_4  and  C_6
REMARK    5  A    between atoms: C_6  and  N_56
REMARK    6  A    between atoms: C_7  and  C_27
REMARK    7  A    between atoms: C_16  and  C_18
REMARK    8  A    between atoms: C_21  and  O_24
REMARK    9  A    between atoms: O_24  and  C_25
REMARK                            x       y       z     vdW  Elec       q    Type
REMARK                         _______ _______ _______ _____ _____    ______ ____
ROOT
ATOM      1  C   UNL     1       0.131   1.402   2.410  0.00  0.00    -0.001 C 
ATOM      2  C   UNL     1      -0.634   1.787   3.649  0.00  0.00    -0.035 A 
ATOM      3  C   UNL     1       0.057   2.154   4.790  0.00  0.00    +0.019 A 
ATOM      4  C   UNL     1      -0.633   2.504   5.937  0.00  0.00    +0.018 A 
ATOM      5  C   UNL     1      -2.017   2.492   5.949  0.00  0.00    +0.017 A 
ATOM      6  C   UNL     1      -2.713   2.128   4.812  0.00  0.00    +0.024 A 
ATOM      7  C   UNL     1      -2.021   1.776   3.661  0.00  0.00    +0.028 A 
ATOM      8  N   UNL     1      -2.727   1.410   2.507  0.00  0.00    -0.353 N 
ATOM      9  C   UNL     1      -1.981   0.773   1.411  0.00  0.00    +0.049 C 
ATOM     10 BR   UNL     1       0.318   3.004   7.493  0.00  0.00    -0.050 Br
ATOM     11  H   UNL     1      -3.680   1.572   2.433  0.00  0.00    +0.145 HD
ATOM     12  N   UNL     1      -0.732   1.544   1.220  0.00  0.00    +0.409 N 
ATOM     13  H   UNL     1      -0.967   2.535   1.094  0.00  0.00    -0.076 HD
ENDROOT
BRANCH   9  14
ATOM     14  C   UNL     1      -2.796   0.821   0.144  0.00  0.00    -0.044 A 
ATOM     15  C   UNL     1      -3.127   2.040  -0.418  0.00  0.00    +0.007 A 
ATOM     16  C   UNL     1      -3.869   2.086  -1.582  0.00  0.00    +0.046 A 
ATOM     17  C   UNL     1      -4.292   0.908  -2.181  0.00  0.00    +0.120 A 
ATOM     18  C   UNL     1      -3.963  -0.313  -1.612  0.00  0.00    +0.046 A 
ATOM     19  C   UNL     1      -3.216  -0.355  -0.451  0.00  0.00    +0.007 A 
BRANCH  17  20
ATOM     20  O   UNL     1      -5.027   0.952  -3.323  0.00  0.00    -0.495 OA
ATOM     21  C   UNL     1      -5.328   2.244  -3.853  0.00  0.00    +0.277 C 
ENDBRANCH  17  20
ENDBRANCH   9  14
BRANCH   1  22
ATOM     22  C   UNL     1       1.322   2.313   2.256  0.00  0.00    -0.057 A 
ATOM     23  C   UNL     1       1.164   3.569   1.700  0.00  0.00    +0.002 A 
ATOM     24  C   UNL     1       2.256   4.406   1.563  0.00  0.00    +0.000 A 
ATOM     25  C   UNL     1       3.506   3.984   1.973  0.00  0.00    +0.000 A 
ATOM     26  C   UNL     1       3.665   2.726   2.525  0.00  0.00    +0.000 A 
ATOM     27  C   UNL     1       2.572   1.891   2.666  0.00  0.00    +0.002 A 
ENDBRANCH   1  22
BRANCH  12  28
ATOM     28  C   UNL     1      -0.018   1.063   0.019  0.00  0.00    +0.048 C 
BRANCH  28  29
ATOM     29  C   UNL     1       0.265  -0.413   0.129  0.00  0.00    +0.290 C 
ATOM     30  O   UNL     1       0.006  -1.003   1.151  0.00  0.00    -0.253 OA
BRANCH  29  31
ATOM     31  O   UNL     1       0.805  -1.072  -0.908  0.00  0.00    -0.466 OA
BRANCH  31  33
ATOM     32  C   UNL     1       1.459  -3.098  -2.090  0.00  0.00    +0.048 C 
ATOM     33  C   UNL     1       0.945  -2.511  -0.774  0.00  0.00    +0.228 C 
ENDBRANCH  31  33
ENDBRANCH  29  31
ENDBRANCH  28  29
ENDBRANCH  12  28
TORSDOF 7
