REMARK  Name = ZINC41352362
REMARK  6 active torsions:
REMARK  status: ('A' for Active; 'I' for Inactive)
REMARK    1  A    between atoms: C_1  and  C_2
REMARK    2  A    between atoms: C_4  and  C_26
REMARK    3  A    between atoms: C_8  and  C_13
REMARK    4  A    between atoms: C_13  and  N_14
REMARK    5  A    between atoms: C_15  and  C_17
REMARK    6  A    between atoms: C_17  and  C_19
REMARK                            x       y       z     vdW  Elec       q    Type
REMARK                         _______ _______ _______ _____ _____    ______ ____
ROOT
ATOM      1  C   UNL     1      -0.018   1.503   0.010  0.00  0.00    +0.044 C 
ATOM      2  C   UNL     1       0.002  -0.004   0.002  0.00  0.00    -0.049 A 
ATOM      3  C   UNL     1       0.006  -0.686  -1.206  0.00  0.00    +0.010 A 
ATOM      4  C   UNL     1       0.025  -2.065  -1.236  0.00  0.00    -0.007 A 
ATOM      5  C   UNL     1       0.041  -2.781  -0.046  0.00  0.00    +0.142 A 
ATOM      6  C   UNL     1       0.037  -2.087   1.176  0.00  0.00    +0.023 A 
ATOM      7  C   UNL     1       0.023  -0.689   1.185  0.00  0.00    +0.015 A 
ATOM      8  C   UNL     1       0.053  -2.850   2.428  0.00  0.00    -0.013 A 
ATOM      9  C   UNL     1       0.072  -4.205   2.351  0.00  0.00    +0.097 A 
ATOM     10  C   UNL     1       0.074  -4.837   1.089  0.00  0.00    +0.338 A 
ATOM     11  O   UNL     1       0.091  -6.053   1.034  0.00  0.00    -0.245 OA
ATOM     12  O   UNL     1       0.059  -4.131  -0.052  0.00  0.00    -0.422 OA
ATOM     13  C   UNL     1       0.028  -2.792  -2.556  0.00  0.00    +0.047 C 
ENDROOT
BRANCH   8  14
ATOM     14  C   UNL     1       0.051  -2.150   3.762  0.00  0.00    +0.140 C 
BRANCH  14  15
ATOM     15  N   UNL     1       1.424  -1.798   4.132  0.00  0.00    -0.310 N 
ATOM     16  C   UNL     1       1.666  -1.160   5.294  0.00  0.00    +0.236 C 
ATOM     17  O   UNL     1       0.748  -0.877   6.034  0.00  0.00    -0.274 OA
ATOM     18  H   UNL     1       2.159  -2.024   3.540  0.00  0.00    +0.149 HD
BRANCH  16  19
ATOM     19  C   UNL     1       3.079  -0.798   5.674  0.00  0.00    +0.196 C 
ATOM     20 CL   UNL     1       3.329   0.972   5.440  0.00  0.00    -0.107 Cl
BRANCH  19  21
ATOM     21  C   UNL     1       3.317  -1.152   7.119  0.00  0.00    -0.021 A 
ATOM     22  C   UNL     1       2.614  -0.501   8.115  0.00  0.00    +0.005 A 
ATOM     23  C   UNL     1       2.832  -0.826   9.441  0.00  0.00    +0.000 A 
ATOM     24  C   UNL     1       3.753  -1.803   9.771  0.00  0.00    +0.000 A 
ATOM     25  C   UNL     1       4.455  -2.455   8.774  0.00  0.00    +0.000 A 
ATOM     26  C   UNL     1       4.234  -2.132   7.449  0.00  0.00    +0.005 A 
ENDBRANCH  19  21
ENDBRANCH  16  19
ENDBRANCH  14  15
ENDBRANCH   8  14
TORSDOF 4
