REMARK  Name = ZINC67481798
REMARK  7 active torsions:
REMARK  status: ('A' for Active; 'I' for Inactive)
REMARK    1  A    between atoms: C_1  and  N_2
REMARK    2  A    between atoms: N_2  and  C_3
REMARK    3  A    between atoms: C_4  and  C_6
REMARK    4  A    between atoms: N_14  and  C_15
REMARK    5  A    between atoms: C_15  and  C_16
REMARK    6  A    between atoms: N_21  and  C_22
REMARK    7  A    between atoms: C_22  and  C_23
REMARK                            x       y       z     vdW  Elec       q    Type
REMARK                         _______ _______ _______ _____ _____    ______ ____
ROOT
ATOM      1  C   UNL     1       1.070  -4.343  -0.275  0.00  0.00    +0.078 C 
ATOM      2  C   UNL     1       1.215  -4.871  -1.704  0.00  0.00    +0.032 C 
ATOM      3  C   UNL     1      -0.072  -4.584  -2.483  0.00  0.00    +0.110 C 
ATOM      4  N   UNL     1      -1.209  -5.149  -1.743  0.00  0.00    -0.286 N 
ATOM      5  C   UNL     1      -1.389  -4.777  -0.333  0.00  0.00    +0.110 C 
ATOM      6  C   UNL     1      -0.087  -5.063   0.422  0.00  0.00    +0.032 C 
ATOM      7  C   UNL     1      -2.071  -5.992  -2.346  0.00  0.00    +0.302 C 
ATOM      8  O   UNL     1      -2.957  -6.519  -1.702  0.00  0.00    -0.253 OA
ATOM      9  N   UNL     1      -1.950  -6.249  -3.664  0.00  0.00    -0.301 N 
ATOM     10  H   UNL     1      -1.201  -5.887  -4.162  0.00  0.00    +0.150 HD
ENDROOT
BRANCH   1  14
ATOM     11  C   UNL     1       4.747  -4.299   0.791  0.00  0.00    +0.131 C 
ATOM     12  N   UNL     1       3.505  -4.055   0.053  0.00  0.00    -0.307 N 
ATOM     13  C   UNL     1       3.522  -3.227  -1.155  0.00  0.00    +0.131 C 
ATOM     14  C   UNL     1       2.348  -4.594   0.485  0.00  0.00    +0.218 C 
ATOM     15  O   UNL     1       2.334  -5.280   1.485  0.00  0.00    -0.275 OA
ENDBRANCH   1  14
BRANCH   9  16
ATOM     16  C   UNL     1      -2.950  -7.077  -4.343  0.00  0.00    +0.090 C 
BRANCH  16  17
ATOM     17  C   UNL     1      -2.581  -7.213  -5.821  0.00  0.00    -0.051 C 
ATOM     18  C   UNL     1      -3.712  -7.939  -6.580  0.00  0.00    -0.016 C 
ATOM     19  C   UNL     1      -4.525  -6.770  -7.196  0.00  0.00    -0.020 C 
ATOM     20  C   UNL     1      -3.406  -5.755  -7.536  0.00  0.00    -0.078 C 
ATOM     21  N   UNL     1      -2.432  -5.876  -6.426  0.00  0.00    +0.383 N 
ATOM     22  H   UNL     1      -2.616  -5.167  -5.732  0.00  0.00    -0.081 HD
BRANCH  21  23
ATOM     23  C   UNL     1      -1.066  -5.717  -6.943  0.00  0.00    -0.075 C 
BRANCH  23  24
ATOM     24  C   UNL     1      -0.882  -4.291  -7.466  0.00  0.00    -0.028 C 
ATOM     25  C   UNL     1       0.516  -4.146  -8.069  0.00  0.00    +0.002 C 
ATOM     26  C   UNL     1       0.701  -2.720  -8.593  0.00  0.00    +0.000 C 
ATOM     27  C   UNL     1       0.536  -1.728  -7.440  0.00  0.00    +0.000 C 
ATOM     28  C   UNL     1      -0.862  -1.873  -6.838  0.00  0.00    +0.000 C 
ATOM     29  C   UNL     1      -1.046  -3.299  -6.314  0.00  0.00    +0.002 C 
ENDBRANCH  23  24
ENDBRANCH  21  23
ENDBRANCH  16  17
ENDBRANCH   9  16
TORSDOF 5
