REMARK  Name = ZINC64343344
REMARK  5 active torsions:
REMARK  status: ('A' for Active; 'I' for Inactive)
REMARK    1  A    between atoms: C_1  and  C_2
REMARK    2  A    between atoms: C_2  and  C_3
REMARK    3  A    between atoms: C_6  and  C_30
REMARK    4  A    between atoms: C_9  and  C_11
REMARK    5  A    between atoms: C_13  and  C_24
REMARK                            x       y       z     vdW  Elec       q    Type
REMARK                         _______ _______ _______ _____ _____    ______ ____
ROOT
ATOM      1  C   UNL     1      -0.262  -5.330  -0.040  0.00  0.00    +0.152 C 
ATOM      2  C   UNL     1       1.169  -4.870  -0.240  0.00  0.00    -0.014 C 
ATOM      3  C   UNL     1       2.087  -5.200   0.762  0.00  0.00    +0.002 A 
ATOM      4  C   UNL     1       3.439  -4.811   0.657  0.00  0.00    +0.030 A 
ATOM      5  C   UNL     1       4.311  -5.145   1.646  0.00  0.00    +0.042 A 
ATOM      6  C   UNL     1       3.897  -5.866   2.765  0.00  0.00    +0.022 A 
ATOM      7  C   UNL     1       2.605  -6.268   2.922  0.00  0.00    +0.025 A 
ATOM      8  C   UNL     1       1.649  -5.958   1.939  0.00  0.00    +0.041 A 
ATOM      9  N   UNL     1       0.381  -6.354   2.095  0.00  0.00    -0.284 N 
ATOM     10  C   UNL     1      -0.573  -6.103   1.221  0.00  0.00    +0.230 C 
ATOM     11  O   UNL     1      -1.706  -6.495   1.430  0.00  0.00    -0.274 OA
ATOM     12 CL   UNL     1       5.974  -4.664   1.512  0.00  0.00    -0.084 Cl
ATOM     13  H   UNL     1       0.151  -6.852   2.895  0.00  0.00    +0.155 HD
ENDROOT
BRANCH   1  19
ATOM     14  C   UNL     1      -1.567  -0.617  -0.098  0.00  0.00    +0.235 C 
ATOM     15  O   UNL     1      -2.527   0.125  -0.115  0.00  0.00    -0.274 OA
ATOM     16  N   UNL     1      -1.749  -1.952  -0.092  0.00  0.00    -0.185 N 
ATOM     17  C   UNL     1      -3.050  -2.642  -0.110  0.00  0.00    +0.136 C 
ATOM     18  C   UNL     1      -2.659  -4.134  -0.092  0.00  0.00    +0.083 C 
ATOM     19  C   UNL     1      -1.148  -4.111  -0.066  0.00  0.00    +0.055 C 
ATOM     20  N   UNL     1      -0.736  -2.909  -0.073  0.00  0.00    -0.185 NA
BRANCH  17  21
ATOM     21  C   UNL     1      -3.857  -2.285   1.111  0.00  0.00    -0.025 A 
ATOM     22  C   UNL     1      -3.232  -2.140   2.336  0.00  0.00    +0.007 A 
ATOM     23  C   UNL     1      -3.972  -1.814   3.456  0.00  0.00    +0.020 A 
ATOM     24  C   UNL     1      -5.340  -1.632   3.352  0.00  0.00    +0.041 A 
ATOM     25  C   UNL     1      -5.965  -1.777   2.127  0.00  0.00    +0.020 A 
ATOM     26  C   UNL     1      -5.223  -2.098   1.006  0.00  0.00    +0.007 A 
ATOM     27 CL   UNL     1      -6.270  -1.222   4.759  0.00  0.00    -0.084 Cl
ENDBRANCH  17  21
BRANCH  14  29
ATOM     28  C   UNL     1      -0.247   1.482  -0.095  0.00  0.00    +0.013 C 
ATOM     29  C   UNL     1      -0.173  -0.046  -0.084  0.00  0.00    +0.094 C 
ENDBRANCH  14  29
ENDBRANCH   1  19
BRANCH   2  30
ATOM     30  C   UNL     1       1.559  -4.139  -1.390  0.00  0.00    -0.020 A 
ATOM     31  C   UNL     1       2.060  -2.833  -1.262  0.00  0.00    +0.008 A 
ATOM     32  C   UNL     1       2.436  -2.132  -2.386  0.00  0.00    +0.001 A 
ATOM     33  C   UNL     1       2.321  -2.710  -3.639  0.00  0.00    +0.000 A 
ATOM     34  C   UNL     1       1.828  -3.998  -3.777  0.00  0.00    +0.001 A 
ATOM     35  C   UNL     1       1.452  -4.718  -2.665  0.00  0.00    +0.008 A 
ENDBRANCH   2  30
TORSDOF 4
