REMARK  Name = ZINC39226313
REMARK  7 active torsions:
REMARK  status: ('A' for Active; 'I' for Inactive)
REMARK    1  A    between atoms: C_1  and  C_2
REMARK    2  A    between atoms: C_2  and  C_3
REMARK    3  A    between atoms: C_2  and  N_4
REMARK    4  A    between atoms: C_15  and  C_20
REMARK    5  A    between atoms: C_24  and  C_26
REMARK    6  A    between atoms: N_28  and  C_29
REMARK    7  A    between atoms: C_29  and  C_30
REMARK                            x       y       z     vdW  Elec       q    Type
REMARK                         _______ _______ _______ _____ _____    ______ ____
ROOT
ATOM      1  N   UNL     1       0.713  -0.491   1.192  0.00  0.00    +0.381 N 
ATOM      2  C   UNL     1       0.740  -1.958   1.178  0.00  0.00    -0.075 C 
ATOM      3  C   UNL     1       1.549  -2.469   2.372  0.00  0.00    +0.030 C 
ATOM      4  C   UNL     1       0.901  -1.978   3.668  0.00  0.00    +0.114 C 
ATOM      5  C   UNL     1       0.807  -0.451   3.640  0.00  0.00    +0.030 C 
ATOM      6  C   UNL     1       0.024  -0.017   2.399  0.00  0.00    -0.075 C 
ATOM      7  C   UNL     1       1.761  -2.412   4.863  0.00  0.00    +0.127 C 
ATOM      8  C   UNL     1       1.061  -1.921   6.119  0.00  0.00    +0.170 C 
ATOM      9  O   UNL     1       1.679  -1.458   7.054  0.00  0.00    -0.292 OA
ATOM     10  C   UNL     1      -0.408  -2.035   6.141  0.00  0.00    +0.060 A 
ATOM     11  C   UNL     1      -1.118  -1.842   7.325  0.00  0.00    +0.023 A 
ATOM     12  C   UNL     1      -2.503  -1.950   7.319  0.00  0.00    -0.017 A 
ATOM     13  C   UNL     1      -3.173  -2.249   6.130  0.00  0.00    +0.012 A 
ATOM     14  C   UNL     1      -2.473  -2.441   4.960  0.00  0.00    +0.047 A 
ATOM     15  C   UNL     1      -1.087  -2.339   4.949  0.00  0.00    +0.132 A 
ATOM     16  O   UNL     1      -0.405  -2.538   3.796  0.00  0.00    -0.485 OA
ATOM     17  H   UNL     1       1.658  -0.139   1.185  0.00  0.00    -0.081 HD
ENDROOT
BRANCH  12  18
ATOM     18  C   UNL     1      -3.270  -1.748   8.573  0.00  0.00    -0.017 A 
ATOM     19  C   UNL     1      -2.601  -1.443   9.759  0.00  0.00    +0.008 A 
ATOM     20  C   UNL     1      -3.312  -1.254  10.928  0.00  0.00    +0.001 A 
ATOM     21  C   UNL     1      -4.689  -1.365  10.931  0.00  0.00    +0.013 A 
ATOM     22  C   UNL     1      -5.369  -1.669   9.751  0.00  0.00    +0.037 A 
ATOM     23  C   UNL     1      -4.656  -1.856   8.567  0.00  0.00    +0.021 A 
BRANCH  22  24
ATOM     24  C   UNL     1      -6.843  -1.788   9.755  0.00  0.00    +0.244 C 
ATOM     25  O   UNL     1      -7.434  -2.053   8.726  0.00  0.00    -0.270 OA
ATOM     26  N   UNL     1      -7.531  -1.604  10.899  0.00  0.00    -0.309 N 
ATOM     27  H   UNL     1      -7.059  -1.392  11.720  0.00  0.00    +0.149 HD
BRANCH  26  28
ATOM     28  C   UNL     1      -8.991  -1.722  10.903  0.00  0.00    +0.136 C 
BRANCH  28  29
ATOM     29  C   UNL     1      -9.520  -1.468  12.316  0.00  0.00    +0.135 C 
ATOM     30  C   UNL     1     -11.044  -1.708  12.356  0.00  0.00    +0.035 C 
ATOM     31  C   UNL     1     -11.534  -0.566  13.287  0.00  0.00    +0.031 C 
ATOM     32  C   UNL     1     -10.539   0.562  12.916  0.00  0.00    +0.160 C 
ATOM     33  O   UNL     1      -9.285  -0.103  12.684  0.00  0.00    -0.375 OA
ENDBRANCH  28  29
ENDBRANCH  26  28
ENDBRANCH  22  24
ENDBRANCH  12  18
BRANCH   1  35
ATOM     34  C   UNL     1      -0.019   1.526   0.010  0.00  0.00    -0.014 C 
ATOM     35  C   UNL     1       0.002  -0.004   0.002  0.00  0.00    -0.075 C 
ATOM     36  C   UNL     1       0.718  -0.497  -1.257  0.00  0.00    -0.014 C 
ENDBRANCH   1  35
TORSDOF 5
