REMARK  Name = ZINC12507755
REMARK  5 active torsions:
REMARK  status: ('A' for Active; 'I' for Inactive)
REMARK    1  A    between atoms: C_3  and  C_15
REMARK    2  A    between atoms: C_4  and  O_11
REMARK    3  A    between atoms: C_6  and  O_7
REMARK    4  A    between atoms: O_7  and  C_8
REMARK    5  A    between atoms: O_11  and  C_12
REMARK                            x       y       z     vdW  Elec       q    Type
REMARK                         _______ _______ _______ _____ _____    ______ ____
ROOT
ATOM      1  C   UNL     1       3.670   2.196  -0.022  0.00  0.00    +0.212 C 
ATOM      2  N   UNL     1       3.428   3.575   0.443  0.00  0.00    -0.294 N 
ATOM      3  C   UNL     1       2.920   4.488  -0.470  0.00  0.00    +0.159 C 
ATOM      4  N   UNL     1       3.599   4.596  -1.685  0.00  0.00    -0.259 N 
ATOM      5  C   UNL     1       4.148   3.406  -2.162  0.00  0.00    +0.205 A 
ATOM      6  N   UNL     1       4.196   2.270  -1.389  0.00  0.00    -0.288 N 
ATOM      7  C   UNL     1       4.800   1.284  -2.138  0.00  0.00    +0.076 A 
ATOM      8  C   UNL     1       5.128  -0.045  -1.903  0.00  0.00    +0.077 A 
ATOM      9  C   UNL     1       5.742  -0.785  -2.894  0.00  0.00    +0.164 A 
ATOM     10  C   UNL     1       6.037  -0.209  -4.126  0.00  0.00    +0.164 A 
ATOM     11  C   UNL     1       5.722   1.111  -4.374  0.00  0.00    +0.079 A 
ATOM     12  C   UNL     1       5.099   1.871  -3.380  0.00  0.00    +0.095 A 
ATOM     13  N   UNL     1       4.675   3.169  -3.326  0.00  0.00    -0.214 NA
ATOM     14  O   UNL     1       6.640  -0.960  -5.094  0.00  0.00    -0.488 OA
ATOM     15  C   UNL     1       7.991  -1.346  -4.835  0.00  0.00    +0.232 C 
ATOM     16  C   UNL     1       8.039  -2.607  -3.986  0.00  0.00    +0.082 C 
ATOM     17  C   UNL     1       7.459  -2.391  -2.597  0.00  0.00    +0.232 C 
ATOM     18  O   UNL     1       6.064  -2.094  -2.669  0.00  0.00    -0.488 OA
ATOM     19  N   UNL     1       1.865   5.205  -0.208  0.00  0.00    -0.375 N 
ATOM     20  H   UNL     1       3.618   3.836   1.358  0.00  0.00    +0.151 HD
ATOM     21  H   UNL     1       1.413   5.109   0.644  0.00  0.00    +0.158 HD
ATOM     22  H   UNL     1       3.683   5.436  -2.162  0.00  0.00    +0.158 HD
ATOM     23  H   UNL     1       1.532   5.836  -0.866  0.00  0.00    +0.158 HD
ENDROOT
BRANCH   1  26
ATOM     24  C   UNL     1       0.514   0.486  -1.191  0.00  0.00    +0.046 A 
ATOM     25  C   UNL     1       1.699   1.197  -1.195  0.00  0.00    +0.014 A 
ATOM     26  C   UNL     1       2.377   1.421  -0.013  0.00  0.00    +0.035 A 
ATOM     27  C   UNL     1       1.870   0.931   1.183  0.00  0.00    +0.137 A 
ATOM     28  C   UNL     1       0.682   0.218   1.190  0.00  0.00    +0.092 A 
ATOM     29  C   UNL     1       0.003  -0.005   0.002  0.00  0.00    +0.130 A 
BRANCH  29  30
ATOM     30  O   UNL     1      -1.163  -0.704   0.006  0.00  0.00    -0.434 OA
BRANCH  30  31
ATOM     31  C   UNL     1      -1.808  -0.896  -1.254  0.00  0.00    +0.541 C 
ATOM     32  F   UNL     1      -2.118   0.348  -1.813  0.00  0.00    -0.166 F 
ATOM     33  F   UNL     1      -0.954  -1.594  -2.115  0.00  0.00    -0.166 F 
ENDBRANCH  30  31
ENDBRANCH  29  30
BRANCH  27  34
ATOM     34  O   UNL     1       2.538   1.152   2.345  0.00  0.00    -0.434 OA
BRANCH  34  35
ATOM     35  C   UNL     1       1.958   0.619   3.538  0.00  0.00    +0.541 C 
ATOM     36  F   UNL     1       0.687   1.172   3.725  0.00  0.00    -0.166 F 
ATOM     37  F   UNL     1       1.851  -0.771   3.424  0.00  0.00    -0.166 F 
ENDBRANCH  34  35
ENDBRANCH  27  34
ENDBRANCH   1  26
TORSDOF 5
