REMARK  Name = ZINC24134177
REMARK  5 active torsions:
REMARK  status: ('A' for Active; 'I' for Inactive)
REMARK    1  A    between atoms: N_9  and  C_22
REMARK    2  A    between atoms: C_10  and  C_13
REMARK    3  A    between atoms: C_15  and  O_21
REMARK    4  A    between atoms: C_16  and  O_20
REMARK    5  A    between atoms: C_22  and  C_23
REMARK                            x       y       z     vdW  Elec       q    Type
REMARK                         _______ _______ _______ _____ _____    ______ ____
ROOT
ATOM      1  C   UNL     1       3.612  -1.626   4.877  0.00  0.00    +0.001 A 
ATOM      2  C   UNL     1       2.909  -2.658   4.273  0.00  0.00    +0.002 A 
ATOM      3  C   UNL     1       2.888  -2.781   2.897  0.00  0.00    +0.024 A 
ATOM      4  C   UNL     1       3.574  -1.867   2.116  0.00  0.00    +0.041 A 
ATOM      5  C   UNL     1       4.290  -0.822   2.725  0.00  0.00    +0.058 A 
ATOM      6  C   UNL     1       4.302  -0.708   4.113  0.00  0.00    +0.015 A 
ATOM      7  C   UNL     1       5.014   0.129   1.862  0.00  0.00    +0.250 C 
ATOM      8  O   UNL     1       5.838   0.887   2.338  0.00  0.00    -0.270 OA
ATOM      9  N   UNL     1       4.752   0.150   0.539  0.00  0.00    -0.271 N 
ATOM     10  C   UNL     1       3.709  -0.696  -0.040  0.00  0.00    +0.193 C 
ATOM     11  N   UNL     1       3.578  -1.941   0.728  0.00  0.00    -0.321 N 
ATOM     12  H   UNL     1       3.487  -2.904   0.203  0.00  0.00    +0.148 HD
ENDROOT
BRANCH  10  13
ATOM     13  C   UNL     1       2.396   0.044  -0.017  0.00  0.00    -0.004 A 
ATOM     14  C   UNL     1       1.206  -0.661  -0.026  0.00  0.00    +0.056 A 
ATOM     15  C   UNL     1      -0.001   0.018  -0.005  0.00  0.00    +0.160 A 
ATOM     16  C   UNL     1      -0.014   1.409   0.026  0.00  0.00    +0.177 A 
ATOM     17  C   UNL     1       1.181   2.110   0.036  0.00  0.00    +0.086 A 
ATOM     18  C   UNL     1       2.384   1.426   0.014  0.00  0.00    +0.031 A 
ATOM     19 CL   UNL     1       1.170   3.845   0.074  0.00  0.00    -0.080 Cl
BRANCH  16  20
ATOM     20  O   UNL     1      -1.198   2.079   0.042  0.00  0.00    -0.502 OA
ATOM     21  H   UNL     1      -1.206   3.179   0.066  0.00  0.00    +0.292 HD
ENDBRANCH  16  20
BRANCH  15  22
ATOM     22  O   UNL     1      -1.172  -0.675  -0.014  0.00  0.00    -0.503 OA
ATOM     23  H   UNL     1      -2.130  -0.135   0.003  0.00  0.00    +0.292 HD
ENDBRANCH  15  22
ENDBRANCH  10  13
BRANCH   9  24
ATOM     24  C   UNL     1       5.527   1.035  -0.334  0.00  0.00    +0.145 C 
BRANCH  24  25
ATOM     25  C   UNL     1       6.681   0.270  -0.928  0.00  0.00    -0.026 A 
ATOM     26  C   UNL     1       7.867   0.155  -0.226  0.00  0.00    +0.009 A 
ATOM     27  C   UNL     1       8.926  -0.550  -0.765  0.00  0.00    +0.050 A 
ATOM     28  C   UNL     1       8.807  -1.134  -2.016  0.00  0.00    +0.166 A 
ATOM     29  C   UNL     1       7.614  -1.013  -2.725  0.00  0.00    +0.167 A 
ATOM     30  C   UNL     1       6.554  -0.310  -2.177  0.00  0.00    +0.054 A 
ATOM     31  O   UNL     1       7.747  -1.667  -3.916  0.00  0.00    -0.453 OA
ATOM     32  C   UNL     1       9.164  -1.841  -4.104  0.00  0.00    +0.466 C 
ATOM     33  O   UNL     1       9.687  -1.864  -2.762  0.00  0.00    -0.453 OA
ENDBRANCH  24  25
ENDBRANCH   9  24
TORSDOF 5
