REMARK  Name = ZINC21808466
REMARK  8 active torsions:
REMARK  status: ('A' for Active; 'I' for Inactive)
REMARK    1  A    between atoms: C_1  and  C_2
REMARK    2  A    between atoms: C_2  and  C_25
REMARK    3  A    between atoms: N_14  and  C_15
REMARK    4  A    between atoms: C_15  and  C_16
REMARK    5  A    between atoms: C_16  and  C_17
REMARK    6  A    between atoms: C_17  and  N_18
REMARK    7  A    between atoms: N_21  and  C_24
REMARK    8  A    between atoms: N_27  and  C_28
REMARK                            x       y       z     vdW  Elec       q    Type
REMARK                         _______ _______ _______ _____ _____    ______ ____
ROOT
ATOM      1  C   UNL     1      -3.743  -6.142   2.680  0.00  0.00    +0.043 C 
ATOM      2  C   UNL     1      -4.217  -6.889   1.432  0.00  0.00    +0.128 C 
ATOM      3  C   UNL     1      -5.644  -6.440   1.098  0.00  0.00    +0.157 C 
ATOM      4  N   UNL     1      -5.991  -6.914  -0.244  0.00  0.00    -0.333 N 
ATOM      5  C   UNL     1      -7.235  -7.233  -0.757  0.00  0.00    +0.057 A 
ATOM      6  C   UNL     1      -8.571  -7.284  -0.335  0.00  0.00    +0.034 A 
ATOM      7  C   UNL     1      -9.541  -7.664  -1.192  0.00  0.00    +0.048 A 
ATOM      8  S   UNL     1      -8.630  -7.990  -2.692  0.00  0.00    -0.095 S 
ATOM      9  C   UNL     1      -7.006  -7.601  -2.091  0.00  0.00    +0.038 A 
ATOM     10  C   UNL     1      -5.648  -7.511  -2.373  0.00  0.00    +0.048 A 
ATOM     11  C   UNL     1      -5.029  -7.095  -1.231  0.00  0.00    +0.106 A 
ATOM     12  C   UNL     1      -3.609  -6.846  -0.952  0.00  0.00    +0.264 C 
ATOM     13  O   UNL     1      -2.773  -6.833  -1.836  0.00  0.00    -0.268 OA
ATOM     14  N   UNL     1      -3.282  -6.630   0.344  0.00  0.00    -0.281 N 
ENDROOT
BRANCH   2  15
ATOM     15  C   UNL     1      -4.223  -8.367   1.726  0.00  0.00    +0.238 C 
ATOM     16  O   UNL     1      -4.364  -8.758   2.866  0.00  0.00    -0.273 OA
ATOM     17  N   UNL     1      -4.073  -9.255   0.723  0.00  0.00    -0.311 N 
ATOM     18  H   UNL     1      -3.945  -8.900  -0.310  0.00  0.00    +0.149 HD
BRANCH  17  19
ATOM     19  C   UNL     1      -4.079 -10.692   1.009  0.00  0.00    +0.073 C 
ATOM     20  C   UNL     1      -2.673 -11.136   1.417  0.00  0.00    +0.022 C 
ATOM     21  C   UNL     1      -2.679 -12.637   1.716  0.00  0.00    +0.002 C 
ATOM     22  C   UNL     1      -3.113 -13.404   0.465  0.00  0.00    +0.000 C 
ATOM     23  C   UNL     1      -4.519 -12.959   0.057  0.00  0.00    +0.002 C 
ATOM     24  C   UNL     1      -4.513 -11.459  -0.242  0.00  0.00    +0.022 C 
ENDBRANCH  17  19
ENDBRANCH   2  15
BRANCH  14  25
ATOM     25  C   UNL     1      -1.944  -6.125   0.664  0.00  0.00    +0.110 C 
BRANCH  25  26
ATOM     26  C   UNL     1      -1.965  -4.595   0.672  0.00  0.00    +0.034 C 
BRANCH  26  27
ATOM     27  C   UNL     1      -0.568  -4.068   1.006  0.00  0.00    +0.086 C 
BRANCH  27  28
ATOM     28  N   UNL     1      -0.588  -2.599   1.014  0.00  0.00    -0.306 NA
ATOM     29  C   UNL     1       0.774  -2.054   1.095  0.00  0.00    +0.066 C 
ATOM     30  C   UNL     1       0.706  -0.528   1.181  0.00  0.00    -0.064 C 
ATOM     31  N   UNL     1       0.002  -0.004   0.002  0.00  0.00    +0.379 N 
ATOM     32  C   UNL     1      -1.360  -0.549  -0.079  0.00  0.00    -0.064 C 
ATOM     33  C   UNL     1      -1.292  -2.075  -0.165  0.00  0.00    +0.066 C 
ATOM     34  C   UNL     1      -0.018   1.465   0.010  0.00  0.00    -0.096 C 
ATOM     35  H   UNL     1       0.551  -0.329  -0.894  0.00  0.00    -0.082 HD
ENDBRANCH  27  28
ENDBRANCH  26  27
ENDBRANCH  25  26
ENDBRANCH  14  25
TORSDOF 6
