REMARK  Name = ZINC39874641
REMARK  4 active torsions:
REMARK  status: ('A' for Active; 'I' for Inactive)
REMARK    1  A    between atoms: C_1  and  S_2
REMARK    2  A    between atoms: S_2  and  C_3
REMARK    3  A    between atoms: C_6  and  C_9
REMARK    4  A    between atoms: N_24  and  C_25
REMARK                            x       y       z     vdW  Elec       q    Type
REMARK                         _______ _______ _______ _____ _____    ______ ____
ROOT
ATOM      1  C   UNL     1      -5.834  -1.544   0.050  0.00  0.00    +0.150 C 
ATOM      2  C   UNL     1      -6.267  -1.967  -1.316  0.00  0.00    +0.072 A 
ATOM      3  C   UNL     1      -6.302  -1.238  -2.587  0.00  0.00    +0.199 A 
ATOM      4  O   UNL     1      -5.787  -0.144  -2.744  0.00  0.00    -0.287 OA
ATOM      5  C   UNL     1      -7.023  -1.959  -3.667  0.00  0.00    +0.066 A 
ATOM      6  C   UNL     1      -7.315  -1.318  -4.870  0.00  0.00    +0.035 A 
ATOM      7  C   UNL     1      -7.990  -2.001  -5.859  0.00  0.00    +0.042 A 
ATOM      8  C   UNL     1      -8.376  -3.320  -5.654  0.00  0.00    +0.023 A 
ATOM      9  C   UNL     1      -8.091  -3.962  -4.471  0.00  0.00    +0.048 A 
ATOM     10  C   UNL     1      -7.407  -3.293  -3.456  0.00  0.00    +0.140 A 
ATOM     11  O   UNL     1      -7.131  -3.952  -2.307  0.00  0.00    -0.450 OA
ATOM     12  C   UNL     1      -6.681  -3.267  -1.237  0.00  0.00    +0.199 A 
ATOM     13  C   UNL     1      -6.538  -3.714   0.159  0.00  0.00    +0.287 C 
ATOM     14  O   UNL     1      -6.824  -4.822   0.567  0.00  0.00    -0.266 OA
ATOM     15  N   UNL     1      -6.044  -2.713   0.919  0.00  0.00    -0.253 N 
ATOM     16 CL   UNL     1      -8.359  -1.213  -7.361  0.00  0.00    -0.084 Cl
ENDROOT
BRANCH  15  17
ATOM     17  C   UNL     1      -5.777  -2.776   2.290  0.00  0.00    +0.038 A 
ATOM     18  C   UNL     1      -5.272  -1.664   2.952  0.00  0.00    +0.026 A 
ATOM     19  C   UNL     1      -5.010  -1.728   4.307  0.00  0.00    +0.040 A 
ATOM     20  C   UNL     1      -5.250  -2.900   5.005  0.00  0.00    +0.124 A 
ATOM     21  C   UNL     1      -5.753  -4.010   4.347  0.00  0.00    +0.040 A 
ATOM     22  C   UNL     1      -6.023  -3.948   2.994  0.00  0.00    +0.026 A 
ATOM     23  F   UNL     1      -4.993  -2.961   6.330  0.00  0.00    -0.205 F 
ENDBRANCH  15  17
BRANCH   1  27
ATOM     24  C   UNL     1      -1.702  -0.454   0.016  0.00  0.00    +0.008 A 
ATOM     25  C   UNL     1      -2.682   0.531   0.025  0.00  0.00    +0.015 A 
ATOM     26  C   UNL     1      -4.016   0.176   0.036  0.00  0.00    +0.007 A 
ATOM     27  C   UNL     1      -4.377  -1.159   0.038  0.00  0.00    -0.022 A 
ATOM     28  C   UNL     1      -3.404  -2.143   0.029  0.00  0.00    +0.007 A 
ATOM     29  C   UNL     1      -2.068  -1.794   0.012  0.00  0.00    +0.015 A 
BRANCH  24  31
ATOM     30  C   UNL     1      -0.022   1.810   0.012  0.00  0.00    +0.090 C 
ATOM     31  S   UNL     1       0.002  -0.004   0.002  0.00  0.00    -0.129 S 
ENDBRANCH  24  31
ENDBRANCH   1  27
TORSDOF 3
