REMARK  Name = ZINC08965366
REMARK  12 active torsions:
REMARK  status: ('A' for Active; 'I' for Inactive)
REMARK    1  A    between atoms: C_1  and  C_2
REMARK    2  A    between atoms: N_6  and  C_29
REMARK    3  A    between atoms: C_10  and  C_28
REMARK    4  A    between atoms: N_11  and  C_12
REMARK    5  A    between atoms: C_12  and  C_13
REMARK    6  A    between atoms: C_13  and  C_14
REMARK    7  A    between atoms: C_14  and  C_15
REMARK    8  A    between atoms: N_17  and  C_18
REMARK    9  A    between atoms: C_18  and  C_19
REMARK   10  A    between atoms: C_19  and  C_20
REMARK   11  A    between atoms: C_20  and  N_71
REMARK   12  A    between atoms: C_25  and  C_27
REMARK                            x       y       z     vdW  Elec       q    Type
REMARK                         _______ _______ _______ _____ _____    ______ ____
ROOT
ATOM      1  C   UNL     1       5.723  11.301  -6.325  0.00  0.00    +0.064 C 
ATOM      2  C   UNL     1       6.489  11.551  -5.052  0.00  0.00    +0.025 A 
ATOM      3  C   UNL     1       7.500  12.441  -4.898  0.00  0.00    +0.028 A 
ATOM      4  C   UNL     1       8.198  13.406  -5.750  0.00  0.00    +0.143 A 
ATOM      5  N   UNL     1       9.159  14.125  -5.256  0.00  0.00    -0.171 NA
ATOM      6  N   UNL     1       9.585  14.038  -3.933  0.00  0.00    -0.196 N 
ATOM      7  C   UNL     1       9.027  13.191  -3.042  0.00  0.00    +0.281 A 
ATOM      8  O   UNL     1       9.428  13.145  -1.893  0.00  0.00    -0.265 OA
ATOM      9  C   UNL     1       7.931  12.327  -3.486  0.00  0.00    +0.071 A 
ATOM     10  C   UNL     1       7.135  11.383  -2.923  0.00  0.00    +0.029 A 
ATOM     11  N   UNL     1       6.282  10.922  -3.862  0.00  0.00    -0.347 N 
ATOM     12  C   UNL     1       7.194  10.924  -1.489  0.00  0.00    +0.064 C 
ENDROOT
BRANCH   6  13
ATOM     13  C   UNL     1      10.632  14.863  -3.509  0.00  0.00    +0.069 A 
ATOM     14  C   UNL     1      10.504  15.607  -2.342  0.00  0.00    +0.028 A 
ATOM     15  C   UNL     1      11.542  16.416  -1.924  0.00  0.00    +0.002 A 
ATOM     16  C   UNL     1      12.704  16.494  -2.671  0.00  0.00    +0.000 A 
ATOM     17  C   UNL     1      12.832  15.759  -3.835  0.00  0.00    +0.002 A 
ATOM     18  C   UNL     1      11.800  14.944  -4.256  0.00  0.00    +0.028 A 
ENDBRANCH   6  13
BRANCH  11  19
ATOM     19  C   UNL     1       5.268   9.890  -3.632  0.00  0.00    +0.122 C 
BRANCH  19  20
ATOM     20  C   UNL     1       5.867   8.513  -3.924  0.00  0.00    +0.031 C 
BRANCH  20  21
ATOM     21  C   UNL     1       4.808   7.435  -3.683  0.00  0.00    +0.097 C 
BRANCH  21  22
ATOM     22  C   UNL     1       5.397   6.078  -3.971  0.00  0.00    +0.213 C 
ATOM     23  O   UNL     1       6.551   5.983  -4.333  0.00  0.00    -0.276 OA
ATOM     24  N   UNL     1       4.643   4.971  -3.826  0.00  0.00    -0.315 N 
ATOM     25  H   UNL     1       3.720   5.047  -3.536  0.00  0.00    +0.149 HD
BRANCH  24  26
ATOM     26  C   UNL     1       5.216   3.652  -4.106  0.00  0.00    +0.102 C 
BRANCH  26  27
ATOM     27  C   UNL     1       4.157   2.574  -3.865  0.00  0.00    +0.000 C 
BRANCH  27  28
ATOM     28  C   UNL     1       4.756   1.197  -4.157  0.00  0.00    -0.077 C 
BRANCH  28  35
ATOM     29  C   UNL     1       3.448   0.021  -2.493  0.00  0.00    -0.078 C 
ATOM     30  C   UNL     1       2.286  -0.956  -2.301  0.00  0.00    -0.019 C 
ATOM     31  C   UNL     1       2.664  -2.314  -2.900  0.00  0.00    -0.003 C 
ATOM     32  C   UNL     1       3.010  -2.132  -4.381  0.00  0.00    -0.016 C 
ATOM     33  C   UNL     1       4.150  -1.120  -4.512  0.00  0.00    -0.072 C 
ATOM     34  C   UNL     1       4.486  -0.919  -5.992  0.00  0.00    -0.013 C 
ATOM     35  N   UNL     1       3.715   0.172  -3.940  0.00  0.00    +0.381 N 
ATOM     36  H   UNL     1       2.851   0.469  -4.409  0.00  0.00    -0.081 HD
ENDBRANCH  28  35
ENDBRANCH  27  28
ENDBRANCH  26  27
ENDBRANCH  24  26
ENDBRANCH  21  22
ENDBRANCH  20  21
ENDBRANCH  19  20
ENDBRANCH  11  19
TORSDOF 9
