REMARK  Name = ZINC15947342
REMARK  9 active torsions:
REMARK  status: ('A' for Active; 'I' for Inactive)
REMARK    1  A    between atoms: C_1  and  O_2
REMARK    2  A    between atoms: O_2  and  C_3
REMARK    3  A    between atoms: C_5  and  C_17
REMARK    4  A    between atoms: C_8  and  O_9
REMARK    5  A    between atoms: O_9  and  C_10
REMARK    6  A    between atoms: C_10  and  C_12
REMARK    7  A    between atoms: N_26  and  C_29
REMARK    8  A    between atoms: C_29  and  C_30
REMARK    9  A    between atoms: C_36  and  O_38
REMARK                            x       y       z     vdW  Elec       q    Type
REMARK                         _______ _______ _______ _____ _____    ______ ____
ROOT
ATOM      1  C   UNL     1      -4.853   0.287   0.032  0.00  0.00    +0.224 C 
ATOM      2  N   UNL     1      -5.927  -0.494  -0.608  0.00  0.00    -0.313 N 
ATOM      3  C   UNL     1      -5.981  -0.447  -1.982  0.00  0.00    +0.080 A 
ATOM      4  C   UNL     1      -5.456   0.632  -2.707  0.00  0.00    +0.067 A 
ATOM      5  C   UNL     1      -5.575   0.533  -4.147  0.00  0.00    -0.027 A 
ATOM      6  C   UNL     1      -6.189  -0.591  -4.588  0.00  0.00    -0.021 A 
ATOM      7  S   UNL     1      -6.591  -1.490  -3.118  0.00  0.00    -0.080 S 
ATOM      8  C   UNL     1      -6.452  -0.952  -6.015  0.00  0.00    -0.035 C 
ATOM      9  N   UNL     1      -6.287   0.259  -6.839  0.00  0.00    +0.386 N 
ATOM     10  C   UNL     1      -5.003   0.900  -6.522  0.00  0.00    -0.073 C 
ATOM     11  C   UNL     1      -5.072   1.568  -5.145  0.00  0.00    +0.018 C 
ATOM     12  C   UNL     1      -4.850   1.745  -1.933  0.00  0.00    +0.220 C 
ATOM     13  N   UNL     1      -4.618   1.545  -0.665  0.00  0.00    -0.223 NA
ATOM     14  H   UNL     1      -6.561  -1.014  -0.089  0.00  0.00    +0.149 HD
ATOM     15  H   UNL     1      -7.040   0.902  -6.646  0.00  0.00    -0.081 HD
ENDROOT
BRANCH   1  18
ATOM     16  C   UNL     1      -1.188  -0.631  -0.022  0.00  0.00    +0.163 A 
ATOM     17  C   UNL     1      -2.357   0.113  -0.014  0.00  0.00    +0.056 A 
ATOM     18  C   UNL     1      -3.583  -0.525   0.022  0.00  0.00    -0.002 A 
ATOM     19  C   UNL     1      -3.646  -1.906   0.051  0.00  0.00    +0.011 A 
ATOM     20  C   UNL     1      -2.484  -2.654   0.044  0.00  0.00    +0.050 A 
ATOM     21  C   UNL     1      -1.252  -2.021   0.002  0.00  0.00    +0.173 A 
BRANCH  16  23
ATOM     22  C   UNL     1       0.007   1.424  -0.080  0.00  0.00    +0.277 C 
ATOM     23  O   UNL     1       0.018  -0.005  -0.058  0.00  0.00    -0.491 OA
ENDBRANCH  16  23
BRANCH  21  24
ATOM     24  O   UNL     1      -0.108  -2.756  -0.012  0.00  0.00    -0.416 OA
BRANCH  24  25
ATOM     25  C   UNL     1       0.551  -2.923   1.153  0.00  0.00    +0.380 C 
ATOM     26  O   UNL     1       0.069  -2.506   2.190  0.00  0.00    -0.241 OA
BRANCH  25  27
ATOM     27  C   UNL     1       1.847  -3.604   1.170  0.00  0.00    +0.212 A 
ATOM     28  C   UNL     1       2.615  -3.843   2.275  0.00  0.00    +0.056 A 
ATOM     29  C   UNL     1       3.763  -4.517   1.831  0.00  0.00    +0.042 A 
ATOM     30  C   UNL     1       3.648  -4.658   0.492  0.00  0.00    +0.196 A 
ATOM     31  O   UNL     1       2.490  -4.112   0.098  0.00  0.00    -0.456 OA
ENDBRANCH  25  27
ENDBRANCH  24  25
ENDBRANCH  21  24
ENDBRANCH   1  18
BRANCH  12  32
ATOM     32  O   UNL     1      -4.548   2.925  -2.522  0.00  0.00    -0.492 OA
ATOM     33  H   UNL     1      -4.158   3.576  -1.923  0.00  0.00    +0.294 HD
ENDBRANCH  12  32
BRANCH   9  34
ATOM     34  C   UNL     1      -6.312  -0.109  -8.261  0.00  0.00    -0.043 C 
BRANCH  34  35
ATOM     35  C   UNL     1      -7.673  -0.650  -8.616  0.00  0.00    -0.064 A 
ATOM     36  C   UNL     1      -7.932  -2.002  -8.494  0.00  0.00    +0.002 A 
ATOM     37  C   UNL     1      -9.180  -2.499  -8.819  0.00  0.00    +0.000 A 
ATOM     38  C   UNL     1     -10.169  -1.643  -9.267  0.00  0.00    +0.000 A 
ATOM     39  C   UNL     1      -9.910  -0.291  -9.388  0.00  0.00    +0.000 A 
ATOM     40  C   UNL     1      -8.663   0.206  -9.059  0.00  0.00    +0.002 A 
ENDBRANCH  34  35
ENDBRANCH   9  34
TORSDOF 8
