REMARK  Name = ZINC25999970
REMARK  17 active torsions:
REMARK  status: ('A' for Active; 'I' for Inactive)
REMARK    1  A    between atoms: C_1  and  N_2
REMARK    2  A    between atoms: N_2  and  C_3
REMARK    3  A    between atoms: C_3  and  C_5
REMARK    4  A    between atoms: C_3  and  C_10
REMARK    5  A    between atoms: C_5  and  C_6
REMARK    6  A    between atoms: C_6  and  O_8
REMARK    7  A    between atoms: O_8  and  C_9
REMARK    8  A    between atoms: C_13  and  O_16
REMARK    9  A    between atoms: O_16  and  C_17
REMARK   10  A    between atoms: C_18  and  C_20
REMARK   11  A    between atoms: C_20  and  C_21
REMARK   12  A    between atoms: C_21  and  C_22
REMARK   13  A    between atoms: C_22  and  C_23
REMARK   14  A    between atoms: C_23  and  C_24
REMARK   15  A    between atoms: C_25  and  N_34
REMARK   16  A    between atoms: N_34  and  S_35
REMARK   17  A    between atoms: S_35  and  C_38
REMARK                            x       y       z     vdW  Elec       q    Type
REMARK                         _______ _______ _______ _____ _____    ______ ____
ROOT
ATOM      1  C   UNL     1      -0.053   0.031   0.045  0.00  0.00    +0.010 C 
ENDROOT
BRANCH   1   2
ATOM      2  C   UNL     1      -0.049   1.561   0.027  0.00  0.00    +0.096 C 
BRANCH   2   5
ATOM      3  C   UNL     1       0.511   4.339  -0.005  0.00  0.00    +0.132 C 
ATOM      4  N   UNL     1       1.622   3.384   0.003  0.00  0.00    -0.297 N 
ATOM      5  C   UNL     1       1.373   2.060   0.019  0.00  0.00    +0.216 C 
ATOM      6  O   UNL     1       2.293   1.270   0.026  0.00  0.00    -0.276 OA
BRANCH   4   7
ATOM      7  C   UNL     1       3.005   3.869  -0.005  0.00  0.00    +0.118 C 
BRANCH   7   8
ATOM      8  C   UNL     1       3.291   4.594   1.285  0.00  0.00    -0.008 A 
ATOM      9  C   UNL     1       4.367   4.218   2.077  0.00  0.00    +0.012 A 
ATOM     10  C   UNL     1       4.595   4.910   3.254  0.00  0.00    +0.067 A 
ATOM     11  C   UNL     1       3.742   5.951   3.601  0.00  0.00    +0.214 A 
ATOM     12  N   UNL     1       2.727   6.279   2.821  0.00  0.00    -0.221 NA
ATOM     13  C   UNL     1       2.488   5.641   1.690  0.00  0.00    +0.120 A 
BRANCH  11  14
ATOM     14  O   UNL     1       3.954   6.637   4.752  0.00  0.00    -0.480 OA
ATOM     15  C   UNL     1       3.043   7.696   5.053  0.00  0.00    +0.279 C 
ENDBRANCH  11  14
ENDBRANCH   7   8
BRANCH   7  16
ATOM     16  C   UNL     1       3.202   4.827  -1.182  0.00  0.00    +0.147 C 
BRANCH  16  17
ATOM     17  C   UNL     1       3.037   4.073  -2.476  0.00  0.00    +0.309 C 
ATOM     18  O   UNL     1       2.786   2.891  -2.459  0.00  0.00    -0.251 OA
BRANCH  17  19
ATOM     19  O   UNL     1       3.167   4.714  -3.648  0.00  0.00    -0.468 OA
ATOM     20  C   UNL     1       2.994   3.925  -4.854  0.00  0.00    +0.280 C 
ENDBRANCH  17  19
ENDBRANCH  16  17
ENDBRANCH   7  16
ENDBRANCH   4   7
ENDBRANCH   2   5
ENDBRANCH   1   2
BRANCH   1  21
ATOM     21  C   UNL     1      -1.496  -0.475   0.054  0.00  0.00    +0.007 C 
BRANCH  21  22
ATOM     22  C   UNL     1      -1.500  -2.005   0.071  0.00  0.00    +0.055 C 
BRANCH  22  23
ATOM     23  C   UNL     1      -2.922  -2.504   0.080  0.00  0.00    +0.040 A 
ATOM     24  C   UNL     1      -3.565  -2.723   1.288  0.00  0.00    +0.067 A 
ATOM     25  C   UNL     1      -4.881  -3.180   1.282  0.00  0.00    +0.033 A 
ATOM     26  C   UNL     1      -5.497  -3.411   0.063  0.00  0.00    -0.008 A 
ATOM     27  C   UNL     1      -4.791  -3.173  -1.107  0.00  0.00    +0.100 A 
ATOM     28  N   UNL     1      -3.540  -2.733  -1.062  0.00  0.00    -0.345 N 
ATOM     29  N   UNL     1      -5.386  -3.386  -2.353  0.00  0.00    -0.330 N 
ATOM     30  C   UNL     1      -6.640  -4.148  -2.421  0.00  0.00    +0.103 C 
ATOM     31  C   UNL     1      -7.565  -3.632  -1.310  0.00  0.00    +0.023 C 
ATOM     32  C   UNL     1      -6.915  -3.917   0.044  0.00  0.00    +0.040 C 
ATOM     33  H   UNL     1      -4.930  -2.994  -3.274  0.00  0.00    +0.147 HD
ATOM     34  H   UNL     1      -3.017  -2.560  -2.015  0.00  0.00    +0.167 HD
BRANCH  24  35
ATOM     35  N   UNL     1      -2.903  -2.482   2.499  0.00  0.00    -0.219 N 
ATOM     36  H   UNL     1      -2.187  -1.651   2.578  0.00  0.00    +0.173 HD
BRANCH  35  37
ATOM     37  S   UNL     1      -3.197  -3.450   3.810  0.00  0.00    +0.040 S 
ATOM     38  O   UNL     1      -2.389  -2.911   4.847  0.00  0.00    -0.155 OA
ATOM     39  O   UNL     1      -4.613  -3.473   3.933  0.00  0.00    -0.155 OA
ATOM     40  C   UNL     1      -2.585  -5.088   3.328  0.00  0.00    +0.218 C 
ENDBRANCH  35  37
ENDBRANCH  24  35
ENDBRANCH  22  23
ENDBRANCH  21  22
ENDBRANCH   1  21
TORSDOF 13
