REMARK  Name = ZINC39911579
REMARK  10 active torsions:
REMARK  status: ('A' for Active; 'I' for Inactive)
REMARK    1  A    between atoms: C_1  and  C_2
REMARK    2  A    between atoms: C_5  and  C_8
REMARK    3  A    between atoms: C_11  and  C_23
REMARK    4  A    between atoms: N_18  and  C_19
REMARK    5  A    between atoms: C_19  and  C_20
REMARK    6  A    between atoms: C_20  and  O_21
REMARK    7  A    between atoms: O_21  and  C_22
REMARK    8  A    between atoms: C_25  and  C_31
REMARK    9  A    between atoms: C_27  and  C_30
REMARK   10  A    between atoms: C_28  and  O_29
REMARK                            x       y       z     vdW  Elec       q    Type
REMARK                         _______ _______ _______ _____ _____    ______ ____
ROOT
ATOM      1  C   UNL     1       0.227  -3.877   0.249  0.00  0.00    +0.141 C 
ATOM      2  C   UNL     1       1.543  -4.605   0.230  0.00  0.00    +0.035 A 
ATOM      3  C   UNL     1       2.764  -4.818  -0.419  0.00  0.00    +0.102 A 
ATOM      4  N   UNL     1       3.435  -5.709   0.284  0.00  0.00    -0.173 NA
ATOM      5  N   UNL     1       2.758  -6.080   1.312  0.00  0.00    -0.272 N 
ATOM      6  H   UNL     1       3.055  -6.728   1.970  0.00  0.00    +0.189 HD
ATOM      7  C   UNL     1       1.560  -5.426   1.341  0.00  0.00    +0.126 A 
ATOM      8  C   UNL     1       0.299  -5.249   2.071  0.00  0.00    +0.266 C 
ATOM      9  O   UNL     1       0.003  -5.831   3.096  0.00  0.00    -0.268 OA
ATOM     10  N   UNL     1      -0.484  -4.350   1.443  0.00  0.00    -0.283 N 
ENDROOT
BRANCH   3  11
ATOM     11  C   UNL     1       3.220  -4.161  -1.670  0.00  0.00    +0.044 A 
ATOM     12  C   UNL     1       2.358  -3.327  -2.376  0.00  0.00    +0.017 A 
ATOM     13  C   UNL     1       2.787  -2.719  -3.539  0.00  0.00    -0.049 A 
ATOM     14  C   UNL     1       4.072  -2.935  -4.005  0.00  0.00    +0.010 A 
ATOM     15  C   UNL     1       4.935  -3.762  -3.312  0.00  0.00    -0.008 A 
ATOM     16  C   UNL     1       4.519  -4.374  -2.140  0.00  0.00    +0.129 A 
ATOM     17  C   UNL     1       6.332  -3.993  -3.827  0.00  0.00    +0.047 C 
ATOM     18  C   UNL     1       1.853  -1.817  -4.303  0.00  0.00    +0.044 C 
BRANCH  16  19
ATOM     19  O   UNL     1       5.369  -5.181  -1.454  0.00  0.00    -0.506 OA
ATOM     20  H   UNL     1       5.333  -6.109  -1.723  0.00  0.00    +0.292 HD
ENDBRANCH  16  19
ENDBRANCH   3  11
BRANCH   1  25
ATOM     21  C   UNL     1       1.114   1.823   0.589  0.00  0.00    +0.044 C 
ATOM     22  C   UNL     1       0.883   0.337   0.500  0.00  0.00    -0.050 A 
ATOM     23  C   UNL     1       1.185  -0.475   1.577  0.00  0.00    +0.004 A 
ATOM     24  C   UNL     1       0.973  -1.839   1.496  0.00  0.00    +0.006 A 
ATOM     25  C   UNL     1       0.458  -2.390   0.338  0.00  0.00    -0.022 A 
ATOM     26  C   UNL     1       0.155  -1.578  -0.739  0.00  0.00    +0.006 A 
ATOM     27  C   UNL     1       0.363  -0.214  -0.656  0.00  0.00    +0.004 A 
ENDBRANCH   1  25
BRANCH  10  28
ATOM     28  C   UNL     1      -1.815  -3.918   1.877  0.00  0.00    +0.137 C 
BRANCH  28  29
ATOM     29  C   UNL     1      -2.875  -4.828   1.253  0.00  0.00    +0.178 C 
BRANCH  29  30
ATOM     30  O   UNL     1      -2.724  -6.155   1.762  0.00  0.00    -0.381 OA
ATOM     31  C   UNL     1      -3.670  -7.089   1.239  0.00  0.00    +0.194 C 
ENDBRANCH  29  30
ENDBRANCH  28  29
ENDBRANCH  10  28
TORSDOF 6
