REMARK  Name = ZINC32520611
REMARK  9 active torsions:
REMARK  status: ('A' for Active; 'I' for Inactive)
REMARK    1  A    between atoms: C_1  and  C_2
REMARK    2  A    between atoms: C_2  and  C_3
REMARK    3  A    between atoms: C_2  and  O_4
REMARK    4  A    between atoms: O_4  and  C_5
REMARK    5  A    between atoms: C_8  and  C_11
REMARK    6  A    between atoms: N_12  and  N_13
REMARK    7  A    between atoms: C_14  and  C_16
REMARK    8  A    between atoms: C_16  and  S_17
REMARK    9  A    between atoms: S_17  and  C_18
REMARK                            x       y       z     vdW  Elec       q    Type
REMARK                         _______ _______ _______ _____ _____    ______ ____
ROOT
ATOM      1  N   UNL     1      -0.024   1.358   0.202  0.00  0.00    -0.206 N 
ATOM      2  C   UNL     1      -0.013   0.025   0.407  0.00  0.00    +0.242 C 
ATOM      3  O   UNL     1       1.038  -0.553   0.586  0.00  0.00    -0.273 OA
ATOM      4  H   UNL     1      -0.977   1.882   0.039  0.00  0.00    +0.177 HD
ENDROOT
BRANCH   1   6
ATOM      5  C   UNL     1       1.170   3.358  -0.000  0.00  0.00    +0.138 C 
ATOM      6  N   UNL     1       1.180   2.075   0.197  0.00  0.00    -0.188 NA
BRANCH   5  10
ATOM      7  C   UNL     1       4.817   5.531  -0.017  0.00  0.00    +0.121 A 
ATOM      8  C   UNL     1       3.615   6.195  -0.222  0.00  0.00    +0.046 A 
ATOM      9  C   UNL     1       2.429   5.493  -0.218  0.00  0.00    +0.013 A 
ATOM     10  C   UNL     1       2.437   4.112  -0.006  0.00  0.00    -0.005 A 
ATOM     11  C   UNL     1       3.648   3.449   0.206  0.00  0.00    +0.013 A 
ATOM     12  C   UNL     1       4.830   4.158   0.195  0.00  0.00    +0.046 A 
BRANCH   7  13
ATOM     13  O   UNL     1       5.984   6.226  -0.022  0.00  0.00    -0.489 OA
BRANCH  13  15
ATOM     14  C   UNL     1       7.141   8.286   0.487  0.00  0.00    +0.051 C 
ATOM     15  C   UNL     1       5.891   7.648  -0.124  0.00  0.00    +0.167 C 
ATOM     16  C   UNL     1       5.783   8.047  -1.597  0.00  0.00    +0.051 C 
ENDBRANCH  13  15
ENDBRANCH   7  13
ENDBRANCH   5  10
ENDBRANCH   1   6
BRANCH   2  17
ATOM     17  C   UNL     1      -1.308  -0.746   0.412  0.00  0.00    +0.174 C 
BRANCH  17  18
ATOM     18  S   UNL     1      -0.965  -2.498   0.710  0.00  0.00    -0.078 S 
BRANCH  18  19
ATOM     19  C   UNL     1      -2.604  -3.142   0.666  0.00  0.00    +0.168 A 
ATOM     20  N   UNL     1      -2.936  -4.457   0.839  0.00  0.00    -0.333 N 
ATOM     21  H   UNL     1      -2.150  -5.203   1.021  0.00  0.00    +0.168 HD
ATOM     22  C   UNL     1      -4.315  -4.549   0.733  0.00  0.00    +0.067 A 
ATOM     23  C   UNL     1      -5.217  -5.598   0.816  0.00  0.00    +0.028 A 
ATOM     24  C   UNL     1      -6.567  -5.358   0.662  0.00  0.00    +0.002 A 
ATOM     25  C   UNL     1      -7.029  -4.071   0.426  0.00  0.00    +0.002 A 
ATOM     26  C   UNL     1      -6.147  -3.017   0.341  0.00  0.00    +0.030 A 
ATOM     27  C   UNL     1      -4.777  -3.244   0.494  0.00  0.00    +0.090 A 
ATOM     28  N   UNL     1      -3.688  -2.432   0.470  0.00  0.00    -0.222 NA
ENDBRANCH  18  19
ENDBRANCH  17  18
ENDBRANCH   2  17
TORSDOF 7
