REMARK  Name = ZINC39561188
REMARK  7 active torsions:
REMARK  status: ('A' for Active; 'I' for Inactive)
REMARK    1  A    between atoms: C_1  and  C_2
REMARK    2  A    between atoms: C_5  and  N_9
REMARK    3  A    between atoms: C_10  and  C_12
REMARK    4  A    between atoms: C_12  and  O_13
REMARK    5  A    between atoms: O_13  and  C_14
REMARK    6  A    between atoms: C_14  and  C_16
REMARK    7  A    between atoms: C_18  and  N_24
REMARK                            x       y       z     vdW  Elec       q    Type
REMARK                         _______ _______ _______ _____ _____    ______ ____
ROOT
ATOM      1  O   UNL     1      -0.232  -6.813  -2.537  0.00  0.00    -0.451 OA
ENDROOT
BRANCH   1   2
ATOM      2  C   UNL     1      -0.324  -8.146  -2.714  0.00  0.00    +0.360 C 
ATOM      3  O   UNL     1      -0.323  -8.888  -1.753  0.00  0.00    -0.243 OA
BRANCH   2   4
ATOM      4  C   UNL     1      -0.425  -8.705  -4.080  0.00  0.00    +0.169 A 
ATOM      5  C   UNL     1      -0.526 -10.082  -4.255  0.00  0.00    +0.095 A 
ATOM      6  C   UNL     1      -0.622 -10.593  -5.550  0.00  0.00    +0.067 A 
ATOM      7  C   UNL     1      -0.613  -9.697  -6.618  0.00  0.00    +0.100 A 
ATOM      8  C   UNL     1      -0.510  -8.339  -6.361  0.00  0.00    +0.150 A 
ATOM      9  N   UNL     1      -0.426  -7.886  -5.128  0.00  0.00    -0.226 NA
ATOM     10 CL   UNL     1      -0.498  -7.217  -7.686  0.00  0.00    -0.060 Cl
ATOM     11 CL   UNL     1      -0.729 -10.276  -8.250  0.00  0.00    -0.078 Cl
ATOM     12 CL   UNL     1      -0.531 -11.147  -2.884  0.00  0.00    -0.079 Cl
BRANCH   6  13
ATOM     13  N   UNL     1      -0.724 -11.965  -5.770  0.00  0.00    -0.356 N 
ATOM     14  H   UNL     1      -0.729 -12.578  -5.019  0.00  0.00    +0.142 HD
ATOM     15  H   UNL     1      -0.790 -12.308  -6.676  0.00  0.00    +0.142 HD
ENDBRANCH   6  13
ENDBRANCH   2   4
ENDBRANCH   1   2
BRANCH   1  16
ATOM     16  C   UNL     1      -0.136  -6.343  -1.191  0.00  0.00    +0.328 C 
BRANCH  16  18
ATOM     17  N   UNL     1       0.057  -4.171  -0.023  0.00  0.00    -0.281 N 
ATOM     18  C   UNL     1      -0.042  -4.839  -1.190  0.00  0.00    +0.255 C 
ATOM     19  O   UNL     1      -0.055  -4.230  -2.238  0.00  0.00    -0.272 OA
ATOM     20  H   UNL     1       0.149  -4.660   0.809  0.00  0.00    +0.155 HD
BRANCH  17  25
ATOM     21  C   UNL     1      -0.064   1.502   0.016  0.00  0.00    +0.044 C 
ATOM     22  C   UNL     1      -0.031  -0.005   0.006  0.00  0.00    -0.049 A 
ATOM     23  C   UNL     1      -0.622  -0.701  -1.033  0.00  0.00    +0.005 A 
ATOM     24  C   UNL     1      -0.594  -2.082  -1.045  0.00  0.00    +0.025 A 
ATOM     25  C   UNL     1       0.028  -2.772  -0.014  0.00  0.00    +0.052 A 
ATOM     26  C   UNL     1       0.621  -2.070   1.029  0.00  0.00    +0.062 A 
ATOM     27  C   UNL     1       0.595  -0.688   1.032  0.00  0.00    +0.025 A 
ATOM     28 CL   UNL     1       1.401  -2.928   2.321  0.00  0.00    -0.082 Cl
ENDBRANCH  17  25
ENDBRANCH  16  18
ENDBRANCH   1  16
TORSDOF 6
