REMARK  Name = ZINC43757579
REMARK  9 active torsions:
REMARK  status: ('A' for Active; 'I' for Inactive)
REMARK    1  A    between atoms: C_1  and  C_2
REMARK    2  A    between atoms: C_2  and  O_32
REMARK    3  A    between atoms: C_8  and  C_31
REMARK    4  A    between atoms: C_20  and  C_30
REMARK    5  A    between atoms: C_23  and  O_26
REMARK    6  A    between atoms: O_26  and  C_27
REMARK    7  A    between atoms: C_27  and  C_29
REMARK    8  A    between atoms: O_32  and  C_33
REMARK    9  A    between atoms: C_33  and  C_35
REMARK                            x       y       z     vdW  Elec       q    Type
REMARK                         _______ _______ _______ _____ _____    ______ ____
ROOT
ATOM      1  C   UNL     1       0.193   1.579  -0.040  0.00  0.00    +0.086 C 
ATOM      2  C   UNL     1       0.181   0.073   0.010  0.00  0.00    +0.106 C 
ATOM      3  C   UNL     1       0.168  -0.544   1.165  0.00  0.00    -0.025 C 
ATOM      4  C   UNL     1       0.279  -2.045   1.430  0.00  0.00    +0.035 C 
ATOM      5  C   UNL     1      -0.032  -2.249   2.944  0.00  0.00    +0.009 C 
ATOM      6  C   UNL     1      -0.836  -0.972   3.246  0.00  0.00    +0.004 C 
ATOM      7  C   UNL     1       0.041   0.081   2.541  0.00  0.00    +0.002 C 
ATOM      8  C   UNL     1      -0.630   1.439   2.593  0.00  0.00    +0.086 C 
ATOM      9  C   UNL     1      -0.926   1.698   4.074  0.00  0.00    +0.138 C 
ATOM     10  O   UNL     1      -0.427   2.635   4.629  0.00  0.00    -0.297 OA
ATOM     11  C   UNL     1      -1.830   0.705   4.751  0.00  0.00    +0.065 C 
ATOM     12  C   UNL     1      -1.172  -0.684   4.679  0.00  0.00    +0.004 C 
ATOM     13  C   UNL     1       0.007  -0.757   5.637  0.00  0.00    +0.005 C 
ATOM     14  C   UNL     1      -0.490  -0.487   7.066  0.00  0.00    +0.004 C 
ATOM     15  C   UNL     1      -1.038   0.943   7.122  0.00  0.00    -0.001 C 
ATOM     16  C   UNL     1      -2.224   1.071   6.171  0.00  0.00    -0.019 C 
ATOM     17  C   UNL     1      -3.347   0.131   6.629  0.00  0.00    +0.011 C 
ATOM     18  C   UNL     1      -3.765   0.438   8.063  0.00  0.00    +0.045 C 
ATOM     19  C   UNL     1      -2.568   0.316   9.005  0.00  0.00    +0.177 C 
ATOM     20  C   UNL     1      -1.452   1.260   8.558  0.00  0.00    +0.048 C 
ATOM     21  C   UNL     1      -2.763   2.506   6.190  0.00  0.00    +0.012 C 
ATOM     22  C   UNL     1       1.456   0.183   3.109  0.00  0.00    +0.016 C 
ENDROOT
BRANCH  19  23
ATOM     23  O   UNL     1      -2.974   0.660  10.333  0.00  0.00    -0.462 OA
BRANCH  23  24
ATOM     24  C   UNL     1      -3.429  -0.337  11.108  0.00  0.00    +0.304 C 
ATOM     25  O   UNL     1      -3.481  -1.464  10.675  0.00  0.00    -0.251 OA
ATOM     26  C   UNL     1      -3.875  -0.051  12.519  0.00  0.00    +0.136 C 
ENDBRANCH  23  24
ENDBRANCH  19  23
BRANCH   2  27
ATOM     27  O   UNL     1       0.184  -0.644  -1.142  0.00  0.00    -0.431 OA
BRANCH  27  28
ATOM     28  C   UNL     1       1.271  -0.573  -1.927  0.00  0.00    +0.309 C 
ATOM     29  O   UNL     1       2.245   0.039  -1.555  0.00  0.00    -0.251 OA
ATOM     30  C   UNL     1       1.278  -1.256  -3.270  0.00  0.00    +0.136 C 
ENDBRANCH  27  28
ENDBRANCH   2  27
TORSDOF 4
