REMARK  Name = ZINC23542417
REMARK  10 active torsions:
REMARK  status: ('A' for Active; 'I' for Inactive)
REMARK    1  A    between atoms: C_1  and  C_2
REMARK    2  A    between atoms: C_2  and  C_3
REMARK    3  A    between atoms: C_2  and  C_4
REMARK    4  A    between atoms: C_9  and  N_10
REMARK    5  A    between atoms: C_20  and  S_21
REMARK    6  A    between atoms: S_21  and  C_22
REMARK    7  A    between atoms: C_22  and  C_23
REMARK    8  A    between atoms: C_23  and  C_25
REMARK    9  A    between atoms: C_28  and  O_32
REMARK   10  A    between atoms: C_29  and  O_31
REMARK                            x       y       z     vdW  Elec       q    Type
REMARK                         _______ _______ _______ _____ _____    ______ ____
ROOT
ATOM      1  N   UNL     1      -0.017   1.397   0.010  0.00  0.00    -0.255 N 
ATOM      2  C   UNL     1      -1.201   2.052   0.019  0.00  0.00    +0.267 A 
ATOM      3  O   UNL     1      -2.257   1.447   0.021  0.00  0.00    -0.267 OA
ATOM      4  C   UNL     1      -1.165   3.520   0.031  0.00  0.00    +0.065 A 
ATOM      5  C   UNL     1      -2.330   4.286   0.046  0.00  0.00    +0.015 A 
ATOM      6  C   UNL     1      -2.240   5.650   0.051  0.00  0.00    +0.001 A 
ATOM      7  C   UNL     1      -1.002   6.280   0.043  0.00  0.00    +0.002 A 
ATOM      8  C   UNL     1       0.156   5.554   0.029  0.00  0.00    +0.028 A 
ATOM      9  C   UNL     1       0.097   4.158   0.023  0.00  0.00    +0.079 A 
ATOM     10  N   UNL     1       1.218   3.400   0.009  0.00  0.00    -0.223 NA
ATOM     11  C   UNL     1       1.161   2.091   0.002  0.00  0.00    +0.177 A 
ENDROOT
BRANCH   1  17
ATOM     12  C   UNL     1       0.000  -0.693  -1.203  0.00  0.00    -0.021 A 
ATOM     13  C   UNL     1       0.019  -2.074  -1.208  0.00  0.00    +0.006 A 
ATOM     14  C   UNL     1       0.041  -2.771  -0.013  0.00  0.00    +0.000 A 
ATOM     15  C   UNL     1       0.043  -2.087   1.189  0.00  0.00    +0.002 A 
ATOM     16  C   UNL     1       0.029  -0.706   1.200  0.00  0.00    +0.026 A 
ATOM     17  C   UNL     1       0.002  -0.004   0.002  0.00  0.00    +0.055 A 
BRANCH  12  19
ATOM     18  C   UNL     1       1.224  -0.285  -3.321  0.00  0.00    +0.012 C 
ATOM     19  C   UNL     1      -0.023   0.065  -2.506  0.00  0.00    +0.015 C 
ATOM     20  C   UNL     1      -1.274  -0.319  -3.297  0.00  0.00    +0.012 C 
ENDBRANCH  12  19
ENDBRANCH   1  17
BRANCH  11  21
ATOM     21  S   UNL     1       2.671   1.184  -0.017  0.00  0.00    -0.079 S 
BRANCH  21  22
ATOM     22  C   UNL     1       3.859   2.550  -0.021  0.00  0.00    +0.157 C 
BRANCH  22  23
ATOM     23  C   UNL     1       5.261   1.997  -0.037  0.00  0.00    +0.173 C 
ATOM     24  O   UNL     1       5.439   0.798  -0.044  0.00  0.00    -0.291 OA
BRANCH  23  25
ATOM     25  C   UNL     1       6.410   2.911  -0.043  0.00  0.00    +0.022 A 
ATOM     26  C   UNL     1       6.206   4.296  -0.040  0.00  0.00    +0.015 A 
ATOM     27  C   UNL     1       7.286   5.151  -0.039  0.00  0.00    +0.050 A 
ATOM     28  C   UNL     1       8.579   4.642  -0.054  0.00  0.00    +0.158 A 
ATOM     29  C   UNL     1       8.790   3.264  -0.063  0.00  0.00    +0.159 A 
ATOM     30  C   UNL     1       7.714   2.400  -0.058  0.00  0.00    +0.060 A 
BRANCH  29  31
ATOM     31  O   UNL     1      10.058   2.771  -0.077  0.00  0.00    -0.503 OA
ATOM     32  H   UNL     1      10.225   1.683  -0.085  0.00  0.00    +0.292 HD
ENDBRANCH  29  31
BRANCH  28  33
ATOM     33  O   UNL     1       9.639   5.490  -0.059  0.00  0.00    -0.503 OA
ATOM     34  H   UNL     1      10.663   5.089  -0.071  0.00  0.00    +0.292 HD
ENDBRANCH  28  33
ENDBRANCH  23  25
ENDBRANCH  22  23
ENDBRANCH  21  22
ENDBRANCH  11  21
TORSDOF 8
