REMARK  Name = ZINC39353070
REMARK  12 active torsions:
REMARK  status: ('A' for Active; 'I' for Inactive)
REMARK    1  A    between atoms: C_1  and  C_2
REMARK    2  A    between atoms: C_5  and  C_21
REMARK    3  A    between atoms: C_6  and  C_20
REMARK    4  A    between atoms: N_8  and  C_9
REMARK    5  A    between atoms: C_11  and  N_17
REMARK    6  A    between atoms: C_14  and  O_15
REMARK    7  A    between atoms: O_15  and  C_16
REMARK    8  A    between atoms: C_22  and  C_23
REMARK    9  A    between atoms: C_22  and  C_25
REMARK   10  A    between atoms: N_27  and  C_28
REMARK   11  A    between atoms: C_28  and  C_29
REMARK   12  A    between atoms: C_29  and  C_30
REMARK                            x       y       z     vdW  Elec       q    Type
REMARK                         _______ _______ _______ _____ _____    ______ ____
ROOT
ATOM      1  C   UNL     1      -2.877  -1.975   1.468  0.00  0.00    +0.029 C 
ATOM      2  C   UNL     1      -3.404  -2.906   0.597  0.00  0.00    +0.114 C 
ENDROOT
BRANCH   1   6
ATOM      3  C   UNL     1      -1.238   2.150   0.025  0.00  0.00    +0.032 C 
ATOM      4  C   UNL     1      -0.899   0.673  -0.192  0.00  0.00    +0.094 C 
ATOM      5  C   UNL     1      -2.132  -0.169   0.006  0.00  0.00    +0.000 C 
ATOM      6  C   UNL     1      -1.932  -1.029   1.005  0.00  0.00    -0.028 C 
ATOM      7  C   UNL     1      -0.547  -0.840   1.567  0.00  0.00    +0.101 C 
ATOM      8  N   UNL     1       0.095   0.239   0.799  0.00  0.00    -0.314 N 
ATOM      9  C   UNL     1      -0.634  -0.452   3.044  0.00  0.00    +0.033 C 
BRANCH   8  10
ATOM     10  C   UNL     1       1.386   0.748   0.975  0.00  0.00    +0.075 A 
ATOM     11  C   UNL     1       1.604   1.804   1.847  0.00  0.00    +0.059 A 
ATOM     12  C   UNL     1       2.881   2.306   2.020  0.00  0.00    +0.128 A 
ATOM     13  C   UNL     1       3.942   1.757   1.324  0.00  0.00    +0.036 A 
ATOM     14  C   UNL     1       3.732   0.705   0.452  0.00  0.00    +0.050 A 
ATOM     15  C   UNL     1       2.457   0.192   0.278  0.00  0.00    +0.141 A 
BRANCH  12  16
ATOM     16  N   UNL     1       3.112   3.433   2.951  0.00  0.00    +0.056 N 
ATOM     17  O   UNL     1       2.185   3.914   3.559  0.00  0.00    -0.126 OA
ATOM     18  O   UNL     1       4.228   3.873   3.102  0.00  0.00    -0.126 OA
ENDBRANCH  12  16
BRANCH  15  19
ATOM     19  O   UNL     1       2.250  -0.847  -0.574  0.00  0.00    -0.493 OA
ATOM     20  C   UNL     1       3.395  -1.366  -1.254  0.00  0.00    +0.277 C 
ENDBRANCH  15  19
ENDBRANCH   8  10
ENDBRANCH   1   6
BRANCH   2  21
ATOM     21  C   UNL     1      -2.869  -3.022  -0.769  0.00  0.00    +0.254 C 
ATOM     22  O   UNL     1      -1.891  -2.376  -1.096  0.00  0.00    -0.269 OA
ATOM     23  N   UNL     1      -3.461  -3.844  -1.658  0.00  0.00    -0.310 N 
ATOM     24  H   UNL     1      -4.241  -4.359  -1.397  0.00  0.00    +0.149 HD
BRANCH  23  25
ATOM     25  C   UNL     1      -2.928  -3.959  -3.017  0.00  0.00    +0.109 C 
BRANCH  25  26
ATOM     26  C   UNL     1      -3.778  -4.949  -3.816  0.00  0.00    +0.056 C 
BRANCH  26  27
ATOM     27  C   UNL     1      -3.230  -5.068  -5.215  0.00  0.00    -0.021 A 
ATOM     28  C   UNL     1      -2.143  -5.947  -5.653  0.00  0.00    +0.003 A 
ATOM     29  C   UNL     1      -1.326  -6.876  -5.006  0.00  0.00    +0.010 A 
ATOM     30  C   UNL     1      -0.376  -7.555  -5.717  0.00  0.00    +0.001 A 
ATOM     31  C   UNL     1      -0.216  -7.327  -7.077  0.00  0.00    +0.002 A 
ATOM     32  C   UNL     1      -1.011  -6.413  -7.734  0.00  0.00    +0.026 A 
ATOM     33  C   UNL     1      -1.985  -5.712  -7.031  0.00  0.00    +0.047 A 
ATOM     34  N   UNL     1      -2.913  -4.760  -7.390  0.00  0.00    -0.360 N 
ATOM     35  C   UNL     1      -3.649  -4.393  -6.296  0.00  0.00    +0.087 A 
ATOM     36  H   UNL     1      -3.030  -4.406  -8.285  0.00  0.00    +0.165 HD
ENDBRANCH  26  27
ENDBRANCH  25  26
ENDBRANCH  23  25
ENDBRANCH   2  21
BRANCH   2  37
ATOM     37  C   UNL     1      -4.473  -3.759   1.022  0.00  0.00    +0.104 C 
ATOM     38  N   UNL     1      -5.321  -4.436   1.359  0.00  0.00    -0.191 NA
ENDBRANCH   2  37
TORSDOF 9
