REMARK  Name = ZINC10521494
REMARK  7 active torsions:
REMARK  status: ('A' for Active; 'I' for Inactive)
REMARK    1  A    between atoms: C_1  and  C_2
REMARK    2  A    between atoms: C_4  and  N_8
REMARK    3  A    between atoms: N_5  and  C_7
REMARK    4  A    between atoms: C_9  and  C_11
REMARK    5  A    between atoms: C_11  and  S_12
REMARK    6  A    between atoms: S_12  and  C_13
REMARK    7  A    between atoms: N_26  and  C_27
REMARK                            x       y       z     vdW  Elec       q    Type
REMARK                         _______ _______ _______ _____ _____    ______ ____
ROOT
ATOM      1  C   UNL     1       0.607   1.495   2.945  0.00  0.00    +0.178 A 
ATOM      2  N   UNL     1       1.661   0.789   2.589  0.00  0.00    -0.215 NA
ATOM      3  C   UNL     1       2.052  -0.257   3.307  0.00  0.00    +0.117 A 
ATOM      4  C   UNL     1       1.367  -0.670   4.462  0.00  0.00    +0.076 A 
ATOM      5  C   UNL     1       1.913  -1.845   5.144  0.00  0.00    -0.023 A 
ATOM      6  C   UNL     1       3.011  -2.411   4.602  0.00  0.00    -0.004 A 
ATOM      7  S   UNL     1       3.378  -1.429   3.173  0.00  0.00    -0.073 S 
ATOM      8  C   UNL     1       3.755  -3.611   5.105  0.00  0.00    +0.043 C 
ATOM      9  C   UNL     1       3.305  -3.891   6.546  0.00  0.00    +0.005 C 
ATOM     10  C   UNL     1       1.775  -3.854   6.599  0.00  0.00    +0.005 C 
ATOM     11  C   UNL     1       1.283  -2.419   6.410  0.00  0.00    +0.037 C 
ATOM     12  C   UNL     1       0.223   0.111   4.821  0.00  0.00    +0.268 A 
ATOM     13  O   UNL     1      -0.433  -0.173   5.809  0.00  0.00    -0.267 OA
ATOM     14  N   UNL     1      -0.118   1.163   4.055  0.00  0.00    -0.255 N 
ENDROOT
BRANCH  14  15
ATOM     15  C   UNL     1      -1.237   1.932   4.402  0.00  0.00    +0.052 A 
ATOM     16  C   UNL     1      -1.095   3.026   5.245  0.00  0.00    +0.026 A 
ATOM     17  C   UNL     1      -2.199   3.785   5.580  0.00  0.00    +0.002 A 
ATOM     18  C   UNL     1      -3.446   3.450   5.086  0.00  0.00    +0.000 A 
ATOM     19  C   UNL     1      -3.592   2.358   4.250  0.00  0.00    +0.002 A 
ATOM     20  C   UNL     1      -2.490   1.598   3.907  0.00  0.00    +0.026 A 
ENDBRANCH  14  15
BRANCH   1  21
ATOM     21  S   UNL     1       0.120   2.882   1.972  0.00  0.00    -0.078 S 
BRANCH  21  22
ATOM     22  C   UNL     1       1.399   2.832   0.692  0.00  0.00    +0.173 C 
BRANCH  22  24
ATOM     23  N   UNL     1       2.015   4.122  -1.326  0.00  0.00    -0.270 N 
ATOM     24  C   UNL     1       1.179   3.961  -0.282  0.00  0.00    +0.229 C 
ATOM     25  O   UNL     1       0.249   4.723  -0.126  0.00  0.00    -0.275 OA
ATOM     26  H   UNL     1       2.759   3.512  -1.451  0.00  0.00    +0.156 HD
BRANCH  23  30
ATOM     27  C   UNL     1       0.091   8.130  -3.593  0.00  0.00    +0.067 C 
ATOM     28  C   UNL     1       0.975   6.955  -3.262  0.00  0.00    +0.062 A 
ATOM     29  C   UNL     1       0.815   6.092  -2.175  0.00  0.00    +0.068 A 
ATOM     30  C   UNL     1       1.812   5.166  -2.228  0.00  0.00    +0.123 A 
ATOM     31  N   UNL     1       2.572   5.447  -3.311  0.00  0.00    -0.253 N 
ATOM     32  N   UNL     1       2.023   6.569  -3.943  0.00  0.00    -0.175 NA
ATOM     33  C   UNL     1       3.759   4.706  -3.747  0.00  0.00    +0.174 C 
ENDBRANCH  23  30
ENDBRANCH  22  24
ENDBRANCH  21  22
ENDBRANCH   1  21
TORSDOF 5
