REMARK  Name = ZINC32747524
REMARK  10 active torsions:
REMARK  status: ('A' for Active; 'I' for Inactive)
REMARK    1  A    between atoms: C_1  and  O_2
REMARK    2  A    between atoms: O_2  and  C_3
REMARK    3  A    between atoms: C_7  and  C_11
REMARK    4  A    between atoms: C_8  and  O_9
REMARK    5  A    between atoms: O_9  and  C_10
REMARK    6  A    between atoms: C_11  and  C_13
REMARK    7  A    between atoms: C_11  and  C_27
REMARK    8  A    between atoms: C_13  and  N_14
REMARK    9  A    between atoms: C_15  and  C_17
REMARK   10  A    between atoms: C_17  and  C_18
REMARK                            x       y       z     vdW  Elec       q    Type
REMARK                         _______ _______ _______ _____ _____    ______ ____
ROOT
ATOM      1  C   UNL     1      -3.029   2.807   0.217  0.00  0.00    +0.072 C 
ENDROOT
BRANCH   1   2
ATOM      2  C   UNL     1      -4.342   3.062   0.911  0.00  0.00    -0.013 A 
ATOM      3  C   UNL     1      -4.852   4.259   1.242  0.00  0.00    +0.088 A 
ATOM      4  N   UNL     1      -6.062   4.097   1.859  0.00  0.00    -0.360 N 
ATOM      5  H   UNL     1      -6.628   4.976   2.200  0.00  0.00    +0.165 HD
ATOM      6  C   UNL     1      -6.369   2.757   1.943  0.00  0.00    +0.047 A 
ATOM      7  C   UNL     1      -5.308   2.050   1.348  0.00  0.00    +0.003 A 
ATOM      8  C   UNL     1      -5.344   0.656   1.294  0.00  0.00    +0.010 A 
ATOM      9  C   UNL     1      -6.416  -0.016   1.811  0.00  0.00    +0.001 A 
ATOM     10  C   UNL     1      -7.468   0.677   2.393  0.00  0.00    +0.002 A 
ATOM     11  C   UNL     1      -7.450   2.053   2.462  0.00  0.00    +0.026 A 
ENDBRANCH   1   2
BRANCH   1  16
ATOM     12  C   UNL     1       0.057   3.015   2.400  0.00  0.00    +0.162 A 
ATOM     13  C   UNL     1       0.163   4.384   2.590  0.00  0.00    +0.049 A 
ATOM     14  C   UNL     1      -0.765   5.235   2.018  0.00  0.00    +0.004 A 
ATOM     15  C   UNL     1      -1.796   4.724   1.251  0.00  0.00    +0.008 A 
ATOM     16  C   UNL     1      -1.904   3.360   1.053  0.00  0.00    +0.007 A 
ATOM     17  C   UNL     1      -0.977   2.502   1.624  0.00  0.00    +0.165 A 
BRANCH  12  19
ATOM     18  C   UNL     1       2.000   2.774   3.750  0.00  0.00    +0.277 C 
ATOM     19  O   UNL     1       0.965   2.176   2.966  0.00  0.00    -0.491 OA
ENDBRANCH  12  19
BRANCH  17  20
ATOM     20  O   UNL     1      -1.082   1.160   1.430  0.00  0.00    -0.491 OA
ATOM     21  C   UNL     1      -0.307   0.595   0.371  0.00  0.00    +0.277 C 
ENDBRANCH  17  20
ENDBRANCH   1  16
BRANCH   1  22
ATOM     22  C   UNL     1      -3.033   3.493  -1.150  0.00  0.00    +0.117 C 
BRANCH  22  23
ATOM     23  N   UNL     1      -1.794   3.171  -1.861  0.00  0.00    -0.314 N 
ATOM     24  C   UNL     1      -1.606   3.612  -3.121  0.00  0.00    +0.219 C 
ATOM     25  O   UNL     1      -2.463   4.274  -3.666  0.00  0.00    -0.275 OA
ATOM     26  H   UNL     1      -1.016   2.570  -1.367  0.00  0.00    +0.149 HD
BRANCH  24  27
ATOM     27  C   UNL     1      -0.331   3.281  -3.853  0.00  0.00    +0.155 C 
BRANCH  27  28
ATOM     28  C   UNL     1      -0.371   3.887  -5.232  0.00  0.00    +0.100 A 
ATOM     29  C   UNL     1       0.102   5.223  -5.607  0.00  0.00    +0.045 A 
ATOM     30  C   UNL     1       0.686   6.275  -4.898  0.00  0.00    +0.013 A 
ATOM     31  C   UNL     1       1.024   7.428  -5.549  0.00  0.00    +0.001 A 
ATOM     32  C   UNL     1       0.793   7.561  -6.911  0.00  0.00    +0.004 A 
ATOM     33  C   UNL     1       0.218   6.535  -7.629  0.00  0.00    +0.049 A 
ATOM     34  C   UNL     1      -0.134   5.355  -6.985  0.00  0.00    +0.168 A 
ATOM     35  O   UNL     1      -0.698   4.204  -7.403  0.00  0.00    -0.354 OA
ATOM     36  N   UNL     1      -0.826   3.321  -6.307  0.00  0.00    -0.082 NA
ENDBRANCH  27  28
ENDBRANCH  24  27
ENDBRANCH  22  23
ENDBRANCH   1  22
TORSDOF 8
