REMARK  Name = ZINC59418047
REMARK  5 active torsions:
REMARK  status: ('A' for Active; 'I' for Inactive)
REMARK    1  A    between atoms: C_5  and  C_7
REMARK    2  A    between atoms: C_7  and  O_8
REMARK    3  A    between atoms: O_8  and  C_9
REMARK    4  A    between atoms: C_14  and  C_15
REMARK    5  A    between atoms: N_21  and  C_22
REMARK                            x       y       z     vdW  Elec       q    Type
REMARK                         _______ _______ _______ _____ _____    ______ ____
ROOT
ATOM      1  C   UNL     1      -2.429  -3.309  -0.973  0.00  0.00    +0.032 C 
ATOM      2  C   UNL     1      -3.625  -3.759  -1.434  0.00  0.00    +0.078 C 
ATOM      3  C   UNL     1      -3.929  -4.969  -2.220  0.00  0.00    +0.256 C 
ATOM      4  O   UNL     1      -3.055  -5.745  -2.559  0.00  0.00    -0.269 OA
ATOM      5  N   UNL     1      -5.196  -5.173  -2.541  0.00  0.00    -0.260 N 
ATOM      6  C   UNL     1      -6.172  -4.282  -2.149  0.00  0.00    +0.166 C 
ATOM      7  N   UNL     1      -7.464  -4.333  -2.380  0.00  0.00    -0.224 NA
ATOM      8  S   UNL     1      -5.253  -3.048  -1.244  0.00  0.00    -0.049 S 
ATOM      9  H   UNL     1      -5.440  -5.957  -3.058  0.00  0.00    +0.157 HD
ENDROOT
BRANCH   7  10
ATOM     10  C   UNL     1      -8.006  -5.423  -3.005  0.00  0.00    +0.085 A 
ATOM     11  C   UNL     1      -7.723  -6.710  -2.541  0.00  0.00    +0.029 A 
ATOM     12  C   UNL     1      -8.272  -7.805  -3.175  0.00  0.00    +0.002 A 
ATOM     13  C   UNL     1      -9.103  -7.632  -4.268  0.00  0.00    +0.002 A 
ATOM     14  C   UNL     1      -9.388  -6.360  -4.734  0.00  0.00    +0.022 A 
ATOM     15  C   UNL     1      -8.850  -5.255  -4.106  0.00  0.00    +0.066 A 
ATOM     16 CL   UNL     1      -9.215  -3.660  -4.687  0.00  0.00    -0.081 Cl
ENDBRANCH   7  10
BRANCH   1  22
ATOM     17  C   UNL     1      -0.014  -3.589  -1.511  0.00  0.00    +0.128 A 
ATOM     18  C   UNL     1       1.110  -4.392  -1.617  0.00  0.00    +0.046 A 
ATOM     19  C   UNL     1       1.031  -5.739  -1.320  0.00  0.00    +0.004 A 
ATOM     20  C   UNL     1      -0.170  -6.299  -0.915  0.00  0.00    +0.001 A 
ATOM     21  C   UNL     1      -1.299  -5.518  -0.804  0.00  0.00    +0.011 A 
ATOM     22  C   UNL     1      -1.232  -4.150  -1.095  0.00  0.00    +0.018 A 
BRANCH  17  23
ATOM     23  O   UNL     1       0.063  -2.266  -1.803  0.00  0.00    -0.487 OA
BRANCH  23  24
ATOM     24  C   UNL     1       1.336  -1.766  -2.219  0.00  0.00    +0.267 C 
BRANCH  24  29
ATOM     25  C   UNL     1      -0.079   1.715  -2.588  0.00  0.00    +0.001 A 
ATOM     26  C   UNL     1       1.032   2.423  -3.008  0.00  0.00    +0.003 A 
ATOM     27  C   UNL     1       2.242   1.776  -3.172  0.00  0.00    +0.039 A 
ATOM     28  C   UNL     1       2.342   0.419  -2.917  0.00  0.00    +0.130 A 
ATOM     29  C   UNL     1       1.229  -0.289  -2.497  0.00  0.00    +0.025 A 
ATOM     30  C   UNL     1       0.019   0.360  -2.333  0.00  0.00    +0.010 A 
ATOM     31  F   UNL     1       3.525  -0.214  -3.078  0.00  0.00    -0.205 F 
ENDBRANCH  24  29
ENDBRANCH  23  24
ENDBRANCH  17  23
ENDBRANCH   1  22
TORSDOF 5
