REMARK  Name = ZINC29040412
REMARK  9 active torsions:
REMARK  status: ('A' for Active; 'I' for Inactive)
REMARK    1  A    between atoms: C_1  and  C_2
REMARK    2  A    between atoms: N_5  and  N_21
REMARK    3  A    between atoms: C_8  and  C_9
REMARK    4  A    between atoms: C_9  and  C_10
REMARK    5  A    between atoms: N_12  and  C_13
REMARK    6  A    between atoms: C_13  and  C_14
REMARK    7  A    between atoms: N_21  and  C_22
REMARK    8  A    between atoms: C_22  and  S_23
REMARK    9  A    between atoms: S_23  and  C_26
REMARK                            x       y       z     vdW  Elec       q    Type
REMARK                         _______ _______ _______ _____ _____    ______ ____
ROOT
ATOM      1  C   UNL     1      -0.018   1.503   0.010  0.00  0.00    +0.044 C 
ATOM      2  C   UNL     1       0.002  -0.004   0.002  0.00  0.00    -0.040 A 
ATOM      3  C   UNL     1       0.006  -0.706  -1.212  0.00  0.00    +0.023 A 
ATOM      4  C   UNL     1       0.025  -2.059  -1.209  0.00  0.00    +0.112 A 
ATOM      5  N   UNL     1       0.040  -2.750  -0.040  0.00  0.00    -0.236 N 
ATOM      6  C   UNL     1       0.036  -2.105   1.141  0.00  0.00    +0.272 A 
ATOM      7  O   UNL     1       0.050  -2.740   2.183  0.00  0.00    -0.266 OA
ATOM      8  C   UNL     1       0.023  -0.700   1.175  0.00  0.00    +0.030 A 
ENDROOT
BRANCH   5   9
ATOM      9  N   UNL     1       0.059  -4.116  -0.064  0.00  0.00    -0.260 N 
ATOM     10  H   UNL     1      -0.237  -4.497   0.822  0.00  0.00    +0.168 HD
BRANCH   9  11
ATOM     11  C   UNL     1       1.389  -4.618  -0.434  0.00  0.00    +0.291 C 
BRANCH  11  12
ATOM     12  S   UNL     1       1.367  -6.432  -0.452  0.00  0.00    +0.014 S 
ATOM     13  O   UNL     1       2.630  -6.932  -0.870  0.00  0.00    -0.168 OA
ATOM     14  O   UNL     1       0.747  -6.926   0.727  0.00  0.00    -0.168 OA
BRANCH  12  15
ATOM     15  C   UNL     1       0.261  -6.859  -1.755  0.00  0.00    +0.090 A 
ATOM     16  C   UNL     1      -1.087  -7.017  -1.493  0.00  0.00    +0.028 A 
ATOM     17  C   UNL     1      -1.955  -7.352  -2.515  0.00  0.00    +0.022 A 
ATOM     18  C   UNL     1      -1.475  -7.528  -3.800  0.00  0.00    +0.041 A 
ATOM     19  C   UNL     1      -0.126  -7.369  -4.062  0.00  0.00    +0.022 A 
ATOM     20  C   UNL     1       0.741  -7.029  -3.041  0.00  0.00    +0.028 A 
ATOM     21 CL   UNL     1      -2.565  -7.949  -5.084  0.00  0.00    -0.084 Cl
ENDBRANCH  12  15
ENDBRANCH  11  12
ENDBRANCH   9  11
ENDBRANCH   5   9
BRANCH   8  22
ATOM     22  C   UNL     1       0.025   0.030   2.493  0.00  0.00    +0.136 C 
BRANCH  22  23
ATOM     23  C   UNL     1      -1.388   0.145   3.006  0.00  0.00    +0.218 C 
ATOM     24  O   UNL     1      -2.306  -0.320   2.364  0.00  0.00    -0.275 OA
ATOM     25  N   UNL     1      -1.631   0.765   4.178  0.00  0.00    -0.311 N 
ATOM     26  H   UNL     1      -0.897   1.137   4.691  0.00  0.00    +0.149 HD
BRANCH  25  27
ATOM     27  C   UNL     1      -3.004   0.877   4.676  0.00  0.00    +0.139 C 
BRANCH  27  28
ATOM     28  C   UNL     1      -3.002   1.607   5.995  0.00  0.00    -0.026 A 
ATOM     29  C   UNL     1      -2.871   0.913   7.190  0.00  0.00    +0.023 A 
ATOM     30  C   UNL     1      -2.873   1.611   8.381  0.00  0.00    +0.084 A 
ATOM     31  N   UNL     1      -2.996   2.925   8.395  0.00  0.00    -0.350 N 
ATOM     32  C   UNL     1      -3.123   3.622   7.277  0.00  0.00    +0.094 A 
ATOM     33  C   UNL     1      -3.124   2.984   6.040  0.00  0.00    +0.046 A 
ATOM     34  N   UNL     1      -3.252   5.005   7.338  0.00  0.00    -0.345 N 
ATOM     35  H   UNL     1      -3.247   5.455   8.197  0.00  0.00    +0.144 HD
ATOM     36  H   UNL     1      -3.345   5.520   6.521  0.00  0.00    +0.144 HD
ATOM     37  H   UNL     1      -2.994   3.391   9.246  0.00  0.00    +0.166 HD
ENDBRANCH  27  28
ENDBRANCH  25  27
ENDBRANCH  22  23
ENDBRANCH   8  22
TORSDOF 8
