REMARK  Name = ZINC08766439
REMARK  3 active torsions:
REMARK  status: ('A' for Active; 'I' for Inactive)
REMARK    1  A    between atoms: N_13  and  N_14
REMARK    2  A    between atoms: C_15  and  C_16
REMARK    3  A    between atoms: C_21  and  O_22
REMARK                            x       y       z     vdW  Elec       q    Type
REMARK                         _______ _______ _______ _____ _____    ______ ____
ROOT
ATOM      1  C   UNL     1      -0.017   1.363   0.009  0.00  0.00    +0.001 A 
ATOM      2  C   UNL     1       1.168   2.089   0.002  0.00  0.00    +0.002 A 
ATOM      3  C   UNL     1       2.379   1.458  -0.013  0.00  0.00    +0.028 A 
ATOM      4  C   UNL     1       2.432   0.061  -0.021  0.00  0.00    +0.080 A 
ATOM      5  C   UNL     1       1.224  -0.674  -0.013  0.00  0.00    +0.065 A 
ATOM      6  C   UNL     1       0.002  -0.004   0.002  0.00  0.00    +0.015 A 
ATOM      7  C   UNL     1       1.305  -2.141  -0.021  0.00  0.00    +0.260 A 
ATOM      8  O   UNL     1       0.301  -2.829  -0.016  0.00  0.00    -0.267 OA
ATOM      9  N   UNL     1       2.539  -2.699  -0.036  0.00  0.00    -0.293 N 
ATOM     10  H   UNL     1       2.631  -3.664  -0.042  0.00  0.00    +0.172 HD
ATOM     11  C   UNL     1       3.654  -1.911  -0.042  0.00  0.00    +0.216 A 
ATOM     12  N   UNL     1       3.605  -0.602  -0.035  0.00  0.00    -0.215 NA
ATOM     13  N   UNL     1       4.885  -2.519  -0.056  0.00  0.00    -0.207 N 
ATOM     14  H   UNL     1       4.947  -3.487  -0.062  0.00  0.00    +0.177 HD
ENDROOT
BRANCH  13  15
ATOM     15  N   UNL     1       6.051  -1.742  -0.063  0.00  0.00    -0.187 NA
ATOM     16  C   UNL     1       7.214  -2.318  -0.077  0.00  0.00    +0.142 C 
BRANCH  16  17
ATOM     17  C   UNL     1       8.440  -1.500  -0.084  0.00  0.00    +0.038 A 
ATOM     18  C   UNL     1       9.694  -2.116  -0.104  0.00  0.00    +0.028 A 
ATOM     19  C   UNL     1      10.839  -1.345  -0.112  0.00  0.00    +0.020 A 
ATOM     20  C   UNL     1      10.749   0.037  -0.099  0.00  0.00    +0.034 A 
ATOM     21  C   UNL     1       9.514   0.658  -0.079  0.00  0.00    +0.061 A 
ATOM     22  C   UNL     1       8.355  -0.102  -0.077  0.00  0.00    +0.139 A 
ATOM     23 BR   UNL     1       9.405   2.546  -0.062  0.00  0.00    -0.046 Br
ATOM     24 BR   UNL     1      12.536  -2.179  -0.138  0.00  0.00    -0.050 Br
BRANCH  22  25
ATOM     25  O   UNL     1       7.140   0.507  -0.063  0.00  0.00    -0.505 OA
ATOM     26  H   UNL     1       6.797   0.679   0.825  0.00  0.00    +0.292 HD
ENDBRANCH  22  25
ENDBRANCH  16  17
ENDBRANCH  13  15
TORSDOF 3
