REMARK  Name = ZINC39354625
REMARK  7 active torsions:
REMARK  status: ('A' for Active; 'I' for Inactive)
REMARK    1  A    between atoms: C_1  and  N_2
REMARK    2  A    between atoms: N_9  and  C_12
REMARK    3  A    between atoms: N_13  and  C_28
REMARK    4  A    between atoms: N_16  and  C_17
REMARK    5  A    between atoms: C_17  and  C_18
REMARK    6  A    between atoms: C_18  and  C_19
REMARK    7  A    between atoms: C_28  and  C_29
REMARK                            x       y       z     vdW  Elec       q    Type
REMARK                         _______ _______ _______ _____ _____    ______ ____
ROOT
ATOM      1  C   UNL     1       0.155   1.191  -0.553  0.00  0.00    +0.136 C 
ATOM      2  N   UNL     1       0.059  -0.268  -0.475  0.00  0.00    -0.266 N 
ATOM      3  C   UNL     1      -1.249  -0.906  -0.258  0.00  0.00    +0.203 C 
ATOM      4  C   UNL     1      -1.250  -2.458  -0.217  0.00  0.00    +0.203 C 
ATOM      5  C   UNL     1       0.097  -3.122  -0.413  0.00  0.00    +0.247 C 
ATOM      6  O   UNL     1       0.196  -4.330  -0.391  0.00  0.00    -0.273 OA
ATOM      7  N   UNL     1       1.181  -2.353  -0.612  0.00  0.00    -0.227 N 
ATOM      8  C   UNL     1       1.162  -1.018  -0.607  0.00  0.00    +0.312 C 
ATOM      9  O   UNL     1       2.216  -0.441  -0.790  0.00  0.00    -0.252 OA
ATOM     10  C   UNL     1       2.472  -3.021  -0.797  0.00  0.00    +0.143 C 
ATOM     11  N   UNL     1      -1.686  -2.754   1.157  0.00  0.00    -0.286 N 
ATOM     12  C   UNL     1      -1.907  -1.572   1.807  0.00  0.00    +0.159 C 
ATOM     13  N   UNL     1      -1.696  -0.506   1.082  0.00  0.00    -0.341 N 
ATOM     14  N   UNL     1      -2.329  -1.508   3.114  0.00  0.00    -0.318 N 
ATOM     15  H   UNL     1      -2.482  -2.325   3.615  0.00  0.00    +0.149 HD
ATOM     16  H   UNL     1      -1.808   0.411   1.378  0.00  0.00    +0.164 HD
ENDROOT
BRANCH  14  17
ATOM     17  C   UNL     1      -2.547  -0.207   3.751  0.00  0.00    +0.109 C 
BRANCH  17  18
ATOM     18  C   UNL     1      -3.010  -0.416   5.194  0.00  0.00    +0.056 C 
BRANCH  18  19
ATOM     19  C   UNL     1      -3.234   0.923   5.849  0.00  0.00    -0.021 A 
ATOM     20  C   UNL     1      -4.453   1.733   5.780  0.00  0.00    +0.003 A 
ATOM     21  C   UNL     1      -5.692   1.571   5.159  0.00  0.00    +0.010 A 
ATOM     22  C   UNL     1      -6.649   2.537   5.291  0.00  0.00    +0.001 A 
ATOM     23  C   UNL     1      -6.399   3.680   6.039  0.00  0.00    +0.002 A 
ATOM     24  C   UNL     1      -5.182   3.860   6.660  0.00  0.00    +0.026 A 
ATOM     25  C   UNL     1      -4.194   2.889   6.540  0.00  0.00    +0.047 A 
ATOM     26  N   UNL     1      -2.911   2.776   7.027  0.00  0.00    -0.360 N 
ATOM     27  C   UNL     1      -2.357   1.597   6.609  0.00  0.00    +0.087 A 
ATOM     28  H   UNL     1      -2.467   3.433   7.585  0.00  0.00    +0.165 HD
ENDBRANCH  18  19
ENDBRANCH  17  18
ENDBRANCH  14  17
BRANCH  11  29
ATOM     29  C   UNL     1      -1.854  -4.091   1.731  0.00  0.00    +0.143 C 
BRANCH  29  30
ATOM     30  C   UNL     1      -3.223  -4.618   1.386  0.00  0.00    -0.030 A 
ATOM     31  C   UNL     1      -4.293  -4.363   2.223  0.00  0.00    +0.006 A 
ATOM     32  C   UNL     1      -5.549  -4.845   1.906  0.00  0.00    +0.015 A 
ATOM     33  C   UNL     1      -5.735  -5.584   0.751  0.00  0.00    +0.018 A 
ATOM     34  C   UNL     1      -4.663  -5.840  -0.086  0.00  0.00    +0.015 A 
ATOM     35  C   UNL     1      -3.409  -5.352   0.229  0.00  0.00    +0.006 A 
ATOM     36 BR   UNL     1      -7.452  -6.245   0.318  0.00  0.00    -0.050 Br
ENDBRANCH  29  30
ENDBRANCH  11  29
TORSDOF 5
