REMARK  Name = ZINC05740606
REMARK  5 active torsions:
REMARK  status: ('A' for Active; 'I' for Inactive)
REMARK    1  A    between atoms: C_1  and  C_2
REMARK    2  A    between atoms: N_7  and  C_8
REMARK    3  A    between atoms: C_8  and  C_10
REMARK    4  A    between atoms: C_8  and  C_19
REMARK    5  A    between atoms: C_28  and  O_29
REMARK                            x       y       z     vdW  Elec       q    Type
REMARK                         _______ _______ _______ _____ _____    ______ ____
ROOT
ATOM      1  C   UNL     1       2.599   3.800   0.019  0.00  0.00    +0.136 C 
ENDROOT
BRANCH   1   8
ATOM      2  C   UNL     1       7.287   2.061  -3.502  0.00  0.00    +0.063 C 
ATOM      3  C   UNL     1       5.934   2.653  -3.207  0.00  0.00    +0.014 A 
ATOM      4  C   UNL     1       5.189   3.196  -4.234  0.00  0.00    +0.021 A 
ATOM      5  C   UNL     1       3.942   3.741  -3.957  0.00  0.00    +0.005 A 
ATOM      6  C   UNL     1       3.489   3.721  -2.650  0.00  0.00    +0.041 A 
ATOM      7  C   UNL     1       4.292   3.158  -1.664  0.00  0.00    +0.097 A 
ATOM      8  N   UNL     1       3.849   3.130  -0.347  0.00  0.00    -0.320 N 
ATOM      9  H   UNL     1       4.368   2.668   0.330  0.00  0.00    +0.148 HD
ATOM     10  N   UNL     1       5.523   2.621  -1.911  0.00  0.00    -0.347 N 
ATOM     11  H   UNL     1       6.102   2.218  -1.165  0.00  0.00    +0.167 HD
ENDBRANCH   1   8
BRANCH   1  12
ATOM     12  C   UNL     1       1.440   2.867  -0.218  0.00  0.00    +0.021 A 
ATOM     13  C   UNL     1       1.646   1.491  -0.160  0.00  0.00    +0.010 A 
ATOM     14  C   UNL     1       0.620   0.620  -0.369  0.00  0.00    +0.010 A 
ATOM     15  C   UNL     1      -0.664   1.113  -0.653  0.00  0.00    +0.004 A 
ATOM     16  C   UNL     1      -1.748   0.244  -0.880  0.00  0.00    +0.011 A 
ATOM     17  C   UNL     1      -2.969   0.794  -1.152  0.00  0.00    +0.020 A 
ATOM     18  C   UNL     1      -3.113   2.179  -1.197  0.00  0.00    +0.111 A 
ATOM     19  N   UNL     1      -2.103   2.985  -0.974  0.00  0.00    -0.251 NA
ATOM     20  C   UNL     1      -0.882   2.511  -0.708  0.00  0.00    +0.113 A 
ATOM     21  C   UNL     1       0.205   3.383  -0.486  0.00  0.00    +0.148 A 
BRANCH  21  22
ATOM     22  O   UNL     1       0.023   4.728  -0.539  0.00  0.00    -0.504 OA
ATOM     23  H   UNL     1       0.155   5.109  -1.418  0.00  0.00    +0.292 HD
ENDBRANCH  21  22
ENDBRANCH   1  12
BRANCH   1  24
ATOM     24  C   UNL     1       2.644   4.186   1.476  0.00  0.00    -0.019 A 
ATOM     25  C   UNL     1       3.114   3.285   2.413  0.00  0.00    +0.009 A 
ATOM     26  C   UNL     1       3.161   3.636   3.750  0.00  0.00    +0.050 A 
ATOM     27  C   UNL     1       2.727   4.888   4.154  0.00  0.00    +0.166 A 
ATOM     28  C   UNL     1       2.248   5.793   3.210  0.00  0.00    +0.167 A 
ATOM     29  C   UNL     1       2.209   5.437   1.872  0.00  0.00    +0.055 A 
ATOM     30  O   UNL     1       1.885   6.942   3.852  0.00  0.00    -0.453 OA
ATOM     31  C   UNL     1       2.526   6.881   5.140  0.00  0.00    +0.466 C 
ATOM     32  O   UNL     1       2.664   5.470   5.387  0.00  0.00    -0.453 OA
ENDBRANCH   1  24
TORSDOF 4
