REMARK  Name = ZINC04795487
REMARK  5 active torsions:
REMARK  status: ('A' for Active; 'I' for Inactive)
REMARK    1  A    between atoms: C_1  and  C_2
REMARK    2  A    between atoms: N_8  and  C_9
REMARK    3  A    between atoms: C_9  and  C_11
REMARK    4  A    between atoms: C_9  and  O_15
REMARK    5  A    between atoms: N_16  and  N_17
REMARK                            x       y       z     vdW  Elec       q    Type
REMARK                         _______ _______ _______ _____ _____    ______ ____
ROOT
ATOM      1  C   UNL     1       0.408   1.694  -0.318  0.00  0.00    +0.066 C 
ATOM      2  C   UNL     1       0.357   0.195  -0.469  0.00  0.00    +0.045 A 
ATOM      3  C   UNL     1      -0.825  -0.446  -0.547  0.00  0.00    +0.073 A 
ATOM      4  C   UNL     1      -0.805  -1.912  -0.693  0.00  0.00    +0.176 A 
ATOM      5  N   UNL     1       0.365  -2.571  -0.458  0.00  0.00    -0.194 NA
ATOM      6  C   UNL     1       1.490  -1.899  -0.378  0.00  0.00    +0.219 A 
ATOM      7  N   UNL     1       1.518  -0.542  -0.537  0.00  0.00    -0.220 NA
ATOM      8  N   UNL     1       2.660  -2.572  -0.136  0.00  0.00    -0.285 N 
ATOM      9  N   UNL     1      -1.892  -2.571  -1.041  0.00  0.00    -0.153 NA
ATOM     10  H   UNL     1       3.486  -2.080  -0.004  0.00  0.00    +0.151 HD
ENDROOT
BRANCH   9  11
ATOM     11  N   UNL     1      -1.854  -3.965  -1.174  0.00  0.00    -0.165 N 
ATOM     12  C   UNL     1      -2.022  -4.500  -2.400  0.00  0.00    +0.105 C 
ATOM     13  N   UNL     1      -2.216  -3.775  -3.454  0.00  0.00    -0.388 N 
ATOM     14  C   UNL     1      -1.967  -6.020  -2.452  0.00  0.00    +0.147 C 
ATOM     15  S   UNL     1      -1.674  -6.392  -0.673  0.00  0.00    -0.093 S 
ATOM     16  C   UNL     1      -1.646  -4.710  -0.074  0.00  0.00    +0.136 C 
ATOM     17  S   UNL     1      -1.410  -4.170   1.534  0.00  0.00    -0.026 S 
ATOM     18  H   UNL     1      -2.245  -2.809  -3.380  0.00  0.00    +0.157 HD
ATOM     19  H   UNL     1      -2.333  -4.199  -4.319  0.00  0.00    +0.157 HD
ENDBRANCH   9  11
BRANCH   8  20
ATOM     20  C   UNL     1       2.664  -4.036  -0.076  0.00  0.00    +0.254 C 
BRANCH  20  21
ATOM     21  C   UNL     1       3.664  -4.501   0.984  0.00  0.00    +0.232 C 
ATOM     22 CL   UNL     1       5.313  -3.913   0.554  0.00  0.00    -0.079 Cl
ATOM     23 CL   UNL     1       3.189  -3.835   2.591  0.00  0.00    -0.079 Cl
ATOM     24 CL   UNL     1       3.668  -6.303   1.058  0.00  0.00    -0.079 Cl
ENDBRANCH  20  21
BRANCH  20  25
ATOM     25  O   UNL     1       3.041  -4.564  -1.350  0.00  0.00    -0.370 OA
ATOM     26  H   UNL     1       3.919  -4.288  -1.646  0.00  0.00    +0.212 HD
ENDBRANCH  20  25
ENDBRANCH   8  20
TORSDOF 4
