REMARK  Name = ZINC36736989
REMARK  7 active torsions:
REMARK  status: ('A' for Active; 'I' for Inactive)
REMARK    1  A    between atoms: C_1  and  C_2
REMARK    2  A    between atoms: C_2  and  C_3
REMARK    3  A    between atoms: C_2  and  C_4
REMARK    4  A    between atoms: C_2  and  C_5
REMARK    5  A    between atoms: C_5  and  C_6
REMARK    6  A    between atoms: N_8  and  C_9
REMARK    7  A    between atoms: C_14  and  N_15
REMARK                            x       y       z     vdW  Elec       q    Type
REMARK                         _______ _______ _______ _____ _____    ______ ____
ROOT
ATOM      1  C   UNL     1       4.237   0.285  -2.352  0.00  0.00    +0.058 A 
ATOM      2  C   UNL     1       4.490   1.498  -1.729  0.00  0.00    +0.074 A 
ATOM      3  C   UNL     1       5.755   2.061  -1.791  0.00  0.00    +0.164 A 
ATOM      4  C   UNL     1       6.774   1.409  -2.476  0.00  0.00    +0.164 A 
ATOM      5  C   UNL     1       6.523   0.197  -3.101  0.00  0.00    +0.074 A 
ATOM      6  C   UNL     1       5.259  -0.370  -3.037  0.00  0.00    +0.050 A 
ATOM      7  O   UNL     1       8.024   1.945  -2.539  0.00  0.00    -0.485 OA
ATOM      8  C   UNL     1       8.146   3.335  -2.222  0.00  0.00    +0.270 C 
ATOM      9  C   UNL     1       7.351   3.607  -0.938  0.00  0.00    +0.270 C 
ATOM     10  O   UNL     1       5.983   3.256  -1.176  0.00  0.00    -0.485 OA
ENDROOT
BRANCH   1  13
ATOM     11  C   UNL     1       2.131   0.027  -1.269  0.00  0.00    +0.218 C 
ATOM     12  O   UNL     1       2.528   0.719  -0.356  0.00  0.00    -0.275 OA
ATOM     13  N   UNL     1       2.957  -0.285  -2.288  0.00  0.00    -0.284 N 
ATOM     14  H   UNL     1       2.666  -0.903  -2.977  0.00  0.00    +0.155 HD
BRANCH  11  15
ATOM     15  C   UNL     1       0.713  -0.485  -1.265  0.00  0.00    +0.102 C 
BRANCH  15  17
ATOM     16  C   UNL     1      -0.014   1.539   0.006  0.00  0.00    +0.011 C 
ATOM     17  C   UNL     1      -0.004   0.009  -0.007  0.00  0.00    -0.029 C 
ATOM     18  C   UNL     1       0.729  -0.506   1.234  0.00  0.00    +0.011 C 
ATOM     19  C   UNL     1      -1.442  -0.510  -0.002  0.00  0.00    +0.011 C 
ENDBRANCH  15  17
ENDBRANCH  11  15
ENDBRANCH   1  13
BRANCH   6  20
ATOM     20  N   UNL     1       5.008  -1.599  -3.664  0.00  0.00    -0.356 N 
ATOM     21  H   UNL     1       4.123  -1.993  -3.621  0.00  0.00    +0.142 HD
ATOM     22  H   UNL     1       5.720  -2.054  -4.140  0.00  0.00    +0.142 HD
ENDBRANCH   6  20
TORSDOF 4
