REMARK  Name = ZINC39446127
REMARK  8 active torsions:
REMARK  status: ('A' for Active; 'I' for Inactive)
REMARK    1  A    between atoms: C_1  and  C_2
REMARK    2  A    between atoms: C_2  and  O_3
REMARK    3  A    between atoms: O_3  and  C_4
REMARK    4  A    between atoms: C_7  and  C_10
REMARK    5  A    between atoms: N_16  and  C_27
REMARK    6  A    between atoms: C_17  and  C_19
REMARK    7  A    between atoms: C_23  and  O_25
REMARK    8  A    between atoms: O_25  and  C_26
REMARK                            x       y       z     vdW  Elec       q    Type
REMARK                         _______ _______ _______ _____ _____    ______ ____
ROOT
ATOM      1  C   UNL     1       1.109  -6.040  -1.847  0.00  0.00    +0.159 C 
ATOM      2  C   UNL     1       0.103  -6.536  -2.856  0.00  0.00    +0.015 C 
ATOM      3  C   UNL     1       0.844  -7.068  -3.852  0.00  0.00    +0.149 C 
ATOM      4  C   UNL     1      -0.075  -7.582  -4.891  0.00  0.00    +0.272 C 
ATOM      5  O   UNL     1       0.276  -8.122  -5.922  0.00  0.00    -0.268 OA
ATOM      6  N   UNL     1      -1.353  -7.367  -4.532  0.00  0.00    -0.255 N 
ATOM      7  C   UNL     1      -1.343  -6.693  -3.227  0.00  0.00    +0.143 C 
ATOM      8  N   UNL     1       2.170  -6.941  -3.545  0.00  0.00    -0.173 NA
ATOM      9  N   UNL     1       2.401  -6.390  -2.463  0.00  0.00    -0.297 N 
ATOM     10  H   UNL     1       3.277  -6.218  -2.085  0.00  0.00    +0.183 HD
ENDROOT
BRANCH   6  11
ATOM     11  C   UNL     1      -2.487  -7.720  -5.270  0.00  0.00    +0.038 A 
ATOM     12  C   UNL     1      -3.754  -7.431  -4.779  0.00  0.00    +0.024 A 
ATOM     13  C   UNL     1      -4.873  -7.780  -5.510  0.00  0.00    +0.017 A 
ATOM     14  C   UNL     1      -4.732  -8.419  -6.730  0.00  0.00    +0.018 A 
ATOM     15  C   UNL     1      -3.472  -8.709  -7.220  0.00  0.00    +0.017 A 
ATOM     16  C   UNL     1      -2.349  -8.357  -6.497  0.00  0.00    +0.024 A 
ATOM     17 BR   UNL     1      -6.266  -8.896  -7.727  0.00  0.00    -0.050 Br
ENDBRANCH   6  11
BRANCH   1  21
ATOM     18  C   UNL     1       0.777  -1.810  -1.336  0.00  0.00    +0.121 A 
ATOM     19  C   UNL     1       0.243  -2.669  -0.386  0.00  0.00    +0.046 A 
ATOM     20  C   UNL     1       0.351  -4.036  -0.554  0.00  0.00    +0.009 A 
ATOM     21  C   UNL     1       0.992  -4.548  -1.667  0.00  0.00    -0.019 A 
ATOM     22  C   UNL     1       1.525  -3.694  -2.615  0.00  0.00    +0.009 A 
ATOM     23  C   UNL     1       1.414  -2.327  -2.455  0.00  0.00    +0.046 A 
BRANCH  18  24
ATOM     24  O   UNL     1       0.671  -0.465  -1.174  0.00  0.00    -0.492 OA
BRANCH  24  26
ATOM     25  C   UNL     1      -0.019   1.526   0.010  0.00  0.00    +0.048 C 
ATOM     26  C   UNL     1       0.002  -0.004   0.002  0.00  0.00    +0.225 C 
ENDBRANCH  24  26
ENDBRANCH  18  24
ENDBRANCH   1  21
BRANCH   7  27
ATOM     27  C   UNL     1      -2.054  -7.538  -2.201  0.00  0.00    -0.019 A 
ATOM     28  C   UNL     1      -1.934  -8.915  -2.238  0.00  0.00    +0.006 A 
ATOM     29  C   UNL     1      -2.585  -9.694  -1.299  0.00  0.00    +0.004 A 
ATOM     30  C   UNL     1      -3.357  -9.097  -0.321  0.00  0.00    +0.045 A 
ATOM     31  C   UNL     1      -3.479  -7.716  -0.282  0.00  0.00    +0.120 A 
ATOM     32  C   UNL     1      -2.820  -6.937  -1.222  0.00  0.00    +0.051 A 
BRANCH  31  33
ATOM     33  O   UNL     1      -4.238  -7.126   0.679  0.00  0.00    -0.495 OA
ATOM     34  C   UNL     1      -4.883  -7.990   1.618  0.00  0.00    +0.277 C 
ENDBRANCH  31  33
ENDBRANCH   7  27
TORSDOF 6
