REMARK  Name = ZINC13129857
REMARK  7 active torsions:
REMARK  status: ('A' for Active; 'I' for Inactive)
REMARK    1  A    between atoms: C_1  and  C_2
REMARK    2  A    between atoms: C_2  and  C_26
REMARK    3  A    between atoms: N_5  and  C_9
REMARK    4  A    between atoms: C_9  and  C_10
REMARK    5  A    between atoms: N_12  and  C_13
REMARK    6  A    between atoms: C_13  and  C_14
REMARK    7  A    between atoms: N_16  and  C_17
REMARK                            x       y       z     vdW  Elec       q    Type
REMARK                         _______ _______ _______ _____ _____    ______ ____
ROOT
ATOM      1  C   UNL     1       8.770  -5.847  -0.422  0.00  0.00    +0.047 C 
ATOM      2  C   UNL     1       7.505  -6.558   0.062  0.00  0.00    +0.135 C 
ATOM      3  C   UNL     1       6.264  -5.901  -0.510  0.00  0.00    +0.251 C 
ATOM      4  O   UNL     1       5.963  -5.798  -1.679  0.00  0.00    -0.272 OA
ATOM      5  N   UNL     1       5.566  -5.454   0.553  0.00  0.00    -0.215 N 
ATOM      6  C   UNL     1       6.183  -5.740   1.705  0.00  0.00    +0.310 C 
ATOM      7  O   UNL     1       5.745  -5.442   2.798  0.00  0.00    -0.252 OA
ATOM      8  N   UNL     1       7.343  -6.395   1.517  0.00  0.00    -0.281 N 
ATOM      9  H   UNL     1       7.954  -6.701   2.206  0.00  0.00    +0.152 HD
ENDROOT
BRANCH   2  10
ATOM     10  C   UNL     1       7.545  -8.018  -0.307  0.00  0.00    -0.015 A 
ATOM     11  C   UNL     1       7.040  -8.429  -1.540  0.00  0.00    +0.007 A 
ATOM     12  C   UNL     1       7.066  -9.739  -1.906  0.00  0.00    +0.009 A 
ATOM     13  C   UNL     1       7.599 -10.697  -1.026  0.00  0.00    -0.018 A 
ATOM     14  C   UNL     1       7.638 -12.059  -1.367  0.00  0.00    +0.008 A 
ATOM     15  C   UNL     1       8.162 -12.959  -0.490  0.00  0.00    +0.001 A 
ATOM     16  C   UNL     1       8.662 -12.549   0.745  0.00  0.00    +0.001 A 
ATOM     17  C   UNL     1       8.641 -11.237   1.109  0.00  0.00    +0.008 A 
ATOM     18  C   UNL     1       8.108 -10.280   0.229  0.00  0.00    -0.018 A 
ATOM     19  C   UNL     1       8.069  -8.917   0.570  0.00  0.00    +0.014 A 
ENDBRANCH   2  10
BRANCH   5  20
ATOM     20  C   UNL     1       4.286  -4.747   0.459  0.00  0.00    +0.213 C 
BRANCH  20  21
ATOM     21  C   UNL     1       4.537  -3.264   0.364  0.00  0.00    +0.231 C 
ATOM     22  O   UNL     1       5.673  -2.840   0.375  0.00  0.00    -0.274 OA
ATOM     23  N   UNL     1       3.499  -2.410   0.268  0.00  0.00    -0.305 N 
ATOM     24  H   UNL     1       2.590  -2.750   0.260  0.00  0.00    +0.149 HD
BRANCH  23  25
ATOM     25  C   UNL     1       3.742  -0.969   0.176  0.00  0.00    +0.200 C 
BRANCH  25  26
ATOM     26  C   UNL     1       2.426  -0.242   0.079  0.00  0.00    +0.234 C 
ATOM     27  O   UNL     1       1.386  -0.866   0.086  0.00  0.00    -0.274 OA
ATOM     28  N   UNL     1       2.404   1.103  -0.015  0.00  0.00    -0.282 N 
ATOM     29  H   UNL     1       3.234   1.597  -0.101  0.00  0.00    +0.155 HD
BRANCH  28  30
ATOM     30  C   UNL     1       1.181   1.787   0.012  0.00  0.00    +0.072 A 
ATOM     31  C   UNL     1       0.077   1.213   0.627  0.00  0.00    +0.029 A 
ATOM     32  C   UNL     1      -1.130   1.885   0.648  0.00  0.00    +0.043 A 
ATOM     33  C   UNL     1      -1.238   3.137   0.065  0.00  0.00    +0.161 A 
ATOM     34  C   UNL     1      -0.138   3.714  -0.551  0.00  0.00    +0.195 A 
ATOM     35  C   UNL     1       1.072   3.041  -0.579  0.00  0.00    +0.182 A 
ATOM     36  F   UNL     1       2.145   3.602  -1.178  0.00  0.00    -0.200 F 
ATOM     37  F   UNL     1      -0.246   4.932  -1.124  0.00  0.00    -0.199 F 
ATOM     38  F   UNL     1      -2.418   3.794   0.091  0.00  0.00    -0.202 F 
ENDBRANCH  28  30
ENDBRANCH  25  26
ENDBRANCH  23  25
ENDBRANCH  20  21
ENDBRANCH   5  20
TORSDOF 6
