REMARK  Name = ZINC36489982
REMARK  8 active torsions:
REMARK  status: ('A' for Active; 'I' for Inactive)
REMARK    1  A    between atoms: C_1  and  C_2
REMARK    2  A    between atoms: C_2  and  C_3
REMARK    3  A    between atoms: C_2  and  N_13
REMARK    4  A    between atoms: C_6  and  S_9
REMARK    5  A    between atoms: S_9  and  N_12
REMARK    6  A    between atoms: C_14  and  C_16
REMARK    7  A    between atoms: C_16  and  N_17
REMARK    8  A    between atoms: C_21  and  C_22
REMARK                            x       y       z     vdW  Elec       q    Type
REMARK                         _______ _______ _______ _____ _____    ______ ____
ROOT
ATOM      1  N   UNL     1       0.711  -0.489   1.189  0.00  0.00    -0.310 N 
ATOM      2  C   UNL     1       2.054  -0.600   1.174  0.00  0.00    +0.197 C 
ATOM      3  O   UNL     1       2.676  -0.297   0.177  0.00  0.00    -0.278 OA
ATOM      4  H   UNL     1       0.213  -0.731   1.986  0.00  0.00    +0.149 HD
ENDROOT
BRANCH   1   6
ATOM      5  C   UNL     1      -0.019   1.526   0.010  0.00  0.00    +0.033 C 
ATOM      6  C   UNL     1       0.002  -0.004   0.002  0.00  0.00    +0.100 C 
BRANCH   6   7
ATOM      7  C   UNL     1      -1.412  -0.526   0.013  0.00  0.00    -0.027 A 
ATOM      8  C   UNL     1      -2.123  -0.571   1.197  0.00  0.00    +0.007 A 
ATOM      9  C   UNL     1      -3.420  -1.049   1.207  0.00  0.00    +0.029 A 
ATOM     10  C   UNL     1      -4.006  -1.482   0.032  0.00  0.00    +0.105 A 
ATOM     11  C   UNL     1      -3.295  -1.436  -1.153  0.00  0.00    +0.029 A 
ATOM     12  C   UNL     1      -2.000  -0.954  -1.163  0.00  0.00    +0.007 A 
BRANCH  10  13
ATOM     13  S   UNL     1      -5.658  -2.093   0.045  0.00  0.00    +0.056 S 
ATOM     14  O   UNL     1      -5.785  -2.944  -1.086  0.00  0.00    -0.153 OA
ATOM     15  O   UNL     1      -5.915  -2.542   1.369  0.00  0.00    -0.153 OA
BRANCH  13  16
ATOM     16  N   UNL     1      -6.660  -0.801  -0.219  0.00  0.00    -0.204 NA
ATOM     17  H   UNL     1      -7.510  -0.930  -0.669  0.00  0.00    +0.144 HD
ATOM     18  H   UNL     1      -6.397   0.085   0.076  0.00  0.00    +0.144 HD
ENDBRANCH  13  16
ENDBRANCH  10  13
ENDBRANCH   6   7
ENDBRANCH   1   6
BRANCH   2  19
ATOM     19  C   UNL     1       2.783  -1.099   2.395  0.00  0.00    +0.019 C 
BRANCH  19  20
ATOM     20  N   UNL     1       4.226  -1.127   2.125  0.00  0.00    +0.390 N 
ATOM     21  C   UNL     1       4.518  -2.131   1.085  0.00  0.00    -0.077 C 
ATOM     22  C   UNL     1       5.492  -3.158   1.700  0.00  0.00    -0.020 C 
ATOM     23  C   UNL     1       6.141  -2.368   2.867  0.00  0.00    -0.013 C 
ATOM     24  C   UNL     1       4.955  -1.501   3.357  0.00  0.00    -0.037 C 
ATOM     25  H   UNL     1       4.532  -0.218   1.813  0.00  0.00    -0.080 HD
BRANCH  24  26
ATOM     26  C   UNL     1       5.461  -0.269   4.061  0.00  0.00    -0.061 A 
ATOM     27  C   UNL     1       5.977   0.784   3.328  0.00  0.00    +0.002 A 
ATOM     28  C   UNL     1       6.441   1.914   3.974  0.00  0.00    +0.000 A 
ATOM     29  C   UNL     1       6.390   1.992   5.353  0.00  0.00    +0.000 A 
ATOM     30  C   UNL     1       5.874   0.940   6.086  0.00  0.00    +0.000 A 
ATOM     31  C   UNL     1       5.405  -0.188   5.440  0.00  0.00    +0.002 A 
ENDBRANCH  24  26
ENDBRANCH  19  20
ENDBRANCH   2  19
TORSDOF 7
