REMARK  Name = ZINC20069289
REMARK  13 active torsions:
REMARK  status: ('A' for Active; 'I' for Inactive)
REMARK    1  A    between atoms: C_1  and  C_2
REMARK    2  A    between atoms: C_2  and  O_3
REMARK    3  A    between atoms: O_3  and  C_4
REMARK    4  A    between atoms: C_4  and  C_6
REMARK    5  A    between atoms: C_7  and  C_34
REMARK    6  A    between atoms: C_9  and  N_33
REMARK    7  A    between atoms: C_10  and  C_31
REMARK    8  A    between atoms: C_11  and  C_13
REMARK    9  A    between atoms: C_15  and  C_30
REMARK   10  A    between atoms: C_17  and  C_20
REMARK   11  A    between atoms: C_18  and  C_19
REMARK   12  A    between atoms: C_20  and  N_21
REMARK   13  A    between atoms: C_24  and  C_26
REMARK                            x       y       z     vdW  Elec       q    Type
REMARK                         _______ _______ _______ _____ _____    ______ ____
ROOT
ATOM      1  C   UNL     1       0.614   3.579  -0.008  0.00  0.00    -0.031 A 
ATOM      2  C   UNL     1      -0.616   4.200   0.111  0.00  0.00    +0.008 A 
ATOM      3  C   UNL     1      -1.728   3.468   0.482  0.00  0.00    -0.050 A 
ATOM      4  C   UNL     1      -1.611   2.112   0.728  0.00  0.00    +0.009 A 
ATOM      5  C   UNL     1      -0.382   1.492   0.615  0.00  0.00    -0.023 A 
ATOM      6  C   UNL     1       0.731   2.225   0.244  0.00  0.00    -0.041 A 
ATOM      7  C   UNL     1       2.071   1.547   0.114  0.00  0.00    +0.044 C 
ATOM      8  C   UNL     1      -3.068   4.145   0.611  0.00  0.00    +0.044 C 
ENDROOT
BRANCH   1  14
ATOM      9  C   UNL     1       2.565   3.649  -1.501  0.00  0.00    +0.087 C 
ATOM     10  C   UNL     1       3.696   2.981  -1.242  0.00  0.00    +0.115 C 
ATOM     11  O   UNL     1       4.228   2.922  -0.013  0.00  0.00    -0.445 OA
ATOM     12  C   UNL     1       3.861   3.830   0.908  0.00  0.00    +0.198 C 
ATOM     13  C   UNL     1       2.726   4.559   0.780  0.00  0.00    +0.098 C 
ATOM     14  C   UNL     1       1.826   4.378  -0.412  0.00  0.00    +0.105 C 
ATOM     15  C   UNL     1       4.396   2.270  -2.372  0.00  0.00    +0.087 C 
BRANCH  12  16
ATOM     16  N   UNL     1       4.658   4.025   2.009  0.00  0.00    -0.328 N 
ATOM     17  H   UNL     1       4.373   4.764   2.771  0.00  0.00    +0.145 HD
ATOM     18  H   UNL     1       5.583   3.442   2.127  0.00  0.00    +0.145 HD
ENDBRANCH  12  16
BRANCH   9  19
ATOM     19  C   UNL     1       2.055   3.670  -2.823  0.00  0.00    +0.339 C 
ATOM     20  O   UNL     1       2.586   3.000  -3.689  0.00  0.00    -0.245 OA
BRANCH  19  21
ATOM     21  O   UNL     1       0.983   4.432  -3.120  0.00  0.00    -0.462 OA
BRANCH  21  23
ATOM     22  C   UNL     1      -0.671   5.340  -4.631  0.00  0.00    +0.048 C 
ATOM     23  C   UNL     1       0.455   4.320  -4.443  0.00  0.00    +0.229 C 
ENDBRANCH  21  23
ENDBRANCH  19  21
ENDBRANCH   9  19
BRANCH  13  24
ATOM     24  C   UNL     1       2.379   5.513   1.791  0.00  0.00    +0.101 C 
ATOM     25  N   UNL     1       2.104   6.269   2.592  0.00  0.00    -0.191 NA
ENDBRANCH  13  24
ENDBRANCH   1  14
BRANCH   5  26
ATOM     26  C   UNL     1      -0.254   0.016   0.889  0.00  0.00    +0.178 C 
BRANCH  26  27
ATOM     27  N   UNL     1       0.195  -0.188   2.269  0.00  0.00    -0.267 N 
ATOM     28  C   UNL     1      -0.454  -0.893   3.219  0.00  0.00    +0.109 A 
ATOM     29  C   UNL     1       0.288  -0.843   4.349  0.00  0.00    +0.053 A 
ATOM     30  C   UNL     1       1.425  -0.073   4.083  0.00  0.00    +0.165 A 
ATOM     31  N   UNL     1       1.370   0.321   2.837  0.00  0.00    -0.167 NA
BRANCH  30  32
ATOM     32  C   UNL     1       2.523   0.249   5.064  0.00  0.00    +0.436 C 
ATOM     33  F   UNL     1       3.385   1.199   4.504  0.00  0.00    -0.164 F 
ATOM     34  F   UNL     1       1.964   0.762   6.239  0.00  0.00    -0.164 F 
ATOM     35  F   UNL     1       3.241  -0.915   5.359  0.00  0.00    -0.164 F 
ENDBRANCH  30  32
ENDBRANCH  26  27
ENDBRANCH   5  26
TORSDOF 9
