REMARK  Name = ZINC18266111
REMARK  6 active torsions:
REMARK  status: ('A' for Active; 'I' for Inactive)
REMARK    1  A    between atoms: C_1  and  C_2
REMARK    2  A    between atoms: C_10  and  C_20
REMARK    3  A    between atoms: C_12  and  C_16
REMARK    4  A    between atoms: C_13  and  N_15
REMARK    5  A    between atoms: C_16  and  O_18
REMARK    6  A    between atoms: O_18  and  C_19
REMARK                            x       y       z     vdW  Elec       q    Type
REMARK                         _______ _______ _______ _____ _____    ______ ____
ROOT
ATOM      1  C   UNL     1      -0.558  -1.337   0.753  0.00  0.00    +0.063 C 
ATOM      2  C   UNL     1       0.568  -0.367   0.499  0.00  0.00    +0.019 A 
ATOM      3  C   UNL     1       0.311   0.958   0.467  0.00  0.00    +0.067 A 
ATOM      4  C   UNL     1       1.361   1.869   0.230  0.00  0.00    +0.141 A 
ATOM      5  C   UNL     1       2.635   1.383   0.034  0.00  0.00    +0.071 A 
ATOM      6  C   UNL     1       2.854  -0.000   0.075  0.00  0.00    +0.257 A 
ATOM      7  O   UNL     1       3.978  -0.445  -0.098  0.00  0.00    -0.267 OA
ATOM      8  N   UNL     1       1.827  -0.839   0.305  0.00  0.00    -0.326 N 
ATOM      9  H   UNL     1       1.989  -1.795   0.333  0.00  0.00    +0.169 HD
ATOM     10  C   UNL     1       3.784   2.319  -0.224  0.00  0.00    +0.100 C 
ATOM     11  C   UNL     1       3.408   3.721   0.168  0.00  0.00    +0.105 C 
ATOM     12  C   UNL     1       2.111   4.074   0.355  0.00  0.00    +0.195 C 
ATOM     13  O   UNL     1       1.107   3.195   0.201  0.00  0.00    -0.441 OA
ENDROOT
BRANCH  10  14
ATOM     14  C   UNL     1       4.136   2.287  -1.689  0.00  0.00    -0.035 A 
ATOM     15  C   UNL     1       3.192   2.640  -2.634  0.00  0.00    +0.004 A 
ATOM     16  C   UNL     1       3.516   2.615  -3.978  0.00  0.00    +0.000 A 
ATOM     17  C   UNL     1       4.782   2.228  -4.377  0.00  0.00    +0.000 A 
ATOM     18  C   UNL     1       5.724   1.870  -3.431  0.00  0.00    +0.000 A 
ATOM     19  C   UNL     1       5.402   1.899  -2.087  0.00  0.00    +0.004 A 
ENDBRANCH  10  14
BRANCH  12  20
ATOM     20  N   UNL     1       1.817   5.362   0.712  0.00  0.00    -0.329 N 
ATOM     21  H   UNL     1       1.017   5.790   0.370  0.00  0.00    +0.145 HD
ATOM     22  H   UNL     1       2.410   5.848   1.307  0.00  0.00    +0.145 HD
ENDBRANCH  12  20
BRANCH  11  23
ATOM     23  C   UNL     1       4.415   4.681   0.344  0.00  0.00    +0.341 C 
ATOM     24  O   UNL     1       4.119   5.844   0.550  0.00  0.00    -0.245 OA
BRANCH  23  25
ATOM     25  O   UNL     1       5.714   4.316   0.285  0.00  0.00    -0.465 OA
ATOM     26  C   UNL     1       6.687   5.345   0.473  0.00  0.00    +0.280 C 
ENDBRANCH  23  25
ENDBRANCH  11  23
TORSDOF 4
