REMARK  Name = ZINC25719052
REMARK  5 active torsions:
REMARK  status: ('A' for Active; 'I' for Inactive)
REMARK    1  A    between atoms: C_3  and  O_31
REMARK    2  A    between atoms: C_4  and  C_12
REMARK    3  A    between atoms: C_12  and  N_13
REMARK    4  A    between atoms: N_16  and  S_19
REMARK    5  A    between atoms: S_19  and  C_22
REMARK                            x       y       z     vdW  Elec       q    Type
REMARK                         _______ _______ _______ _____ _____    ______ ____
ROOT
ATOM      1  N   UNL     1      -2.502  -0.912  -1.363  0.00  0.00    -0.295 NA
ATOM      2  C   UNL     1      -3.753  -0.534  -2.034  0.00  0.00    +0.102 C 
ATOM      3  C   UNL     1      -3.661  -0.894  -3.521  0.00  0.00    +0.125 C 
ATOM      4  N   UNL     1      -3.298  -2.314  -3.636  0.00  0.00    -0.174 NA
ATOM      5  C   UNL     1      -2.132  -2.798  -2.881  0.00  0.00    +0.125 C 
ATOM      6  C   UNL     1      -2.285  -2.364  -1.419  0.00  0.00    +0.102 C 
ENDROOT
BRANCH   4   7
ATOM      7  S   UNL     1      -4.178  -3.341  -4.591  0.00  0.00    +0.064 S 
ATOM      8  O   UNL     1      -4.822  -2.536  -5.569  0.00  0.00    -0.153 OA
ATOM      9  O   UNL     1      -3.313  -4.415  -4.938  0.00  0.00    -0.153 OA
BRANCH   7  10
ATOM     10  C   UNL     1      -5.452  -4.026  -3.585  0.00  0.00    +0.144 A 
ATOM     11  C   UNL     1      -6.777  -3.738  -3.857  0.00  0.00    +0.034 A 
ATOM     12  C   UNL     1      -7.778  -4.278  -3.071  0.00  0.00    +0.043 A 
ATOM     13  C   UNL     1      -7.455  -5.098  -2.004  0.00  0.00    +0.161 A 
ATOM     14  C   UNL     1      -6.128  -5.383  -1.727  0.00  0.00    +0.195 A 
ATOM     15  C   UNL     1      -5.125  -4.846  -2.519  0.00  0.00    +0.187 A 
ATOM     16  F   UNL     1      -3.831  -5.122  -2.251  0.00  0.00    -0.200 F 
ATOM     17  F   UNL     1      -5.811  -6.184  -0.685  0.00  0.00    -0.199 F 
ATOM     18  F   UNL     1      -8.434  -5.621  -1.233  0.00  0.00    -0.202 F 
ENDBRANCH   7  10
ENDBRANCH   4   7
BRANCH   1  19
ATOM     19  C   UNL     1      -2.482  -0.430   0.024  0.00  0.00    +0.124 C 
BRANCH  19  23
ATOM     20  C   UNL     1      -2.461   3.875   0.047  0.00  0.00    +0.012 A 
ATOM     21  C   UNL     1      -3.629   3.178   0.055  0.00  0.00    +0.046 A 
ATOM     22  C   UNL     1      -3.632   1.780   0.047  0.00  0.00    +0.122 A 
ATOM     23  C   UNL     1      -2.461   1.077   0.032  0.00  0.00    +0.016 A 
ATOM     24  C   UNL     1      -1.238   1.766   0.018  0.00  0.00    -0.010 A 
ATOM     25  C   UNL     1      -1.237   3.183   0.031  0.00  0.00    -0.016 A 
ATOM     26  C   UNL     1      -0.012   3.872   0.023  0.00  0.00    +0.023 A 
ATOM     27  C   UNL     1       1.155   3.170   0.008  0.00  0.00    +0.018 A 
ATOM     28  C   UNL     1       1.154   1.776   0.001  0.00  0.00    +0.016 A 
ATOM     29  C   UNL     1      -0.013   1.076   0.008  0.00  0.00    +0.010 A 
ATOM     30 BR   UNL     1       2.801   4.101  -0.002  0.00  0.00    -0.050 Br
BRANCH  22  31
ATOM     31  O   UNL     1      -4.815   1.112   0.055  0.00  0.00    -0.506 OA
ATOM     32  H   UNL     1      -4.826   0.012   0.049  0.00  0.00    +0.292 HD
ENDBRANCH  22  31
ENDBRANCH  19  23
ENDBRANCH   1  19
TORSDOF 5
