REMARK  Name = ZINC22533455
REMARK  11 active torsions:
REMARK  status: ('A' for Active; 'I' for Inactive)
REMARK    1  A    between atoms: C_1  and  C_2
REMARK    2  A    between atoms: C_2  and  O_3
REMARK    3  A    between atoms: O_3  and  C_4
REMARK    4  A    between atoms: C_4  and  C_6
REMARK    5  A    between atoms: C_9  and  N_13
REMARK    6  A    between atoms: C_14  and  C_16
REMARK    7  A    between atoms: C_16  and  O_17
REMARK    8  A    between atoms: O_17  and  C_18
REMARK    9  A    between atoms: C_21  and  C_25
REMARK   10  A    between atoms: C_25  and  C_26
REMARK   11  A    between atoms: C_25  and  C_27
REMARK                            x       y       z     vdW  Elec       q    Type
REMARK                         _______ _______ _______ _____ _____    ______ ____
ROOT
ATOM      1  N   UNL     1       3.910  -2.192  -0.049  0.00  0.00    -0.281 N 
ATOM      2  C   UNL     1       3.713  -0.859  -0.042  0.00  0.00    +0.255 C 
ATOM      3  O   UNL     1       4.664  -0.105  -0.039  0.00  0.00    -0.272 OA
ATOM      4  H   UNL     1       3.053  -2.875   0.040  0.00  0.00    +0.155 HD
ENDROOT
BRANCH   1   8
ATOM      5  C   UNL     1       7.767  -3.726  -0.409  0.00  0.00    +0.060 A 
ATOM      6  C   UNL     1       7.470  -2.452  -0.903  0.00  0.00    +0.017 A 
ATOM      7  C   UNL     1       6.195  -1.949  -0.783  0.00  0.00    +0.025 A 
ATOM      8  C   UNL     1       5.201  -2.706  -0.170  0.00  0.00    +0.052 A 
ATOM      9  C   UNL     1       5.494  -3.972   0.328  0.00  0.00    +0.063 A 
ATOM     10  C   UNL     1       6.767  -4.484   0.206  0.00  0.00    +0.036 A 
ATOM     11 CL   UNL     1       4.253  -4.910   1.099  0.00  0.00    -0.082 Cl
BRANCH   5  12
ATOM     12  C   UNL     1       9.133  -4.268  -0.537  0.00  0.00    +0.339 C 
ATOM     13  O   UNL     1      10.001  -3.607  -1.072  0.00  0.00    -0.245 OA
BRANCH  12  14
ATOM     14  O   UNL     1       9.418  -5.495  -0.060  0.00  0.00    -0.461 OA
BRANCH  14  16
ATOM     15  C   UNL     1      10.913  -7.367   0.378  0.00  0.00    +0.048 C 
ATOM     16  C   UNL     1      10.782  -5.965  -0.220  0.00  0.00    +0.229 C 
ENDBRANCH  14  16
ENDBRANCH  12  14
ENDBRANCH   5  12
ENDBRANCH   1   8
BRANCH   2  17
ATOM     17  C   UNL     1       2.312  -0.304  -0.037  0.00  0.00    +0.324 C 
BRANCH  17  18
ATOM     18  O   UNL     1       2.365   1.124  -0.029  0.00  0.00    -0.482 OA
BRANCH  18  19
ATOM     19  C   UNL     1       1.178   1.786  -0.024  0.00  0.00    +0.135 A 
ATOM     20  C   UNL     1      -0.013   1.075  -0.026  0.00  0.00    +0.047 A 
ATOM     21  C   UNL     1      -1.219   1.750  -0.027  0.00  0.00    +0.007 A 
ATOM     22  C   UNL     1      -1.239   3.133  -0.015  0.00  0.00    -0.044 A 
ATOM     23  C   UNL     1      -0.053   3.844  -0.012  0.00  0.00    +0.022 A 
ATOM     24  C   UNL     1       1.156   3.174  -0.017  0.00  0.00    +0.060 A 
ATOM     25 BR   UNL     1       2.777   4.146  -0.015  0.00  0.00    -0.047 Br
BRANCH  22  26
ATOM     26  C   UNL     1      -2.555   3.866  -0.010  0.00  0.00    +0.013 C 
ATOM     27  C   UNL     1      -3.353   3.490  -1.260  0.00  0.00    +0.012 C 
ATOM     28  C   UNL     1      -3.351   3.478   1.238  0.00  0.00    +0.012 C 
ENDBRANCH  22  26
ENDBRANCH  18  19
ENDBRANCH  17  18
ENDBRANCH   2  17
TORSDOF 8
