REMARK  Name = ZINC03457549
REMARK  9 active torsions:
REMARK  status: ('A' for Active; 'I' for Inactive)
REMARK    1  A    between atoms: C_1  and  N_52
REMARK    2  A    between atoms: C_2  and  C_3
REMARK    3  A    between atoms: C_2  and  N_52
REMARK    4  A    between atoms: N_5  and  C_6
REMARK    5  A    between atoms: C_11  and  S_12
REMARK    6  A    between atoms: S_12  and  C_13
REMARK    7  A    between atoms: C_19  and  C_20
REMARK    8  A    between atoms: C_19  and  N_52
REMARK    9  A    between atoms: N_22  and  C_23
REMARK                            x       y       z     vdW  Elec       q    Type
REMARK                         _______ _______ _______ _____ _____    ______ ____
ROOT
ATOM      1  C   UNL     1       3.735   7.796   0.835  0.00  0.00    +0.019 C 
ENDROOT
BRANCH   1   2
ATOM      2  C   UNL     1       5.138   8.200   0.463  0.00  0.00    +0.201 C 
ATOM      3  O   UNL     1       6.001   7.355   0.343  0.00  0.00    -0.278 OA
ATOM      4  N   UNL     1       5.436   9.499   0.265  0.00  0.00    -0.286 N 
ATOM      5  H   UNL     1       4.758  10.179   0.408  0.00  0.00    +0.155 HD
BRANCH   4   6
ATOM      6  C   UNL     1       6.723   9.868  -0.148  0.00  0.00    +0.047 A 
ATOM      7  C   UNL     1       7.747   8.934  -0.151  0.00  0.00    +0.024 A 
ATOM      8  C   UNL     1       9.016   9.300  -0.560  0.00  0.00    +0.002 A 
ATOM      9  C   UNL     1       9.268  10.598  -0.967  0.00  0.00    +0.001 A 
ATOM     10  C   UNL     1       8.254  11.536  -0.967  0.00  0.00    +0.017 A 
ATOM     11  C   UNL     1       6.976  11.176  -0.563  0.00  0.00    +0.034 A 
BRANCH  11  12
ATOM     12  S   UNL     1       5.679  12.368  -0.570  0.00  0.00    -0.088 S 
BRANCH  12  13
ATOM     13  C   UNL     1       4.762  11.994  -2.027  0.00  0.00    +0.013 A 
ATOM     14  C   UNL     1       5.107  10.893  -2.803  0.00  0.00    +0.015 A 
ATOM     15  C   UNL     1       4.383  10.599  -3.941  0.00  0.00    +0.001 A 
ATOM     16  C   UNL     1       3.323  11.405  -4.316  0.00  0.00    +0.000 A 
ATOM     17  C   UNL     1       2.981  12.505  -3.550  0.00  0.00    +0.001 A 
ATOM     18  C   UNL     1       3.697  12.801  -2.407  0.00  0.00    +0.015 A 
ENDBRANCH  12  13
ENDBRANCH  11  12
ENDBRANCH   4   6
ENDBRANCH   1   2
BRANCH   1  20
ATOM     19  C   UNL     1       4.476   5.896   2.140  0.00  0.00    -0.095 C 
ATOM     20  N   UNL     1       3.682   6.325   0.970  0.00  0.00    +0.389 N 
ATOM     21  H   UNL     1       4.077   5.898   0.124  0.00  0.00    -0.081 HD
BRANCH  20  22
ATOM     22  C   UNL     1       2.280   5.882   1.121  0.00  0.00    +0.019 C 
BRANCH  22  23
ATOM     23  C   UNL     1       2.234   4.378   1.036  0.00  0.00    +0.201 C 
ATOM     24  O   UNL     1       3.259   3.747   0.883  0.00  0.00    -0.278 OA
ATOM     25  N   UNL     1       1.054   3.733   1.129  0.00  0.00    -0.285 N 
ATOM     26  H   UNL     1       0.228   4.239   1.179  0.00  0.00    +0.155 HD
BRANCH  25  27
ATOM     27  C   UNL     1       1.020   2.333   1.153  0.00  0.00    +0.072 A 
ATOM     28  C   UNL     1       1.952   1.603   0.427  0.00  0.00    +0.029 A 
ATOM     29  C   UNL     1       1.919   0.222   0.452  0.00  0.00    +0.043 A 
ATOM     30  C   UNL     1       0.956  -0.437   1.198  0.00  0.00    +0.161 A 
ATOM     31  C   UNL     1       0.023   0.288   1.923  0.00  0.00    +0.195 A 
ATOM     32  C   UNL     1       0.054   1.673   1.902  0.00  0.00    +0.182 A 
ATOM     33  F   UNL     1      -0.858   2.380   2.604  0.00  0.00    -0.200 F 
ATOM     34  F   UNL     1      -0.916  -0.356   2.650  0.00  0.00    -0.199 F 
ATOM     35  F   UNL     1       0.925  -1.787   1.218  0.00  0.00    -0.202 F 
ENDBRANCH  25  27
ENDBRANCH  22  23
ENDBRANCH  20  22
ENDBRANCH   1  20
TORSDOF 8
