REMARK  Name = ZINC00657476
REMARK  9 active torsions:
REMARK  status: ('A' for Active; 'I' for Inactive)
REMARK    1  A    between atoms: C_1  and  C_2
REMARK    2  A    between atoms: C_5  and  C_8
REMARK    3  A    between atoms: C_8  and  O_9
REMARK    4  A    between atoms: O_9  and  C_10
REMARK    5  A    between atoms: C_14  and  C_16
REMARK    6  A    between atoms: N_17  and  N_18
REMARK    7  A    between atoms: N_18  and  S_19
REMARK    8  A    between atoms: S_19  and  C_22
REMARK    9  A    between atoms: C_25  and  C_28
REMARK                            x       y       z     vdW  Elec       q    Type
REMARK                         _______ _______ _______ _____ _____    ______ ____
ROOT
ATOM      1  C   UNL     1      -2.916   2.996   1.558  0.00  0.00    +0.122 A 
ATOM      2  C   UNL     1      -3.659   3.415   0.462  0.00  0.00    +0.046 A 
ATOM      3  C   UNL     1      -4.856   4.083   0.645  0.00  0.00    +0.004 A 
ATOM      4  C   UNL     1      -5.319   4.339   1.919  0.00  0.00    +0.010 A 
ATOM      5  C   UNL     1      -4.579   3.922   3.028  0.00  0.00    -0.002 A 
ATOM      6  C   UNL     1      -3.374   3.242   2.840  0.00  0.00    +0.055 A 
ENDROOT
BRANCH   5   7
ATOM      7  C   UNL     1      -5.071   4.194   4.392  0.00  0.00    +0.139 C 
ATOM      8  N   UNL     1      -6.193   4.822   4.563  0.00  0.00    -0.174 NA
BRANCH   8   9
ATOM      9  N   UNL     1      -6.661   5.080   5.859  0.00  0.00    -0.137 N 
ATOM     10  H   UNL     1      -6.145   4.790   6.627  0.00  0.00    +0.197 HD
BRANCH   9  11
ATOM     11  S   UNL     1      -8.093   5.882   6.077  0.00  0.00    +0.086 S 
ATOM     12  O   UNL     1      -8.361   5.861   7.473  0.00  0.00    -0.149 OA
ATOM     13  O   UNL     1      -7.999   7.091   5.338  0.00  0.00    -0.149 OA
BRANCH  11  14
ATOM     14  C   UNL     1      -9.352   4.918   5.309  0.00  0.00    +0.110 A 
ATOM     15  C   UNL     1      -9.676   5.135   3.983  0.00  0.00    +0.029 A 
ATOM     16  C   UNL     1     -10.661   4.375   3.378  0.00  0.00    +0.005 A 
ATOM     17  C   UNL     1     -11.328   3.406   4.103  0.00  0.00    -0.050 A 
ATOM     18  C   UNL     1     -11.008   3.192   5.431  0.00  0.00    +0.005 A 
ATOM     19  C   UNL     1     -10.020   3.948   6.034  0.00  0.00    +0.029 A 
ATOM     20  C   UNL     1     -12.405   2.581   3.446  0.00  0.00    +0.044 C 
ENDBRANCH  11  14
ENDBRANCH   9  11
ENDBRANCH   8   9
ENDBRANCH   5   7
BRANCH   1  21
ATOM     21  O   UNL     1      -1.741   2.339   1.370  0.00  0.00    -0.487 OA
BRANCH  21  22
ATOM     22  C   UNL     1      -1.332   2.114   0.020  0.00  0.00    +0.264 C 
BRANCH  22  27
ATOM     23  C   UNL     1       3.711  -0.707  -0.038  0.00  0.00    +0.044 C 
ATOM     24  C   UNL     1       2.396   0.029  -0.022  0.00  0.00    -0.050 A 
ATOM     25  C   UNL     1       1.208  -0.679  -0.013  0.00  0.00    +0.004 A 
ATOM     26  C   UNL     1       0.002  -0.004   0.002  0.00  0.00    +0.007 A 
ATOM     27  C   UNL     1      -0.017   1.378   0.010  0.00  0.00    -0.010 A 
ATOM     28  C   UNL     1       1.171   2.086   0.002  0.00  0.00    +0.007 A 
ATOM     29  C   UNL     1       2.377   1.411  -0.015  0.00  0.00    +0.004 A 
ENDBRANCH  22  27
ENDBRANCH  21  22
ENDBRANCH   1  21
TORSDOF 7
