REMARK  Name = ZINC01047479
REMARK  12 active torsions:
REMARK  status: ('A' for Active; 'I' for Inactive)
REMARK    1  A    between atoms: C_1  and  C_2
REMARK    2  A    between atoms: C_2  and  C_3
REMARK    3  A    between atoms: C_2  and  C_4
REMARK    4  A    between atoms: C_2  and  C_5
REMARK    5  A    between atoms: C_8  and  C_11
REMARK    6  A    between atoms: N_14  and  C_16
REMARK    7  A    between atoms: C_16  and  C_17
REMARK    8  A    between atoms: N_19  and  N_20
REMARK    9  A    between atoms: N_20  and  S_21
REMARK   10  A    between atoms: S_21  and  C_24
REMARK   11  A    between atoms: C_26  and  C_34
REMARK   12  A    between atoms: C_28  and  C_30
REMARK                            x       y       z     vdW  Elec       q    Type
REMARK                         _______ _______ _______ _____ _____    ______ ____
ROOT
ATOM      1  C   UNL     1       3.879   4.368  -3.115  0.00  0.00    +0.251 C 
ATOM      2  O   UNL     1       5.032   4.722  -2.991  0.00  0.00    -0.272 OA
ATOM      3  N   UNL     1       3.430   3.287  -2.447  0.00  0.00    -0.230 N 
ATOM      4  H   UNL     1       2.507   3.004  -2.546  0.00  0.00    +0.171 HD
ENDROOT
BRANCH   3   5
ATOM      5  N   UNL     1       4.296   2.570  -1.611  0.00  0.00    -0.108 NA
ATOM      6  H   UNL     1       5.133   2.226  -1.960  0.00  0.00    +0.172 HD
BRANCH   5   7
ATOM      7  S   UNL     1       3.891   2.312  -0.026  0.00  0.00    +0.074 S 
ATOM      8  O   UNL     1       3.608   3.588   0.534  0.00  0.00    -0.152 OA
ATOM      9  O   UNL     1       4.883   1.448   0.511  0.00  0.00    -0.152 OA
BRANCH   7  10
ATOM     10  C   UNL     1       2.377   1.411  -0.015  0.00  0.00    +0.108 A 
ATOM     11  C   UNL     1       1.171   2.086   0.002  0.00  0.00    +0.041 A 
ATOM     12  C   UNL     1      -0.017   1.378   0.010  0.00  0.00    +0.057 A 
ATOM     13  C   UNL     1       0.002  -0.004   0.002  0.00  0.00    +0.024 A 
ATOM     14  C   UNL     1       1.208  -0.679  -0.013  0.00  0.00    +0.057 A 
ATOM     15  C   UNL     1       2.396   0.029  -0.022  0.00  0.00    +0.041 A 
BRANCH  14  16
ATOM     16  C   UNL     1       1.229  -2.186  -0.021  0.00  0.00    +0.417 C 
ATOM     17  F   UNL     1      -0.084  -2.670  -0.011  0.00  0.00    -0.166 F 
ATOM     18  F   UNL     1       1.883  -2.637  -1.172  0.00  0.00    -0.166 F 
ATOM     19  F   UNL     1       1.906  -2.649   1.112  0.00  0.00    -0.166 F 
ENDBRANCH  14  16
BRANCH  12  20
ATOM     20  C   UNL     1      -1.332   2.114   0.020  0.00  0.00    +0.417 C 
ATOM     21  F   UNL     1      -2.383   1.190   0.020  0.00  0.00    -0.166 F 
ATOM     22  F   UNL     1      -1.411   2.911   1.167  0.00  0.00    -0.166 F 
ATOM     23  F   UNL     1      -1.422   2.923  -1.118  0.00  0.00    -0.166 F 
ENDBRANCH  12  20
ENDBRANCH   7  10
ENDBRANCH   5   7
ENDBRANCH   3   5
BRANCH   1  24
ATOM     24  C   UNL     1       2.947   5.139  -4.014  0.00  0.00    +0.265 C 
BRANCH  24  28
ATOM     25  C   UNL     1       4.485   8.176  -4.943  0.00  0.00    +0.205 A 
ATOM     26  N   UNL     1       4.825   7.379  -5.966  0.00  0.00    -0.108 NA
ATOM     27  N   UNL     1       4.310   6.219  -5.735  0.00  0.00    -0.045 NA
ATOM     28  N   UNL     1       3.669   6.261  -4.619  0.00  0.00    -0.154 N 
ATOM     29  N   UNL     1       3.758   7.446  -4.121  0.00  0.00    -0.130 NA
BRANCH  25  33
ATOM     30  C   UNL     1       5.532  12.269  -4.455  0.00  0.00    -0.042 A 
ATOM     31  C   UNL     1       5.962  11.576  -5.572  0.00  0.00    +0.005 A 
ATOM     32  C   UNL     1       5.625  10.247  -5.735  0.00  0.00    +0.012 A 
ATOM     33  C   UNL     1       4.851   9.604  -4.772  0.00  0.00    +0.023 A 
ATOM     34  C   UNL     1       4.416  10.308  -3.652  0.00  0.00    +0.012 A 
ATOM     35  C   UNL     1       4.762  11.635  -3.496  0.00  0.00    +0.005 A 
BRANCH  30  37
ATOM     36  C   UNL     1       5.352  14.530  -5.456  0.00  0.00    +0.015 C 
ATOM     37  C   UNL     1       5.903  13.719  -4.282  0.00  0.00    -0.013 C 
ATOM     38  C   UNL     1       5.307  14.245  -2.974  0.00  0.00    +0.015 C 
ATOM     39  C   UNL     1       7.427  13.854  -4.238  0.00  0.00    +0.015 C 
ENDBRANCH  30  37
ENDBRANCH  25  33
ENDBRANCH  24  28
ENDBRANCH   1  24
TORSDOF 9
