REMARK  Name = ZINC35759114
REMARK  9 active torsions:
REMARK  status: ('A' for Active; 'I' for Inactive)
REMARK    1  A    between atoms: C_1  and  C_2
REMARK    2  A    between atoms: C_2  and  C_3
REMARK    3  A    between atoms: C_3  and  C_4
REMARK    4  A    between atoms: C_4  and  C_5
REMARK    5  A    between atoms: C_8  and  C_11
REMARK    6  A    between atoms: N_21  and  C_30
REMARK    7  A    between atoms: N_23  and  C_24
REMARK    8  A    between atoms: C_30  and  C_31
REMARK    9  A    between atoms: N_33  and  C_34
REMARK                            x       y       z     vdW  Elec       q    Type
REMARK                         _______ _______ _______ _____ _____    ______ ____
ROOT
ATOM      1  C   UNL     1       2.938  -3.781   5.623  0.00  0.00    +0.247 C 
ATOM      2  O   UNL     1       2.216  -3.327   4.757  0.00  0.00    -0.270 OA
ATOM      3  N   UNL     1       2.414  -4.168   6.803  0.00  0.00    -0.297 N 
ATOM      4  C   UNL     1       0.968  -4.070   7.049  0.00  0.00    +0.110 C 
ATOM      5  C   UNL     1       0.450  -5.440   7.495  0.00  0.00    +0.054 C 
ATOM      6  C   UNL     1       1.265  -5.925   8.694  0.00  0.00    +0.115 C 
ATOM      7  C   UNL     1       2.738  -6.062   8.308  0.00  0.00    +0.054 C 
ATOM      8  C   UNL     1       3.276  -4.702   7.866  0.00  0.00    +0.110 C 
ATOM      9  C   UNL     1       0.733  -7.248   9.180  0.00  0.00    +0.241 C 
ATOM     10  O   UNL     1       0.687  -8.270   8.529  0.00  0.00    -0.273 OA
ATOM     11  N   UNL     1       0.319  -7.114  10.451  0.00  0.00    -0.275 N 
ATOM     12  C   UNL     1       0.528  -5.741  10.911  0.00  0.00    +0.217 C 
ATOM     13  N   UNL     1       1.127  -4.979   9.808  0.00  0.00    -0.300 N 
ENDROOT
BRANCH   1  17
ATOM     14  C   UNL     1       7.112  -4.151   4.930  0.00  0.00    -0.047 A 
ATOM     15  C   UNL     1       6.653  -3.739   6.169  0.00  0.00    +0.004 A 
ATOM     16  C   UNL     1       5.299  -3.616   6.400  0.00  0.00    +0.013 A 
ATOM     17  C   UNL     1       4.391  -3.910   5.382  0.00  0.00    +0.037 A 
ATOM     18  C   UNL     1       4.860  -4.325   4.135  0.00  0.00    +0.013 A 
ATOM     19  C   UNL     1       6.217  -4.437   3.914  0.00  0.00    +0.004 A 
BRANCH  14  20
ATOM     20  C   UNL     1       8.593  -4.282   4.684  0.00  0.00    +0.035 C 
BRANCH  20  21
ATOM     21  C   UNL     1       9.144  -2.951   4.169  0.00  0.00    +0.004 C 
BRANCH  21  23
ATOM     22  C   UNL     1      11.199  -1.753   3.404  0.00  0.00    +0.004 C 
ATOM     23  C   UNL     1      10.648  -3.084   3.920  0.00  0.00    -0.003 C 
ENDBRANCH  21  23
ENDBRANCH  20  21
ENDBRANCH  14  20
ENDBRANCH   1  17
BRANCH  13  24
ATOM     24  C   UNL     1       1.491  -3.630   9.817  0.00  0.00    +0.032 A 
ATOM     25  C   UNL     1       2.119  -3.071   8.711  0.00  0.00    +0.023 A 
ATOM     26  C   UNL     1       2.477  -1.737   8.724  0.00  0.00    +0.002 A 
ATOM     27  C   UNL     1       2.211  -0.959   9.835  0.00  0.00    +0.000 A 
ATOM     28  C   UNL     1       1.586  -1.512  10.938  0.00  0.00    +0.002 A 
ATOM     29  C   UNL     1       1.220  -2.844  10.930  0.00  0.00    +0.023 A 
ENDBRANCH  13  24
BRANCH  11  30
ATOM     30  C   UNL     1      -0.261  -8.189  11.260  0.00  0.00    +0.205 C 
BRANCH  30  31
ATOM     31  C   UNL     1       0.837  -8.910  11.999  0.00  0.00    +0.231 C 
ATOM     32  O   UNL     1       1.990  -8.560  11.862  0.00  0.00    -0.274 OA
ATOM     33  N   UNL     1       0.537  -9.943  12.810  0.00  0.00    -0.311 N 
ATOM     34  H   UNL     1      -0.385 -10.223  12.919  0.00  0.00    +0.149 HD
BRANCH  33  35
ATOM     35  C   UNL     1       1.605 -10.644  13.528  0.00  0.00    +0.073 C 
ATOM     36  C   UNL     1       2.207 -11.720  12.623  0.00  0.00    +0.022 C 
ATOM     37  C   UNL     1       3.321 -12.452  13.373  0.00  0.00    +0.002 C 
ATOM     38  C   UNL     1       2.746 -13.107  14.630  0.00  0.00    +0.000 C 
ATOM     39  C   UNL     1       2.144 -12.030  15.536  0.00  0.00    +0.002 C 
ATOM     40  C   UNL     1       1.029 -11.298  14.786  0.00  0.00    +0.022 C 
ENDBRANCH  33  35
ENDBRANCH  30  31
ENDBRANCH  11  30
TORSDOF 8
