REMARK  Name = ZINC25266923
REMARK  6 active torsions:
REMARK  status: ('A' for Active; 'I' for Inactive)
REMARK    1  A    between atoms: C_1  and  N_2
REMARK    2  A    between atoms: N_9  and  C_12
REMARK    3  A    between atoms: C_12  and  C_13
REMARK    4  A    between atoms: N_15  and  C_16
REMARK    5  A    between atoms: C_21  and  S_22
REMARK    6  A    between atoms: S_22  and  C_23
REMARK                            x       y       z     vdW  Elec       q    Type
REMARK                         _______ _______ _______ _____ _____    ______ ____
ROOT
ATOM      1  C   UNL     1      -1.259   5.902  -0.057  0.00  0.00    +0.237 C 
ATOM      2  O   UNL     1      -2.301   5.281  -0.051  0.00  0.00    -0.274 OA
ATOM      3  N   UNL     1      -0.084   5.248   0.030  0.00  0.00    -0.283 N 
ATOM      4  H   UNL     1       0.855   5.814   0.116  0.00  0.00    +0.155 HD
ENDROOT
BRANCH   3   5
ATOM      5  C   UNL     1      -0.059   3.847   0.011  0.00  0.00    +0.047 A 
ATOM      6  C   UNL     1      -1.090   3.141  -0.590  0.00  0.00    +0.024 A 
ATOM      7  C   UNL     1      -1.060   1.759  -0.612  0.00  0.00    +0.002 A 
ATOM      8  C   UNL     1      -0.010   1.076  -0.026  0.00  0.00    +0.001 A 
ATOM      9  C   UNL     1       1.022   1.771   0.576  0.00  0.00    +0.016 A 
ATOM     10  C   UNL     1       1.004   3.159   0.598  0.00  0.00    +0.029 A 
BRANCH  10  11
ATOM     11  S   UNL     1       2.317   4.048   1.364  0.00  0.00    -0.120 S 
BRANCH  11  12
ATOM     12  C   UNL     1       3.433   2.750   1.967  0.00  0.00    +0.051 C 
ATOM     13  C   UNL     1       2.751   1.951   3.097  0.00  0.00    +0.014 C 
ATOM     14  C   UNL     1       3.900   1.645   4.091  0.00  0.00    +0.001 C 
ATOM     15  C   UNL     1       4.741   2.946   4.053  0.00  0.00    +0.001 C 
ATOM     16  C   UNL     1       4.697   3.382   2.575  0.00  0.00    +0.014 C 
ENDBRANCH  11  12
ENDBRANCH  10  11
ENDBRANCH   3   5
BRANCH   1  17
ATOM     17  C   UNL     1      -1.279   7.406  -0.163  0.00  0.00    +0.222 C 
BRANCH  17  26
ATOM     18  C   UNL     1      -5.670   8.787  -2.041  0.00  0.00    +0.154 C 
ATOM     19  N   UNL     1      -4.610   8.483  -1.076  0.00  0.00    -0.295 N 
ATOM     20  C   UNL     1      -4.711   8.597   0.308  0.00  0.00    +0.070 A 
ATOM     21  C   UNL     1      -5.731   8.993   1.159  0.00  0.00    +0.028 A 
ATOM     22  C   UNL     1      -5.524   9.001   2.525  0.00  0.00    +0.002 A 
ATOM     23  C   UNL     1      -4.302   8.616   3.047  0.00  0.00    +0.002 A 
ATOM     24  C   UNL     1      -3.279   8.220   2.208  0.00  0.00    +0.028 A 
ATOM     25  C   UNL     1      -3.477   8.209   0.836  0.00  0.00    +0.070 A 
ATOM     26  N   UNL     1      -2.666   7.871  -0.244  0.00  0.00    -0.283 N 
ATOM     27  C   UNL     1      -3.371   8.052  -1.377  0.00  0.00    +0.330 A 
ATOM     28  O   UNL     1      -2.952   7.851  -2.502  0.00  0.00    -0.246 OA
ENDBRANCH  17  26
ENDBRANCH   1  17
TORSDOF 5
