REMARK  Name = ZINC06545702
REMARK  10 active torsions:
REMARK  status: ('A' for Active; 'I' for Inactive)
REMARK    1  A    between atoms: C_1  and  C_2
REMARK    2  A    between atoms: C_2  and  O_3
REMARK    3  A    between atoms: O_3  and  C_4
REMARK    4  A    between atoms: C_4  and  C_6
REMARK    5  A    between atoms: C_7  and  C_32
REMARK    6  A    between atoms: C_9  and  N_31
REMARK    7  A    between atoms: C_10  and  C_29
REMARK    8  A    between atoms: C_11  and  C_13
REMARK    9  A    between atoms: C_17  and  C_28
REMARK   10  A    between atoms: C_21  and  N_22
REMARK                            x       y       z     vdW  Elec       q    Type
REMARK                         _______ _______ _______ _____ _____    ______ ____
ROOT
ATOM      1  C   UNL     1      -4.107   2.369   1.724  0.00  0.00    +0.088 C 
ATOM      2  C   UNL     1      -3.166   3.294   1.951  0.00  0.00    +0.133 C 
ATOM      3  O   UNL     1      -1.939   3.213   1.420  0.00  0.00    -0.444 OA
ATOM      4  C   UNL     1      -1.498   2.033   0.951  0.00  0.00    +0.198 C 
ATOM      5  C   UNL     1      -2.346   1.018   0.658  0.00  0.00    +0.098 C 
ATOM      6  C   UNL     1      -3.831   1.179   0.846  0.00  0.00    +0.108 C 
ENDROOT
BRANCH   6   7
ATOM      7  C   UNL     1      -4.486   1.383  -0.496  0.00  0.00    +0.004 A 
ATOM      8  C   UNL     1      -4.242   2.518  -1.209  0.00  0.00    +0.018 A 
ATOM      9  C   UNL     1      -4.871   2.668  -2.462  0.00  0.00    -0.001 A 
ATOM     10  C   UNL     1      -4.660   3.809  -3.250  0.00  0.00    +0.013 A 
ATOM     11  C   UNL     1      -5.290   3.923  -4.453  0.00  0.00    -0.050 A 
ATOM     12  C   UNL     1      -6.141   2.920  -4.911  0.00  0.00    +0.005 A 
ATOM     13  C   UNL     1      -6.367   1.800  -4.172  0.00  0.00    +0.026 A 
ATOM     14  C   UNL     1      -5.736   1.647  -2.925  0.00  0.00    +0.048 A 
ATOM     15  C   UNL     1      -5.354   0.408  -1.009  0.00  0.00    +0.103 A 
ATOM     16  C   UNL     1      -5.062   5.149  -5.298  0.00  0.00    +0.044 C 
ATOM     17  N   UNL     1      -5.989   0.501  -2.204  0.00  0.00    -0.343 N 
ATOM     18  H   UNL     1      -6.617  -0.234  -2.548  0.00  0.00    +0.167 HD
BRANCH  15  19
ATOM     19  N   UNL     1      -5.597  -0.739  -0.269  0.00  0.00    -0.316 N 
ATOM     20  C   UNL     1      -4.790  -1.863  -0.760  0.00  0.00    +0.106 C 
ATOM     21  C   UNL     1      -4.973  -3.068   0.166  0.00  0.00    +0.019 C 
ATOM     22  C   UNL     1      -6.454  -3.456   0.202  0.00  0.00    +0.003 C 
ATOM     23  C   UNL     1      -7.278  -2.253   0.670  0.00  0.00    +0.019 C 
ATOM     24  C   UNL     1      -7.027  -1.072  -0.270  0.00  0.00    +0.106 C 
ENDBRANCH  15  19
ENDBRANCH   6   7
BRANCH   4  25
ATOM     25  N   UNL     1      -0.149   1.849   0.770  0.00  0.00    -0.328 N 
ATOM     26  H   UNL     1       0.184   1.001   0.437  0.00  0.00    +0.145 HD
ATOM     27  H   UNL     1       0.470   2.568   0.972  0.00  0.00    +0.145 HD
ENDBRANCH   4  25
BRANCH   1  28
ATOM     28  C   UNL     1      -5.384   2.513   2.321  0.00  0.00    +0.339 C 
ATOM     29  O   UNL     1      -5.659   3.529   2.931  0.00  0.00    -0.245 OA
BRANCH  28  30
ATOM     30  O   UNL     1      -6.295   1.524   2.211  0.00  0.00    -0.462 OA
BRANCH  30  32
ATOM     31  C   UNL     1      -8.455   0.516   2.608  0.00  0.00    +0.048 C 
ATOM     32  C   UNL     1      -7.561   1.737   2.837  0.00  0.00    +0.229 C 
ENDBRANCH  30  32
ENDBRANCH  28  30
ENDBRANCH   1  28
BRANCH   5  33
ATOM     33  C   UNL     1      -1.825  -0.221   0.165  0.00  0.00    +0.101 C 
ATOM     34  N   UNL     1      -1.411  -1.204  -0.226  0.00  0.00    -0.191 NA
ENDBRANCH   5  33
BRANCH   2  35
ATOM     35  C   UNL     1      -3.498   4.466   2.839  0.00  0.00    +0.183 C 
ATOM     36 CL   UNL     1      -2.015   5.457   3.104  0.00  0.00    -0.117 Cl
ENDBRANCH   2  35
TORSDOF 8
