REMARK  Name = ZINC40404618
REMARK  15 active torsions:
REMARK  status: ('A' for Active; 'I' for Inactive)
REMARK    1  A    between atoms: C_1  and  C_2
REMARK    2  A    between atoms: C_2  and  C_3
REMARK    3  A    between atoms: C_3  and  C_4
REMARK    4  A    between atoms: C_4  and  C_6
REMARK    5  A    between atoms: C_4  and  O_36
REMARK    6  A    between atoms: C_6  and  N_7
REMARK    7  A    between atoms: N_7  and  C_8
REMARK    8  A    between atoms: N_7  and  C_14
REMARK    9  A    between atoms: C_8  and  C_9
REMARK   10  A    between atoms: C_14  and  C_15
REMARK   11  A    between atoms: C_21  and  C_26
REMARK   12  A    between atoms: C_29  and  O_34
REMARK   13  A    between atoms: C_30  and  O_32
REMARK   14  A    between atoms: O_32  and  C_33
REMARK   15  A    between atoms: O_34  and  C_35
REMARK                            x       y       z     vdW  Elec       q    Type
REMARK                         _______ _______ _______ _____ _____    ______ ____
ROOT
ATOM      1  C   UNL     1      -3.496  -6.468   0.675  0.00  0.00    +0.094 A 
ATOM      2  N   UNL     1      -4.511  -7.344   0.885  0.00  0.00    -0.312 N 
ATOM      3  H   UNL     1      -5.414  -7.007   1.002  0.00  0.00    +0.170 HD
ATOM      4  C   UNL     1      -4.291  -8.671   0.935  0.00  0.00    +0.260 A 
ATOM      5  O   UNL     1      -5.214  -9.444   1.125  0.00  0.00    -0.267 OA
ATOM      6  C   UNL     1      -2.957  -9.159   0.761  0.00  0.00    +0.080 A 
ATOM      7  C   UNL     1      -2.469 -10.533   0.772  0.00  0.00    +0.004 A 
ATOM      8  C   UNL     1      -1.146 -10.756   0.583  0.00  0.00    +0.056 A 
ATOM      9  S   UNL     1      -0.476  -9.117   0.378  0.00  0.00    -0.076 S 
ATOM     10  C   UNL     1      -1.973  -8.180   0.549  0.00  0.00    +0.116 A 
ATOM     11  N   UNL     1      -2.269  -6.883   0.508  0.00  0.00    -0.229 NA
ENDROOT
BRANCH   7  12
ATOM     12  C   UNL     1      -3.402 -11.665   0.987  0.00  0.00    -0.013 A 
ATOM     13  C   UNL     1      -4.297 -11.639   2.056  0.00  0.00    +0.012 A 
ATOM     14  C   UNL     1      -5.166 -12.693   2.255  0.00  0.00    +0.050 A 
ATOM     15  C   UNL     1      -5.151 -13.779   1.393  0.00  0.00    +0.162 A 
ATOM     16  C   UNL     1      -4.261 -13.810   0.323  0.00  0.00    +0.162 A 
ATOM     17  C   UNL     1      -3.392 -12.754   0.117  0.00  0.00    +0.058 A 
BRANCH  16  18
ATOM     18  O   UNL     1      -4.249 -14.876  -0.521  0.00  0.00    -0.491 OA
ATOM     19  C   UNL     1      -3.309 -14.841  -1.597  0.00  0.00    +0.277 C 
ENDBRANCH  16  18
BRANCH  15  20
ATOM     20  O   UNL     1      -6.008 -14.816   1.593  0.00  0.00    -0.491 OA
ATOM     21  C   UNL     1      -6.895 -14.718   2.710  0.00  0.00    +0.277 C 
ENDBRANCH  15  20
ENDBRANCH   7  12
BRANCH   1  22
ATOM     22  C   UNL     1      -3.791  -4.990   0.627  0.00  0.00    -0.003 C 
BRANCH  22  23
ATOM     23  N   UNL     1      -2.545  -4.250   0.383  0.00  0.00    +0.391 N 
ATOM     24  H   UNL     1      -1.862  -4.502   1.082  0.00  0.00    -0.080 HD
BRANCH  23  25
ATOM     25  C   UNL     1      -2.811  -2.808   0.455  0.00  0.00    -0.046 C 
BRANCH  25  26
ATOM     26  C   UNL     1      -3.211  -2.433   1.883  0.00  0.00    +0.098 C 
BRANCH  26  27
ATOM     27  O   UNL     1      -2.135  -2.733   2.774  0.00  0.00    -0.394 OA
ATOM     28  H   UNL     1      -1.337  -2.211   2.616  0.00  0.00    +0.210 HD
ENDBRANCH  26  27
BRANCH  26  29
ATOM     29  C   UNL     1      -3.526  -0.937   1.949  0.00  0.00    +0.029 C 
BRANCH  29  31
ATOM     30  C   UNL     1      -4.361   0.909   3.411  0.00  0.00    +0.004 C 
ATOM     31  C   UNL     1      -4.046  -0.587   3.345  0.00  0.00    -0.001 C 
ENDBRANCH  29  31
ENDBRANCH  26  29
ENDBRANCH  25  26
ENDBRANCH  23  25
BRANCH  23  32
ATOM     32  C   UNL     1      -2.028  -4.587  -0.950  0.00  0.00    -0.002 C 
BRANCH  32  33
ATOM     33  C   UNL     1      -0.680  -3.942  -1.144  0.00  0.00    +0.089 A 
ATOM     34  C   UNL     1       0.499  -4.447  -0.739  0.00  0.00    +0.042 A 
ATOM     35  C   UNL     1       1.495  -3.521  -1.124  0.00  0.00    +0.041 A 
ATOM     36  C   UNL     1       0.865  -2.506  -1.742  0.00  0.00    +0.195 A 
ATOM     37  O   UNL     1      -0.452  -2.769  -1.757  0.00  0.00    -0.470 OA
ENDBRANCH  32  33
ENDBRANCH  23  32
ENDBRANCH  22  23
ENDBRANCH   1  22
TORSDOF 12
