REMARK  Name = ZINC12860140
REMARK  12 active torsions:
REMARK  status: ('A' for Active; 'I' for Inactive)
REMARK    1  A    between atoms: C_1  and  C_2
REMARK    2  A    between atoms: C_5  and  C_8
REMARK    3  A    between atoms: C_9  and  C_34
REMARK    4  A    between atoms: C_17  and  C_19
REMARK    5  A    between atoms: C_19  and  N_64
REMARK    6  A    between atoms: C_20  and  N_64
REMARK    7  A    between atoms: C_21  and  C_22
REMARK    8  A    between atoms: C_21  and  N_64
REMARK    9  A    between atoms: N_24  and  C_25
REMARK   10  A    between atoms: C_26  and  C_33
REMARK   11  A    between atoms: C_28  and  C_32
REMARK   12  A    between atoms: C_30  and  C_31
REMARK                            x       y       z     vdW  Elec       q    Type
REMARK                         _______ _______ _______ _____ _____    ______ ____
ROOT
ATOM      1  C   UNL     1       4.046  13.304  -0.612  0.00  0.00    +0.007 A 
ATOM      2  C   UNL     1       2.733  13.570  -0.816  0.00  0.00    -0.003 A 
ATOM      3  S   UNL     1       1.952  11.983  -0.597  0.00  0.00    -0.073 S 
ATOM      4  C   UNL     1       3.392  11.009  -0.241  0.00  0.00    +0.116 A 
ATOM      5  C   UNL     1       4.444  11.937  -0.300  0.00  0.00    +0.080 A 
ATOM      6  C   UNL     1       5.750  11.409  -0.047  0.00  0.00    +0.260 A 
ATOM      7  O   UNL     1       6.728  12.137  -0.075  0.00  0.00    -0.267 OA
ATOM      8  N   UNL     1       5.882  10.098   0.229  0.00  0.00    -0.312 N 
ATOM      9  H   UNL     1       6.765   9.736   0.406  0.00  0.00    +0.170 HD
ATOM     10  C   UNL     1       4.805   9.272   0.260  0.00  0.00    +0.094 A 
ATOM     11  N   UNL     1       3.601   9.724   0.034  0.00  0.00    -0.229 NA
ATOM     12  C   UNL     1       2.088  14.891  -1.147  0.00  0.00    +0.052 C 
ENDROOT
BRANCH   1  17
ATOM     13  C   UNL     1       7.979  17.494  -0.976  0.00  0.00    +0.044 C 
ATOM     14  C   UNL     1       6.950  16.397  -0.881  0.00  0.00    -0.050 A 
ATOM     15  C   UNL     1       5.990  16.437   0.115  0.00  0.00    +0.004 A 
ATOM     16  C   UNL     1       5.045  15.436   0.207  0.00  0.00    +0.009 A 
ATOM     17  C   UNL     1       5.058  14.383  -0.706  0.00  0.00    -0.016 A 
ATOM     18  C   UNL     1       6.031  14.345  -1.704  0.00  0.00    +0.009 A 
ATOM     19  C   UNL     1       6.968  15.354  -1.789  0.00  0.00    +0.004 A 
ENDBRANCH   1  17
BRANCH  10  20
ATOM     20  C   UNL     1       5.002   7.810   0.568  0.00  0.00    -0.003 C 
BRANCH  20  22
ATOM     21  C   UNL     1       2.844   7.602   1.645  0.00  0.00    -0.095 C 
ATOM     22  N   UNL     1       3.689   7.133   0.527  0.00  0.00    +0.388 N 
ATOM     23  H   UNL     1       3.224   7.361  -0.360  0.00  0.00    -0.081 HD
BRANCH  22  24
ATOM     24  C   UNL     1       3.872   5.669   0.612  0.00  0.00    +0.019 C 
BRANCH  24  25
ATOM     25  C   UNL     1       2.550   4.998   0.347  0.00  0.00    +0.201 C 
ATOM     26  O   UNL     1       1.562   5.667   0.130  0.00  0.00    -0.278 OA
ATOM     27  N   UNL     1       2.464   3.653   0.351  0.00  0.00    -0.287 N 
ATOM     28  H   UNL     1       3.264   3.116   0.461  0.00  0.00    +0.155 HD
BRANCH  27  29
ATOM     29  C   UNL     1       1.220   3.030   0.198  0.00  0.00    +0.039 A 
ATOM     30  C   UNL     1       0.455   3.274  -0.936  0.00  0.00    -0.029 A 
ATOM     31  C   UNL     1      -0.772   2.658  -1.085  0.00  0.00    +0.008 A 
ATOM     32  C   UNL     1      -1.241   1.803  -0.104  0.00  0.00    -0.050 A 
ATOM     33  C   UNL     1      -0.480   1.554   1.023  0.00  0.00    +0.008 A 
ATOM     34  C   UNL     1       0.748   2.167   1.178  0.00  0.00    -0.029 A 
ATOM     35  C   UNL     1       1.575   1.899   2.409  0.00  0.00    +0.045 C 
ATOM     36  C   UNL     1      -2.583   1.137  -0.267  0.00  0.00    +0.044 C 
ATOM     37  C   UNL     1       0.964   4.210  -2.001  0.00  0.00    +0.045 C 
ENDBRANCH  27  29
ENDBRANCH  24  25
ENDBRANCH  22  24
ENDBRANCH  20  22
ENDBRANCH  10  20
TORSDOF 6
