REMARK  Name = ZINC56104710
REMARK  10 active torsions:
REMARK  status: ('A' for Active; 'I' for Inactive)
REMARK    1  A    between atoms: C_1  and  O_2
REMARK    2  A    between atoms: O_2  and  C_3
REMARK    3  A    between atoms: C_5  and  O_25
REMARK    4  A    between atoms: C_6  and  C_11
REMARK    5  A    between atoms: C_7  and  O_9
REMARK    6  A    between atoms: O_9  and  C_10
REMARK    7  A    between atoms: C_11  and  N_12
REMARK    8  A    between atoms: N_12  and  S_13
REMARK    9  A    between atoms: S_13  and  C_16
REMARK   10  A    between atoms: O_25  and  C_26
REMARK                            x       y       z     vdW  Elec       q    Type
REMARK                         _______ _______ _______ _____ _____    ______ ____
ROOT
ATOM      1  N   UNL     1       3.926  -2.716  -4.086  0.00  0.00    -0.185 NA
ATOM      2  H   UNL     1       4.338  -2.250  -3.342  0.00  0.00    +0.148 HD
ENDROOT
BRANCH   1   3
ATOM      3  S   UNL     1       4.826  -3.749  -5.016  0.00  0.00    +0.059 S 
ATOM      4  O   UNL     1       6.148  -3.716  -4.496  0.00  0.00    -0.153 OA
ATOM      5  O   UNL     1       4.080  -4.953  -5.124  0.00  0.00    -0.153 OA
BRANCH   3   6
ATOM      6  C   UNL     1       4.904  -3.058  -6.635  0.00  0.00    +0.106 A 
ATOM      7  C   UNL     1       3.938  -3.377  -7.571  0.00  0.00    +0.029 A 
ATOM      8  C   UNL     1       4.002  -2.834  -8.839  0.00  0.00    +0.006 A 
ATOM      9  C   UNL     1       5.031  -1.971  -9.177  0.00  0.00    -0.044 A 
ATOM     10  C   UNL     1       5.997  -1.652  -8.242  0.00  0.00    -0.042 A 
ATOM     11  C   UNL     1       5.928  -2.193  -6.969  0.00  0.00    +0.032 A 
ATOM     12  C   UNL     1       7.004  -0.700  -8.850  0.00  0.00    +0.036 C 
ATOM     13  C   UNL     1       6.798  -0.815 -10.376  0.00  0.00    +0.009 C 
ATOM     14  C   UNL     1       5.322  -1.254 -10.478  0.00  0.00    +0.036 C 
ENDBRANCH   3   6
ENDBRANCH   1   3
BRANCH   1  15
ATOM     15  C   UNL     1       2.508  -2.506  -4.387  0.00  0.00    +0.148 C 
BRANCH  15  19
ATOM     16  C   UNL     1       0.606  -0.607  -1.056  0.00  0.00    +0.127 A 
ATOM     17  C   UNL     1       1.172   0.162  -2.061  0.00  0.00    +0.091 A 
ATOM     18  C   UNL     1       1.789  -0.454  -3.140  0.00  0.00    +0.131 A 
ATOM     19  C   UNL     1       1.839  -1.838  -3.214  0.00  0.00    +0.051 A 
ATOM     20  C   UNL     1       1.272  -2.606  -2.208  0.00  0.00    +0.131 A 
ATOM     21  C   UNL     1       0.660  -1.991  -1.127  0.00  0.00    +0.091 A 
BRANCH  16  23
ATOM     22  C   UNL     1      -0.017   1.425   0.010  0.00  0.00    +0.277 C 
ATOM     23  O   UNL     1       0.002  -0.004   0.002  0.00  0.00    -0.495 OA
ENDBRANCH  16  23
BRANCH  20  24
ATOM     24  O   UNL     1       1.321  -3.962  -2.280  0.00  0.00    -0.495 OA
ATOM     25  C   UNL     1       0.718  -4.691  -1.209  0.00  0.00    +0.277 C 
ENDBRANCH  20  24
BRANCH  18  26
ATOM     26  O   UNL     1       2.344   0.299  -4.126  0.00  0.00    -0.495 OA
ATOM     27  C   UNL     1       2.255   1.719  -3.986  0.00  0.00    +0.277 C 
ENDBRANCH  18  26
ENDBRANCH  15  19
ENDBRANCH   1  15
TORSDOF 7
