REMARK  Name = ZINC20464087
REMARK  8 active torsions:
REMARK  status: ('A' for Active; 'I' for Inactive)
REMARK    1  A    between atoms: C_1  and  N_2
REMARK    2  A    between atoms: C_4  and  N_25
REMARK    3  A    between atoms: C_7  and  C_9
REMARK    4  A    between atoms: C_11  and  C_14
REMARK    5  A    between atoms: C_17  and  O_20
REMARK    6  A    between atoms: O_20  and  C_21
REMARK    7  A    between atoms: C_26  and  C_28
REMARK    8  A    between atoms: C_31  and  C_34
REMARK                            x       y       z     vdW  Elec       q    Type
REMARK                         _______ _______ _______ _____ _____    ______ ____
ROOT
ATOM      1  C   UNL     1       7.099   1.209   0.272  0.00  0.00    -0.095 C 
ATOM      2  N   UNL     1       5.733   0.751  -0.011  0.00  0.00    +0.387 N 
ATOM      3  C   UNL     1       5.182   1.432  -1.203  0.00  0.00    -0.056 C 
ATOM      4  C   UNL     1       4.273   0.374  -1.878  0.00  0.00    +0.056 C 
ATOM      5  C   UNL     1       5.078  -0.930  -1.639  0.00  0.00    +0.014 C 
ATOM      6  C   UNL     1       5.700  -0.704  -0.245  0.00  0.00    +0.023 C 
ATOM      7  H   UNL     1       5.126   0.997   0.872  0.00  0.00    -0.081 HD
ENDROOT
BRANCH   6   8
ATOM      8  C   UNL     1       7.101  -1.260  -0.212  0.00  0.00    +0.214 A 
ATOM      9  N   UNL     1       7.549  -2.193   0.590  0.00  0.00    -0.193 NA
ATOM     10  C   UNL     1       8.849  -2.364   0.258  0.00  0.00    +0.202 A 
ATOM     11  N   UNL     1       9.111  -1.533  -0.718  0.00  0.00    -0.056 NA
ATOM     12  O   UNL     1       8.117  -0.897  -1.001  0.00  0.00    -0.339 OA
BRANCH  10  13
ATOM     13  C   UNL     1       9.800  -3.316   0.883  0.00  0.00    +0.023 A 
ATOM     14  C   UNL     1       9.379  -4.141   1.925  0.00  0.00    +0.015 A 
ATOM     15  C   UNL     1      10.263  -5.028   2.500  0.00  0.00    +0.046 A 
ATOM     16  C   UNL     1      11.575  -5.093   2.050  0.00  0.00    +0.130 A 
ATOM     17  C   UNL     1      11.999  -4.268   1.017  0.00  0.00    +0.046 A 
ATOM     18  C   UNL     1      11.118  -3.383   0.433  0.00  0.00    +0.015 A 
BRANCH  16  19
ATOM     19  O   UNL     1      12.446  -5.964   2.623  0.00  0.00    -0.406 OA
BRANCH  19  20
ATOM     20  C   UNL     1      11.943  -6.783   3.681  0.00  0.00    +0.575 C 
ATOM     21  F   UNL     1      10.887  -7.566   3.203  0.00  0.00    -0.133 F 
ATOM     22  F   UNL     1      12.964  -7.615   4.152  0.00  0.00    -0.133 F 
ATOM     23  F   UNL     1      11.487  -5.969   4.723  0.00  0.00    -0.133 F 
ENDBRANCH  19  20
ENDBRANCH  16  19
ENDBRANCH  10  13
ENDBRANCH   6   8
BRANCH   4  24
ATOM     24  N   UNL     1       4.126   0.646  -3.310  0.00  0.00    -0.310 N 
ATOM     25  C   UNL     1       3.129   1.440  -3.746  0.00  0.00    +0.244 C 
ATOM     26  O   UNL     1       2.351   1.932  -2.952  0.00  0.00    -0.270 OA
ATOM     27  H   UNL     1       4.830   0.201  -4.029  0.00  0.00    +0.149 HD
BRANCH  25  28
ATOM     28  C   UNL     1       2.977   1.709  -5.191  0.00  0.00    +0.037 A 
ATOM     29  C   UNL     1       3.874   1.149  -6.104  0.00  0.00    +0.013 A 
ATOM     30  C   UNL     1       3.728   1.395  -7.451  0.00  0.00    +0.009 A 
ATOM     31  C   UNL     1       2.692   2.213  -7.902  0.00  0.00    -0.018 A 
ATOM     32  C   UNL     1       1.799   2.777  -6.991  0.00  0.00    +0.009 A 
ATOM     33  C   UNL     1       1.940   2.528  -5.644  0.00  0.00    +0.013 A 
BRANCH  31  34
ATOM     34  C   UNL     1       2.539   2.483  -9.353  0.00  0.00    -0.018 A 
ATOM     35  C   UNL     1       1.502   3.295  -9.808  0.00  0.00    +0.008 A 
ATOM     36  C   UNL     1       1.369   3.548 -11.158  0.00  0.00    +0.001 A 
ATOM     37  C   UNL     1       2.255   2.987 -12.060  0.00  0.00    +0.000 A 
ATOM     38  C   UNL     1       3.283   2.175 -11.614  0.00  0.00    +0.001 A 
ATOM     39  C   UNL     1       3.430   1.920 -10.266  0.00  0.00    +0.008 A 
ENDBRANCH  31  34
ENDBRANCH  25  28
ENDBRANCH   4  24
TORSDOF 7
