REMARK  Name = ZINC40083982
REMARK  10 active torsions:
REMARK  status: ('A' for Active; 'I' for Inactive)
REMARK    1  A    between atoms: C_1  and  C_2
REMARK    2  A    between atoms: C_4  and  S_8
REMARK    3  A    between atoms: S_8  and  C_9
REMARK    4  A    between atoms: C_9  and  C_10
REMARK    5  A    between atoms: C_15  and  C_16
REMARK    6  A    between atoms: C_16  and  O_18
REMARK    7  A    between atoms: O_18  and  C_19
REMARK    8  A    between atoms: C_19  and  C_21
REMARK    9  A    between atoms: C_19  and  C_27
REMARK   10  A    between atoms: C_27  and  C_29
REMARK                            x       y       z     vdW  Elec       q    Type
REMARK                         _______ _______ _______ _____ _____    ______ ____
ROOT
ATOM      1  C   UNL     1      -3.916  -6.760   0.145  0.00  0.00    +0.277 C 
ENDROOT
BRANCH   1   2
ATOM      2  C   UNL     1      -4.735  -6.531   1.389  0.00  0.00    +0.000 A 
ATOM      3  C   UNL     1      -6.113  -6.449   1.303  0.00  0.00    +0.008 A 
ATOM      4  C   UNL     1      -6.865  -6.239   2.444  0.00  0.00    +0.000 A 
ATOM      5  C   UNL     1      -6.239  -6.110   3.670  0.00  0.00    +0.000 A 
ATOM      6  C   UNL     1      -4.862  -6.192   3.756  0.00  0.00    +0.000 A 
ATOM      7  C   UNL     1      -4.111  -6.407   2.615  0.00  0.00    +0.008 A 
ENDBRANCH   1   2
BRANCH   1   8
ATOM      8  C   UNL     1      -3.948  -8.223  -0.215  0.00  0.00    +0.206 C 
ATOM      9  O   UNL     1      -4.626  -8.604  -1.147  0.00  0.00    -0.288 OA
BRANCH   8  10
ATOM     10  C   UNL     1      -3.191  -9.151   0.532  0.00  0.00    +0.027 C 
ATOM     11  C   UNL     1      -3.106 -10.517   0.331  0.00  0.00    +0.006 A 
ATOM     12  C   UNL     1      -3.698 -11.389  -0.612  0.00  0.00    +0.010 A 
ATOM     13  C   UNL     1      -3.433 -12.714  -0.576  0.00  0.00    +0.001 A 
ATOM     14  C   UNL     1      -2.575 -13.284   0.378  0.00  0.00    +0.002 A 
ATOM     15  C   UNL     1      -1.959 -12.540   1.322  0.00  0.00    +0.026 A 
ATOM     16  C   UNL     1      -2.194 -11.087   1.353  0.00  0.00    +0.043 A 
ATOM     17  N   UNL     1      -1.741 -10.149   2.135  0.00  0.00    -0.380 N 
ATOM     18  C   UNL     1      -2.296  -8.858   1.717  0.00  0.00    +0.152 C 
ATOM     19  H   UNL     1      -1.130 -10.284   2.876  0.00  0.00    +0.160 HD
ENDBRANCH   8  10
ENDBRANCH   1   8
BRANCH   1  20
ATOM     20  O   UNL     1      -4.458  -5.993  -0.931  0.00  0.00    -0.445 OA
BRANCH  20  21
ATOM     21  C   UNL     1      -3.980  -4.744  -1.094  0.00  0.00    +0.340 C 
ATOM     22  O   UNL     1      -3.126  -4.318  -0.342  0.00  0.00    -0.245 OA
BRANCH  21  28
ATOM     23  C   UNL     1      -4.100  -2.556  -2.278  0.00  0.00    -0.024 A 
ATOM     24  C   UNL     1      -4.580  -1.768  -3.304  0.00  0.00    +0.005 A 
ATOM     25  C   UNL     1      -5.454  -2.298  -4.236  0.00  0.00    +0.000 A 
ATOM     26  C   UNL     1      -5.853  -3.620  -4.148  0.00  0.00    +0.001 A 
ATOM     27  C   UNL     1      -5.381  -4.419  -3.127  0.00  0.00    +0.015 A 
ATOM     28  C   UNL     1      -4.494  -3.893  -2.186  0.00  0.00    +0.063 A 
BRANCH  23  29
ATOM     29  C   UNL     1      -3.147  -1.978  -1.263  0.00  0.00    +0.108 C 
BRANCH  29  30
ATOM     30  S   UNL     1      -1.443  -2.382  -1.734  0.00  0.00    -0.119 S 
BRANCH  30  34
ATOM     31  C   UNL     1      -1.078   1.897   0.788  0.00  0.00    +0.061 C 
ATOM     32  C   UNL     1      -0.864   0.406   0.726  0.00  0.00    +0.023 C 
ATOM     33  N   UNL     1      -0.647  -0.164  -0.372  0.00  0.00    -0.267 NA
ATOM     34  C   UNL     1      -0.436  -1.625  -0.430  0.00  0.00    +0.220 C 
ATOM     35  S   UNL     1      -1.030  -2.123   1.247  0.00  0.00    -0.118 S 
ATOM     36  C   UNL     1      -0.901  -0.436   1.993  0.00  0.00    +0.122 C 
ENDBRANCH  30  34
ENDBRANCH  29  30
ENDBRANCH  23  29
ENDBRANCH  21  28
ENDBRANCH  20  21
ENDBRANCH   1  20
TORSDOF 9
