REMARK  Name = ZINC08869015
REMARK  10 active torsions:
REMARK  status: ('A' for Active; 'I' for Inactive)
REMARK    1  A    between atoms: C_1  and  N_61
REMARK    2  A    between atoms: C_2  and  N_61
REMARK    3  A    between atoms: C_3  and  C_4
REMARK    4  A    between atoms: C_3  and  N_61
REMARK    5  A    between atoms: C_4  and  N_5
REMARK    6  A    between atoms: C_16  and  C_18
REMARK    7  A    between atoms: N_23  and  S_24
REMARK    8  A    between atoms: S_24  and  C_27
REMARK    9  A    between atoms: C_30  and  O_33
REMARK   10  A    between atoms: O_33  and  C_34
REMARK                            x       y       z     vdW  Elec       q    Type
REMARK                         _______ _______ _______ _____ _____    ______ ____
ROOT
ATOM      1  N   UNL     1       2.723  -3.940   0.620  0.00  0.00    -0.251 N 
ATOM      2  C   UNL     1       2.329  -2.612   0.603  0.00  0.00    +0.168 A 
ATOM      3  N   UNL     1       1.302  -2.066  -0.005  0.00  0.00    -0.221 NA
ATOM      4  C   UNL     1       1.035  -0.743   0.065  0.00  0.00    +0.115 A 
ATOM      5  C   UNL     1      -0.031  -0.033  -0.537  0.00  0.00    +0.150 A 
ATOM      6  C   UNL     1      -0.157   1.322  -0.364  0.00  0.00    +0.040 A 
ATOM      7  C   UNL     1       0.749   2.041   0.403  0.00  0.00    +0.004 A 
ATOM      8  C   UNL     1       1.802   1.379   1.006  0.00  0.00    +0.017 A 
ATOM      9  C   UNL     1       1.936   0.023   0.838  0.00  0.00    +0.044 A 
ATOM     10  S   UNL     1       3.090  -1.206   1.402  0.00  0.00    -0.052 S 
ATOM     11  F   UNL     1      -0.934  -0.697  -1.292  0.00  0.00    -0.203 F 
ATOM     12  C   UNL     1       2.010  -4.864  -0.053  0.00  0.00    +0.240 C 
ATOM     13  O   UNL     1       1.064  -4.523  -0.732  0.00  0.00    -0.273 OA
ENDROOT
BRANCH  12  14
ATOM     14  C   UNL     1       2.387  -6.320   0.037  0.00  0.00    +0.166 C 
ATOM     15  C   UNL     1       3.344  -6.687  -1.116  0.00  0.00    +0.031 C 
ATOM     16  C   UNL     1       2.874  -8.110  -1.519  0.00  0.00    +0.019 C 
ATOM     17  C   UNL     1       1.343  -8.003  -1.306  0.00  0.00    +0.110 C 
ATOM     18  N   UNL     1       1.187  -7.157  -0.109  0.00  0.00    -0.165 NA
BRANCH  18  19
ATOM     19  S   UNL     1      -0.123  -7.152   0.904  0.00  0.00    +0.062 S 
ATOM     20  O   UNL     1      -0.752  -8.418   0.761  0.00  0.00    -0.153 OA
ATOM     21  O   UNL     1       0.336  -6.667   2.159  0.00  0.00    -0.153 OA
BRANCH  19  22
ATOM     22  C   UNL     1      -1.256  -5.953   0.285  0.00  0.00    +0.106 A 
ATOM     23  C   UNL     1      -1.180  -4.642   0.719  0.00  0.00    +0.032 A 
ATOM     24  C   UNL     1      -2.063  -3.699   0.230  0.00  0.00    +0.047 A 
ATOM     25  C   UNL     1      -3.035  -4.071  -0.688  0.00  0.00    +0.120 A 
ATOM     26  C   UNL     1      -3.113  -5.388  -1.117  0.00  0.00    +0.047 A 
ATOM     27  C   UNL     1      -2.223  -6.326  -0.630  0.00  0.00    +0.032 A 
BRANCH  25  28
ATOM     28  O   UNL     1      -3.908  -3.146  -1.166  0.00  0.00    -0.495 OA
ATOM     29  C   UNL     1      -3.769  -1.810  -0.680  0.00  0.00    +0.277 C 
ENDBRANCH  25  28
ENDBRANCH  19  22
ENDBRANCH  18  19
ENDBRANCH  12  14
BRANCH   1  30
ATOM     30  C   UNL     1       3.916  -4.340   1.371  0.00  0.00    +0.097 C 
BRANCH  30  31
ATOM     31  C   UNL     1       3.541  -4.580   2.835  0.00  0.00    -0.060 C 
BRANCH  31  34
ATOM     32  C   UNL     1       4.471  -4.992   5.032  0.00  0.00    -0.097 C 
ATOM     33  C   UNL     1       5.230  -6.289   3.134  0.00  0.00    -0.097 C 
ATOM     34  N   UNL     1       4.757  -4.962   3.582  0.00  0.00    +0.377 N 
ATOM     35  H   UNL     1       5.492  -4.268   3.401  0.00  0.00    -0.083 HD
ENDBRANCH  31  34
ENDBRANCH  30  31
ENDBRANCH   1  30
TORSDOF 7
