REMARK  Name = ZINC63743224
REMARK  5 active torsions:
REMARK  status: ('A' for Active; 'I' for Inactive)
REMARK    1  A    between atoms: C_7  and  C_10
REMARK    2  A    between atoms: C_10  and  C_11
REMARK    3  A    between atoms: C_11  and  N_12
REMARK    4  A    between atoms: C_13  and  C_15
REMARK    5  A    between atoms: N_20  and  C_22
REMARK                            x       y       z     vdW  Elec       q    Type
REMARK                         _______ _______ _______ _____ _____    ______ ____
ROOT
ATOM      1  C   UNL     1      -1.893  -6.480  -2.607  0.00  0.00    +0.089 C 
ATOM      2  C   UNL     1      -1.129  -7.569  -1.849  0.00  0.00    +0.015 C 
ATOM      3  C   UNL     1      -1.923  -8.876  -1.911  0.00  0.00    +0.016 C 
ATOM      4  C   UNL     1      -2.149  -9.261  -3.375  0.00  0.00    +0.087 C 
ATOM      5  N   UNL     1      -2.884  -8.188  -4.057  0.00  0.00    -0.274 NA
ATOM      6  C   UNL     1      -2.121  -6.934  -4.051  0.00  0.00    +0.099 C 
ENDROOT
BRANCH   5   7
ATOM      7  C   UNL     1      -3.240  -8.581  -5.426  0.00  0.00    +0.224 C 
ATOM      8  N   UNL     1      -2.040  -8.675  -6.298  0.00  0.00    -0.253 N 
ATOM      9  N   UNL     1      -2.233  -8.281  -7.593  0.00  0.00    -0.204 N 
ATOM     10  C   UNL     1      -1.464  -8.665  -8.655  0.00  0.00    +0.275 A 
ATOM     11  O   UNL     1      -0.552  -9.457  -8.486  0.00  0.00    -0.266 OA
ATOM     12  C   UNL     1      -1.715  -8.154  -9.940  0.00  0.00    +0.040 A 
ATOM     13  C   UNL     1      -2.742  -7.284 -10.122  0.00  0.00    +0.053 A 
ATOM     14  N   UNL     1      -3.492  -6.943  -9.068  0.00  0.00    -0.226 NA
ATOM     15  C   UNL     1      -3.266  -7.426  -7.876  0.00  0.00    +0.192 A 
ATOM     16  S   UNL     1      -4.115  -7.223  -6.318  0.00  0.00    -0.046 S 
ATOM     17  C   UNL     1      -3.087  -6.690 -11.460  0.00  0.00    +0.056 C 
ATOM     18  C   UNL     1      -1.921  -6.849 -12.435  0.00  0.00    +0.006 C 
ATOM     19  C   UNL     1      -1.475  -8.316 -12.417  0.00  0.00    +0.005 C 
ATOM     20  C   UNL     1      -0.821  -8.603 -11.067  0.00  0.00    +0.042 C 
ATOM     21  H   UNL     1      -1.256  -8.193  -5.886  0.00  0.00    +0.169 HD
ENDBRANCH   5   7
BRANCH   1  23
ATOM     22  N   UNL     1      -0.766  -4.618  -1.432  0.00  0.00    -0.315 N 
ATOM     23  C   UNL     1      -1.090  -5.205  -2.601  0.00  0.00    +0.217 C 
ATOM     24  O   UNL     1      -0.736  -4.706  -3.648  0.00  0.00    -0.275 OA
ATOM     25  H   UNL     1      -1.049  -5.017  -0.594  0.00  0.00    +0.149 HD
BRANCH  22  26
ATOM     26  C   UNL     1       0.015  -3.378  -1.426  0.00  0.00    +0.108 C 
BRANCH  26  27
ATOM     27  C   UNL     1       0.244  -2.927   0.018  0.00  0.00    +0.052 C 
BRANCH  27  34
ATOM     28  C   UNL     1      -0.964   1.496   0.213  0.00  0.00    +0.001 A 
ATOM     29  C   UNL     1       0.126   2.377   0.193  0.00  0.00    +0.002 A 
ATOM     30  C   UNL     1       1.406   1.954   0.123  0.00  0.00    +0.026 A 
ATOM     31  C   UNL     1       1.700   0.563   0.066  0.00  0.00    +0.043 A 
ATOM     32  N   UNL     1       2.837  -0.086  -0.005  0.00  0.00    -0.380 N 
ATOM     33  C   UNL     1       2.553  -1.525  -0.039  0.00  0.00    +0.144 C 
ATOM     34  C   UNL     1       1.047  -1.651   0.024  0.00  0.00    -0.040 C 
ATOM     35  C   UNL     1       0.567  -0.389   0.086  0.00  0.00    -0.001 A 
ATOM     36  C   UNL     1      -0.795   0.155   0.163  0.00  0.00    +0.010 A 
ATOM     37  H   UNL     1       3.719   0.318  -0.032  0.00  0.00    +0.160 HD
ENDBRANCH  27  34
ENDBRANCH  26  27
ENDBRANCH  22  26
ENDBRANCH   1  23
TORSDOF 5
