REMARK  Name = ZINC17176564
REMARK  7 active torsions:
REMARK  status: ('A' for Active; 'I' for Inactive)
REMARK    1  A    between atoms: C_1  and  O_2
REMARK    2  A    between atoms: O_2  and  C_3
REMARK    3  A    between atoms: N_5  and  N_6
REMARK    4  A    between atoms: C_7  and  C_8
REMARK    5  A    between atoms: C_7  and  C_21
REMARK    6  A    between atoms: C_8  and  C_9
REMARK    7  A    between atoms: C_9  and  O_20
REMARK                            x       y       z     vdW  Elec       q    Type
REMARK                         _______ _______ _______ _____ _____    ______ ____
ROOT
ATOM      1  N   UNL     1       0.348  -2.533   0.533  0.00  0.00    -0.181 NA
ATOM      2  C   UNL     1       0.262  -3.788   0.213  0.00  0.00    +0.071 C 
ENDROOT
BRANCH   2   3
ATOM      3  C   UNL     1      -0.444  -4.188  -1.018  0.00  0.00    +0.016 A 
ATOM      4  C   UNL     1      -0.639  -5.541  -1.307  0.00  0.00    +0.012 A 
ATOM      5  C   UNL     1      -1.300  -5.909  -2.460  0.00  0.00    +0.021 A 
ATOM      6  C   UNL     1      -1.771  -4.940  -3.332  0.00  0.00    +0.042 A 
ATOM      7  C   UNL     1      -1.582  -3.598  -3.052  0.00  0.00    +0.040 A 
ATOM      8  C   UNL     1      -0.927  -3.215  -1.899  0.00  0.00    +0.051 A 
ATOM      9 CL   UNL     1      -0.697  -1.531  -1.546  0.00  0.00    -0.083 Cl
ATOM     10 CL   UNL     1      -2.602  -5.413  -4.781  0.00  0.00    -0.083 Cl
ENDBRANCH   2   3
BRANCH   1  13
ATOM     11  C   UNL     1       1.270  -0.838   1.926  0.00  0.00    +0.420 C 
ATOM     12  O   UNL     1       1.917  -0.501   2.898  0.00  0.00    -0.225 OA
ATOM     13  N   UNL     1       1.094  -2.146   1.653  0.00  0.00    -0.172 N 
ATOM     14  H   UNL     1       1.485  -2.819   2.232  0.00  0.00    +0.181 HD
BRANCH  11  16
ATOM     15  C   UNL     1       0.957   1.486   1.478  0.00  0.00    +0.282 C 
ATOM     16  O   UNL     1       0.727   0.097   1.122  0.00  0.00    -0.453 OA
ENDBRANCH  11  16
ENDBRANCH   1  13
BRANCH   2  17
ATOM     17  C   UNL     1       0.884  -4.836   1.099  0.00  0.00    +0.107 C 
BRANCH  17  18
ATOM     18  C   UNL     1       2.367  -4.984   0.751  0.00  0.00    +0.174 C 
ATOM     19  C   UNL     1       3.009  -6.047   1.612  0.00  0.00    +0.015 A 
ATOM     20  C   UNL     1       3.186  -6.175   2.969  0.00  0.00    +0.024 A 
ATOM     21  C   UNL     1       3.826  -7.291   3.481  0.00  0.00    +0.018 A 
ATOM     22  C   UNL     1       4.286  -8.275   2.623  0.00  0.00    +0.017 A 
ATOM     23  C   UNL     1       4.109  -8.150   1.261  0.00  0.00    +0.025 A 
ATOM     24  C   UNL     1       3.465  -7.030   0.738  0.00  0.00    +0.040 A 
ATOM     25  N   UNL     1       3.170  -6.680  -0.580  0.00  0.00    -0.282 N 
ATOM     26  C   UNL     1       2.530  -5.501  -0.662  0.00  0.00    +0.254 C 
ATOM     27  O   UNL     1       2.154  -4.955  -1.678  0.00  0.00    -0.272 OA
ATOM     28 BR   UNL     1       4.074  -7.469   5.347  0.00  0.00    -0.050 Br
ATOM     29  H   UNL     1       3.401  -7.225  -1.349  0.00  0.00    +0.155 HD
BRANCH  18  30
ATOM     30  O   UNL     1       3.044  -3.735   0.908  0.00  0.00    -0.374 OA
ATOM     31  H   UNL     1       3.987  -3.771   0.701  0.00  0.00    +0.211 HD
ENDBRANCH  18  30
ENDBRANCH  17  18
ENDBRANCH   2  17
TORSDOF 6
