REMARK  Name = ZINC15959834
REMARK  4 active torsions:
REMARK  status: ('A' for Active; 'I' for Inactive)
REMARK    1  A    between atoms: C_4  and  C_7
REMARK    2  A    between atoms: C_7  and  N_8
REMARK    3  A    between atoms: C_13  and  C_31
REMARK    4  A    between atoms: C_31  and  C_32
REMARK                            x       y       z     vdW  Elec       q    Type
REMARK                         _______ _______ _______ _____ _____    ______ ____
ROOT
ATOM      1  N   UNL     1       4.152  -0.952   1.338  0.00  0.00    -0.237 N 
ATOM      2  C   UNL     1       4.914  -0.089   2.018  0.00  0.00    +0.227 C 
ATOM      3  O   UNL     1       5.323   0.970   1.593  0.00  0.00    -0.275 OA
ATOM      4  C   UNL     1       5.186  -0.639   3.401  0.00  0.00    +0.107 C 
ATOM      5  C   UNL     1       4.452   0.231   4.444  0.00  0.00    +0.072 C 
ATOM      6  N   UNL     1       3.792  -0.741   5.355  0.00  0.00    -0.295 NA
ATOM      7  C   UNL     1       3.324  -1.815   4.459  0.00  0.00    +0.136 C 
ATOM      8  C   UNL     1       4.437  -2.001   3.397  0.00  0.00    +0.122 C 
ATOM      9  C   UNL     1       3.820  -2.056   2.018  0.00  0.00    +0.229 C 
ATOM     10  O   UNL     1       3.134  -2.960   1.593  0.00  0.00    -0.275 OA
ATOM     11  C   UNL     1       3.073  -3.090   5.213  0.00  0.00    +0.005 A 
ATOM     12  C   UNL     1       3.867  -3.905   5.989  0.00  0.00    +0.027 A 
ATOM     13  C   UNL     1       3.334  -5.043   6.570  0.00  0.00    +0.041 A 
ATOM     14  C   UNL     1       2.002  -5.359   6.368  0.00  0.00    +0.022 A 
ATOM     15  C   UNL     1       1.204  -4.545   5.591  0.00  0.00    +0.025 A 
ATOM     16  C   UNL     1       1.732  -3.398   5.003  0.00  0.00    +0.039 A 
ATOM     17  N   UNL     1       1.137  -2.432   4.189  0.00  0.00    -0.283 N 
ATOM     18  C   UNL     1       2.004  -1.468   3.827  0.00  0.00    +0.243 C 
ATOM     19  O   UNL     1       1.767  -0.506   3.127  0.00  0.00    -0.273 OA
ATOM     20 CL   UNL     1       4.334  -6.072   7.547  0.00  0.00    -0.084 Cl
ATOM     21  H   UNL     1       4.444  -1.098   6.037  0.00  0.00    +0.124 HD
ATOM     22  H   UNL     1       0.206  -2.454   3.916  0.00  0.00    +0.155 HD
ENDROOT
BRANCH   1  23
ATOM     23  C   UNL     1       3.711  -0.707  -0.038  0.00  0.00    +0.151 C 
BRANCH  23  27
ATOM     24  C   UNL     1      -0.017   1.378   0.010  0.00  0.00    +0.000 A 
ATOM     25  C   UNL     1       1.171   2.086   0.002  0.00  0.00    +0.000 A 
ATOM     26  C   UNL     1       2.377   1.411  -0.013  0.00  0.00    +0.005 A 
ATOM     27  C   UNL     1       2.396   0.029  -0.020  0.00  0.00    -0.030 A 
ATOM     28  C   UNL     1       1.208  -0.679  -0.012  0.00  0.00    +0.005 A 
ATOM     29  C   UNL     1       0.002  -0.004   0.002  0.00  0.00    +0.000 A 
ENDBRANCH  23  27
ENDBRANCH   1  23
BRANCH   5  30
ATOM     30  C   UNL     1       5.453   1.093   5.216  0.00  0.00    +0.056 C 
BRANCH  30  31
ATOM     31  C   UNL     1       4.708   2.021   6.141  0.00  0.00    -0.021 A 
ATOM     32  C   UNL     1       4.350   3.289   5.882  0.00  0.00    +0.087 A 
ATOM     33  N   UNL     1       3.688   3.816   6.958  0.00  0.00    -0.360 N 
ATOM     34  H   UNL     1       3.332   4.717   7.006  0.00  0.00    +0.165 HD
ATOM     35  C   UNL     1       3.602   2.876   7.960  0.00  0.00    +0.047 A 
ATOM     36  C   UNL     1       4.231   1.709   7.490  0.00  0.00    +0.003 A 
ATOM     37  C   UNL     1       4.291   0.575   8.303  0.00  0.00    +0.010 A 
ATOM     38  C   UNL     1       3.735   0.604   9.550  0.00  0.00    +0.001 A 
ATOM     39  C   UNL     1       3.109   1.751  10.017  0.00  0.00    +0.002 A 
ATOM     40  C   UNL     1       3.046   2.885   9.236  0.00  0.00    +0.026 A 
ENDBRANCH  30  31
ENDBRANCH   5  30
TORSDOF 4
