REMARK  Name = ZINC20178710
REMARK  10 active torsions:
REMARK  status: ('A' for Active; 'I' for Inactive)
REMARK    1  A    between atoms: C_1  and  C_2
REMARK    2  A    between atoms: C_3  and  C_30
REMARK    3  A    between atoms: C_9  and  C_15
REMARK    4  A    between atoms: C_11  and  O_14
REMARK    5  A    between atoms: C_15  and  C_16
REMARK    6  A    between atoms: C_15  and  C_17
REMARK    7  A    between atoms: C_15  and  C_18
REMARK    8  A    between atoms: N_22  and  C_23
REMARK    9  A    between atoms: C_30  and  O_32
REMARK   10  A    between atoms: O_32  and  C_33
REMARK                            x       y       z     vdW  Elec       q    Type
REMARK                         _______ _______ _______ _____ _____    ______ ____
ROOT
ATOM      1  C   UNL     1       0.519   4.773  -2.638  0.00  0.00    +0.080 C 
ATOM      2  C   UNL     1       0.390   4.166  -1.239  0.00  0.00    +0.196 C 
ATOM      3  C   UNL     1       0.960   2.740  -1.254  0.00  0.00    +0.185 C 
ATOM      4  C   UNL     1       0.688   2.137   0.134  0.00  0.00    +0.125 C 
ATOM      5  C   UNL     1       1.254   3.075   1.177  0.00  0.00    +0.019 A 
ATOM      6  C   UNL     1       1.587   2.568   2.422  0.00  0.00    +0.013 A 
ATOM      7  C   UNL     1       2.101   3.401   3.397  0.00  0.00    -0.038 A 
ATOM      8  C   UNL     1       2.282   4.746   3.132  0.00  0.00    +0.053 A 
ATOM      9  C   UNL     1       1.952   5.257   1.889  0.00  0.00    +0.159 A 
ATOM     10  C   UNL     1       1.437   4.416   0.901  0.00  0.00    +0.170 A 
ATOM     11  O   UNL     1       1.140   4.948  -0.313  0.00  0.00    -0.463 OA
ATOM     12  N   UNL     1      -0.771   2.099   0.323  0.00  0.00    -0.318 N 
ATOM     13  C   UNL     1      -1.532   3.098  -0.155  0.00  0.00    +0.141 C 
ATOM     14  S   UNL     1      -3.216   3.072   0.151  0.00  0.00    -0.018 S 
ATOM     15  N   UNL     1      -1.019   4.119  -0.859  0.00  0.00    -0.243 N 
ATOM     16  H   UNL     1      -1.235   1.255   0.854  0.00  0.00    +0.148 HD
ENDROOT
BRANCH  15  17
ATOM     17  C   UNL     1      -1.861   5.168  -1.245  0.00  0.00    +0.039 A 
ATOM     18  C   UNL     1      -2.627   5.057  -2.398  0.00  0.00    +0.026 A 
ATOM     19  C   UNL     1      -3.462   6.091  -2.773  0.00  0.00    +0.040 A 
ATOM     20  C   UNL     1      -3.527   7.242  -2.008  0.00  0.00    +0.124 A 
ATOM     21  C   UNL     1      -2.760   7.358  -0.861  0.00  0.00    +0.040 A 
ATOM     22  C   UNL     1      -1.928   6.324  -0.478  0.00  0.00    +0.026 A 
ATOM     23  F   UNL     1      -4.341   8.255  -2.380  0.00  0.00    -0.205 F 
ENDBRANCH  15  17
BRANCH   7  24
ATOM     24  C   UNL     1       2.462   2.844   4.750  0.00  0.00    -0.013 C 
ATOM     25  C   UNL     1       3.532   1.762   4.587  0.00  0.00    +0.015 C 
ATOM     26  C   UNL     1       3.003   3.967   5.636  0.00  0.00    +0.015 C 
ATOM     27  C   UNL     1       1.218   2.236   5.401  0.00  0.00    +0.015 C 
ENDBRANCH   7  24
BRANCH   9  28
ATOM     28  O   UNL     1       2.131   6.580   1.630  0.00  0.00    -0.503 OA
ATOM     29  H   UNL     1       1.869   6.987   0.642  0.00  0.00    +0.292 HD
ENDBRANCH   9  28
BRANCH   3  30
ATOM     30  C   UNL     1       0.271   1.921  -2.315  0.00  0.00    +0.318 C 
ATOM     31  O   UNL     1      -0.862   2.184  -2.640  0.00  0.00    -0.250 OA
BRANCH  30  32
ATOM     32  O   UNL     1       0.917   0.900  -2.900  0.00  0.00    -0.468 OA
ATOM     33  C   UNL     1       0.192   0.155  -3.913  0.00  0.00    +0.280 C 
ENDBRANCH  30  32
ENDBRANCH   3  30
TORSDOF 5
