REMARK  Name = ZINC35707661
REMARK  11 active torsions:
REMARK  status: ('A' for Active; 'I' for Inactive)
REMARK    1  A    between atoms: C_1  and  C_2
REMARK    2  A    between atoms: C_2  and  N_3
REMARK    3  A    between atoms: C_4  and  C_34
REMARK    4  A    between atoms: C_5  and  C_28
REMARK    5  A    between atoms: C_6  and  C_11
REMARK    6  A    between atoms: C_15  and  N_17
REMARK    7  A    between atoms: N_20  and  C_21
REMARK    8  A    between atoms: C_28  and  O_30
REMARK    9  A    between atoms: O_30  and  C_31
REMARK   10  A    between atoms: C_31  and  C_32
REMARK   11  A    between atoms: C_31  and  C_33
REMARK                            x       y       z     vdW  Elec       q    Type
REMARK                         _______ _______ _______ _____ _____    ______ ____
ROOT
ATOM      1  C   UNL     1       2.191  -2.895  -3.794  0.00  0.00    -0.021 A 
ATOM      2  C   UNL     1       2.245  -3.860  -2.804  0.00  0.00    +0.006 A 
ATOM      3  C   UNL     1       2.540  -5.171  -3.128  0.00  0.00    +0.002 A 
ATOM      4  C   UNL     1       2.782  -5.522  -4.441  0.00  0.00    +0.023 A 
ATOM      5  C   UNL     1       2.729  -4.557  -5.438  0.00  0.00    +0.035 A 
ATOM      6  C   UNL     1       2.426  -3.241  -5.110  0.00  0.00    +0.029 A 
ENDROOT
BRANCH   1  10
ATOM      7  N   UNL     1       0.760  -0.593  -1.059  0.00  0.00    -0.259 N 
ATOM      8  C   UNL     1      -0.096  -0.921  -2.071  0.00  0.00    +0.024 C 
ATOM      9  C   UNL     1       0.368  -1.356  -3.262  0.00  0.00    +0.078 C 
ATOM     10  C   UNL     1       1.869  -1.467  -3.437  0.00  0.00    +0.144 C 
ATOM     11  N   UNL     1       2.705  -1.089  -2.285  0.00  0.00    -0.288 N 
ATOM     12  C   UNL     1       2.094  -0.667  -1.161  0.00  0.00    +0.307 C 
ATOM     13  O   UNL     1       2.775  -0.349  -0.205  0.00  0.00    -0.252 OA
ATOM     14  C   UNL     1      -1.582  -0.796  -1.854  0.00  0.00    +0.061 C 
ATOM     15  H   UNL     1       3.672  -1.138  -2.336  0.00  0.00    +0.151 HD
BRANCH   7  17
ATOM     16  C   UNL     1      -0.184  -1.334   1.072  0.00  0.00    +0.025 C 
ATOM     17  C   UNL     1       0.188  -0.128   0.207  0.00  0.00    +0.111 C 
ENDBRANCH   7  17
BRANCH   9  18
ATOM     18  C   UNL     1      -0.518  -1.698  -4.311  0.00  0.00    +0.339 C 
ATOM     19  O   UNL     1      -1.720  -1.601  -4.148  0.00  0.00    -0.245 OA
BRANCH  18  20
ATOM     20  O   UNL     1      -0.030  -2.130  -5.493  0.00  0.00    -0.459 OA
BRANCH  20  21
ATOM     21  C   UNL     1      -0.982  -2.457  -6.507  0.00  0.00    +0.171 C 
ATOM     22  C   UNL     1      -0.368  -2.197  -7.885  0.00  0.00    +0.052 C 
ATOM     23  C   UNL     1      -1.365  -3.933  -6.390  0.00  0.00    +0.052 C 
ENDBRANCH  20  21
ENDBRANCH  18  20
ENDBRANCH   9  18
ENDBRANCH   1  10
BRANCH   5  24
ATOM     24  N   UNL     1       2.974  -4.909  -6.770  0.00  0.00    -0.269 N 
ATOM     25  C   UNL     1       3.606  -4.046  -7.590  0.00  0.00    +0.308 C 
ATOM     26  O   UNL     1       3.891  -2.932  -7.196  0.00  0.00    -0.252 OA
ATOM     27  N   UNL     1       3.923  -4.419  -8.845  0.00  0.00    -0.269 N 
ATOM     28  H   UNL     1       2.689  -5.774  -7.103  0.00  0.00    +0.156 HD
ATOM     29  H   UNL     1       3.625  -5.277  -9.186  0.00  0.00    +0.156 HD
BRANCH  27  30
ATOM     30  C   UNL     1       4.680  -3.568  -9.658  0.00  0.00    +0.036 A 
ATOM     31  C   UNL     1       4.439  -3.513 -11.024  0.00  0.00    +0.023 A 
ATOM     32  C   UNL     1       5.188  -2.672 -11.824  0.00  0.00    +0.003 A 
ATOM     33  C   UNL     1       6.178  -1.885 -11.265  0.00  0.00    +0.015 A 
ATOM     34  C   UNL     1       6.422  -1.938  -9.905  0.00  0.00    +0.020 A 
ATOM     35  C   UNL     1       5.672  -2.773  -9.098  0.00  0.00    +0.038 A 
ATOM     36 BR   UNL     1       7.779  -0.861  -9.146  0.00  0.00    -0.050 Br
ENDBRANCH  27  30
ENDBRANCH   5  24
TORSDOF 7
