REMARK  Name = ZINC21152423
REMARK  8 active torsions:
REMARK  status: ('A' for Active; 'I' for Inactive)
REMARK    1  A    between atoms: C_1  and  C_2
REMARK    2  A    between atoms: C_10  and  C_11
REMARK    3  A    between atoms: C_11  and  C_12
REMARK    4  A    between atoms: C_12  and  O_14
REMARK    5  A    between atoms: O_14  and  C_15
REMARK    6  A    between atoms: C_15  and  C_16
REMARK    7  A    between atoms: N_18  and  C_19
REMARK    8  A    between atoms: C_20  and  C_28
REMARK                            x       y       z     vdW  Elec       q    Type
REMARK                         _______ _______ _______ _____ _____    ______ ____
ROOT
ATOM      1  C   UNL     1      -0.391   1.340  -4.851  0.00  0.00    +0.255 C 
ATOM      2  O   UNL     1       0.608   0.654  -4.817  0.00  0.00    -0.272 OA
ATOM      3  N   UNL     1      -0.920   1.702  -6.037  0.00  0.00    -0.277 N 
ATOM      4  H   UNL     1      -1.826   2.324  -6.069  0.00  0.00    +0.155 HD
ENDROOT
BRANCH   3   5
ATOM      5  C   UNL     1      -0.321   1.289  -7.218  0.00  0.00    +0.084 A 
ATOM      6  C   UNL     1      -0.715   1.551  -8.522  0.00  0.00    +0.068 A 
ATOM      7  C   UNL     1       0.097   0.999  -9.593  0.00  0.00    -0.023 A 
ATOM      8  C   UNL     1       1.160   0.269  -9.191  0.00  0.00    -0.004 A 
ATOM      9  S   UNL     1       1.097   0.314  -7.422  0.00  0.00    -0.077 S 
ATOM     10  C   UNL     1       2.163  -0.422 -10.062  0.00  0.00    +0.043 C 
ATOM     11  C   UNL     1       1.597  -0.493 -11.488  0.00  0.00    +0.005 C 
ATOM     12  C   UNL     1       1.064   0.888 -11.877  0.00  0.00    +0.005 C 
ATOM     13  C   UNL     1      -0.200   1.203 -11.074  0.00  0.00    +0.037 C 
BRANCH   6  14
ATOM     14  C   UNL     1      -1.904   2.359  -8.809  0.00  0.00    +0.244 C 
ATOM     15  O   UNL     1      -1.805   3.566  -8.933  0.00  0.00    -0.270 OA
ATOM     16  N   UNL     1      -3.108   1.765  -8.936  0.00  0.00    -0.325 N 
ATOM     17  H   UNL     1      -4.000   2.372  -9.152  0.00  0.00    +0.145 HD
ATOM     18  H   UNL     1      -3.197   0.675  -8.825  0.00  0.00    +0.145 HD
ENDBRANCH   6  14
ENDBRANCH   3   5
BRANCH   1  19
ATOM     19  C   UNL     1      -1.042   1.789  -3.568  0.00  0.00    +0.328 C 
BRANCH  19  20
ATOM     20  O   UNL     1      -0.290   1.274  -2.438  0.00  0.00    -0.455 OA
BRANCH  20  21
ATOM     21  C   UNL     1      -0.742   1.585  -1.213  0.00  0.00    +0.312 C 
ATOM     22  O   UNL     1      -1.732   2.266  -1.089  0.00  0.00    -0.250 OA
BRANCH  21  23
ATOM     23  C   UNL     1      -0.013   1.086   0.008  0.00  0.00    +0.159 C 
BRANCH  23  33
ATOM     24  C   UNL     1      -5.087  -0.081   4.519  0.00  0.00    +0.044 C 
ATOM     25  C   UNL     1      -3.947   0.286   3.604  0.00  0.00    -0.047 A 
ATOM     26  C   UNL     1      -3.654  -0.521   2.514  0.00  0.00    +0.004 A 
ATOM     27  C   UNL     1      -2.623  -0.203   1.675  0.00  0.00    +0.012 A 
ATOM     28  C   UNL     1      -1.862   0.940   1.916  0.00  0.00    +0.024 A 
ATOM     29  C   UNL     1      -2.154   1.762   3.018  0.00  0.00    +0.135 A 
ATOM     30  C   UNL     1      -3.206   1.420   3.858  0.00  0.00    +0.050 A 
ATOM     31  O   UNL     1      -1.270   2.780   3.003  0.00  0.00    -0.463 OA
ATOM     32  C   UNL     1      -0.423   2.664   1.965  0.00  0.00    +0.200 A 
ATOM     33  C   UNL     1      -0.718   1.572   1.248  0.00  0.00    +0.009 A 
ENDBRANCH  23  33
ENDBRANCH  21  23
ENDBRANCH  20  21
ENDBRANCH  19  20
ENDBRANCH   1  19
TORSDOF 7
