REMARK  Name = ZINC40036691
REMARK  4 active torsions:
REMARK  status: ('A' for Active; 'I' for Inactive)
REMARK    1  A    between atoms: C_2  and  C_3
REMARK    2  A    between atoms: C_3  and  N_4
REMARK    3  A    between atoms: N_11  and  N_12
REMARK    4  A    between atoms: C_13  and  C_14
REMARK                            x       y       z     vdW  Elec       q    Type
REMARK                         _______ _______ _______ _____ _____    ______ ____
ROOT
ATOM      1  N   UNL     1       1.367  -1.676   1.111  0.00  0.00    -0.276 N 
ATOM      2  C   UNL     1       1.860  -1.270   2.302  0.00  0.00    +0.260 A 
ATOM      3  O   UNL     1       2.289  -0.137   2.446  0.00  0.00    -0.267 OA
ATOM      4  C   UNL     1       1.869  -2.180   3.368  0.00  0.00    +0.050 A 
ATOM      5  C   UNL     1       1.370  -3.457   3.163  0.00  0.00    +0.084 A 
ATOM      6  N   UNL     1       0.924  -3.812   1.952  0.00  0.00    -0.214 NA
ATOM      7  C   UNL     1       0.912  -2.950   0.956  0.00  0.00    +0.219 A 
ATOM      8  N   UNL     1       0.436  -3.346  -0.267  0.00  0.00    -0.206 N 
ATOM      9  C   UNL     1       1.314  -4.400   4.302  0.00  0.00    +0.004 A 
ATOM     10  C   UNL     1       1.116  -5.762   4.089  0.00  0.00    +0.010 A 
ATOM     11  C   UNL     1       1.087  -6.625   5.166  0.00  0.00    +0.001 A 
ATOM     12  C   UNL     1       1.257  -6.138   6.450  0.00  0.00    +0.000 A 
ATOM     13  C   UNL     1       1.446  -4.785   6.666  0.00  0.00    +0.004 A 
ATOM     14  C   UNL     1       1.465  -3.910   5.598  0.00  0.00    -0.037 A 
ATOM     15  C   UNL     1       1.618  -2.432   5.833  0.00  0.00    +0.047 C 
ATOM     16  C   UNL     1       2.425  -1.785   4.709  0.00  0.00    +0.007 C 
ATOM     17  C   UNL     1       3.884  -2.239   4.806  0.00  0.00    +0.012 C 
ATOM     18  C   UNL     1       4.455  -1.832   6.167  0.00  0.00    +0.001 C 
ATOM     19  C   UNL     1       4.386  -0.311   6.315  0.00  0.00    +0.000 C 
ATOM     20  C   UNL     1       2.930   0.146   6.213  0.00  0.00    +0.001 C 
ATOM     21  C   UNL     1       2.362  -0.261   4.852  0.00  0.00    +0.012 C 
ATOM     22  H   UNL     1       0.426  -2.722  -1.009  0.00  0.00    +0.177 HD
ENDROOT
BRANCH   8  23
ATOM     23  N   UNL     1      -0.037  -4.653  -0.444  0.00  0.00    -0.188 NA
ATOM     24  C   UNL     1      -0.488  -5.029  -1.602  0.00  0.00    +0.138 C 
BRANCH  24  25
ATOM     25  C   UNL     1      -0.985  -6.404  -1.789  0.00  0.00    -0.005 A 
ATOM     26  C   UNL     1      -0.977  -7.304  -0.721  0.00  0.00    +0.009 A 
ATOM     27  C   UNL     1      -1.444  -8.590  -0.903  0.00  0.00    +0.001 A 
ATOM     28  C   UNL     1      -1.918  -8.988  -2.140  0.00  0.00    +0.000 A 
ATOM     29  C   UNL     1      -1.929  -8.102  -3.203  0.00  0.00    +0.001 A 
ATOM     30  C   UNL     1      -1.471  -6.812  -3.033  0.00  0.00    +0.009 A 
ENDBRANCH  24  25
ENDBRANCH   8  23
BRANCH   1  31
ATOM     31  C   UNL     1       1.317  -0.740  -0.015  0.00  0.00    +0.155 C 
BRANCH  31  33
ATOM     32  C   UNL     1      -0.016   1.306   0.009  0.00  0.00    +0.005 C 
ATOM     33  C   UNL     1       0.002  -0.004   0.002  0.00  0.00    -0.013 C 
ENDBRANCH  31  33
ENDBRANCH   1  31
TORSDOF 4
