REMARK  Name = ZINC33457740
REMARK  8 active torsions:
REMARK  status: ('A' for Active; 'I' for Inactive)
REMARK    1  A    between atoms: C_1  and  C_2
REMARK    2  A    between atoms: C_2  and  C_3
REMARK    3  A    between atoms: C_3  and  C_4
REMARK    4  A    between atoms: C_4  and  N_5
REMARK    5  A    between atoms: C_10  and  C_25
REMARK    6  A    between atoms: C_13  and  C_18
REMARK    7  A    between atoms: C_13  and  C_22
REMARK    8  A    between atoms: C_18  and  C_19
REMARK                            x       y       z     vdW  Elec       q    Type
REMARK                         _______ _______ _______ _____ _____    ______ ____
ROOT
ATOM      1  N   UNL     1      -3.097   4.708  -1.010  0.00  0.00    -0.242 N 
ATOM      2  C   UNL     1      -2.810   4.165  -2.199  0.00  0.00    +0.224 C 
ATOM      3  O   UNL     1      -3.454   4.320  -3.214  0.00  0.00    -0.275 OA
ATOM      4  C   UNL     1      -1.558   3.326  -2.078  0.00  0.00    +0.077 C 
ATOM      5  C   UNL     1      -1.927   1.836  -2.235  0.00  0.00    -0.020 C 
ATOM      6  N   UNL     1      -2.310   1.397  -0.869  0.00  0.00    +0.396 N 
ATOM      7  C   UNL     1      -1.331   2.074   0.020  0.00  0.00    +0.058 C 
ATOM      8  C   UNL     1      -1.163   3.483  -0.585  0.00  0.00    +0.086 C 
ATOM      9  C   UNL     1      -2.239   4.392  -0.033  0.00  0.00    +0.225 C 
ATOM     10  O   UNL     1      -2.312   4.775   1.115  0.00  0.00    -0.275 OA
ATOM     11  H   UNL     1      -3.343   1.710  -0.659  0.00  0.00    -0.083 HD
ATOM     12  H   UNL     1      -2.238   0.301  -0.803  0.00  0.00    -0.083 HD
ENDROOT
BRANCH   5  13
ATOM     13  C   UNL     1      -3.087   1.680  -3.184  0.00  0.00    -0.022 A 
ATOM     14  C   UNL     1      -3.077   1.336  -4.494  0.00  0.00    +0.011 A 
ATOM     15  C   UNL     1      -4.278   1.249  -5.174  0.00  0.00    +0.028 A 
ATOM     16  C   UNL     1      -5.430   1.522  -4.511  0.00  0.00    +0.078 A 
ATOM     17  S   UNL     1      -4.831   1.909  -2.875  0.00  0.00    -0.083 S 
ATOM     18 CL   UNL     1      -7.062   1.501  -5.101  0.00  0.00    -0.076 Cl
ENDBRANCH   5  13
BRANCH   7  19
ATOM     19  C   UNL     1      -0.016   1.338   0.009  0.00  0.00    +0.347 C 
ATOM     20  O   UNL     1       1.022   1.956   0.003  0.00  0.00    -0.248 OA
ATOM     21  O   UNL     1       0.002  -0.004   0.002  0.00  0.00    -0.248 OA
ENDBRANCH   7  19
BRANCH   1  22
ATOM     22  C   UNL     1      -4.256   5.578  -0.796  0.00  0.00    +0.116 C 
BRANCH  22  23
ATOM     23  C   UNL     1      -5.462   4.729  -0.387  0.00  0.00    +0.019 C 
BRANCH  23  25
ATOM     24  C   UNL     1      -7.878   4.788   0.245  0.00  0.00    +0.004 C 
ATOM     25  C   UNL     1      -6.673   5.637  -0.163  0.00  0.00    -0.002 C 
ENDBRANCH  23  25
ENDBRANCH  22  23
ENDBRANCH   1  22
BRANCH   7  26
ATOM     26  C   UNL     1      -1.878   2.167   1.446  0.00  0.00    +0.125 C 
BRANCH  26  27
ATOM     27  C   UNL     1      -2.070   0.779   2.001  0.00  0.00    +0.355 C 
ATOM     28  O   UNL     1      -1.798  -0.185   1.326  0.00  0.00    -0.246 OA
ATOM     29  O   UNL     1      -2.544   0.615   3.246  0.00  0.00    -0.246 OA
ENDBRANCH  26  27
ENDBRANCH   7  26
TORSDOF 7
