REMARK  Name = ZINC27020858
REMARK  7 active torsions:
REMARK  status: ('A' for Active; 'I' for Inactive)
REMARK    1  A    between atoms: C_1  and  C_2
REMARK    2  A    between atoms: C_5  and  C_8
REMARK    3  A    between atoms: C_8  and  N_9
REMARK    4  A    between atoms: N_9  and  C_10
REMARK    5  A    between atoms: C_11  and  C_21
REMARK    6  A    between atoms: N_25  and  C_29
REMARK    7  A    between atoms: C_29  and  C_30
REMARK                            x       y       z     vdW  Elec       q    Type
REMARK                         _______ _______ _______ _____ _____    ______ ____
ROOT
ATOM      1  C   UNL     1       6.043   3.330   6.363  0.00  0.00    +0.134 A 
ATOM      2  C   UNL     1       5.688   2.346   5.411  0.00  0.00    +0.081 A 
ATOM      3  C   UNL     1       5.874   0.984   5.750  0.00  0.00    +0.267 A 
ATOM      4  O   UNL     1       5.585   0.103   4.959  0.00  0.00    -0.267 OA
ATOM      5  N   UNL     1       6.377   0.677   6.965  0.00  0.00    -0.268 N 
ATOM      6  C   UNL     1       6.559  -0.631   7.300  0.00  0.00    +0.096 A 
ATOM      7  C   UNL     1       7.061  -0.973   8.508  0.00  0.00    +0.018 A 
ATOM      8  C   UNL     1       7.401   0.022   9.435  0.00  0.00    +0.005 A 
ATOM      9  C   UNL     1       7.221   1.334   9.110  0.00  0.00    +0.047 A 
ATOM     10  C   UNL     1       6.699   1.670   7.848  0.00  0.00    +0.142 A 
ATOM     11  N   UNL     1       6.528   2.956   7.539  0.00  0.00    -0.214 NA
ENDROOT
BRANCH   2  12
ATOM     12  C   UNL     1       5.165   2.714   4.149  0.00  0.00    +0.037 C 
ATOM     13  C   UNL     1       5.870   3.553   3.336  0.00  0.00    +0.077 C 
ATOM     14  C   UNL     1       5.491   4.146   2.098  0.00  0.00    +0.259 C 
ATOM     15  O   UNL     1       4.394   3.932   1.611  0.00  0.00    -0.269 OA
ATOM     16  N   UNL     1       6.363   4.930   1.490  0.00  0.00    -0.248 N 
ATOM     17  C   UNL     1       7.577   5.171   2.033  0.00  0.00    +0.121 C 
ATOM     18  S   UNL     1       8.848   6.149   1.432  0.00  0.00    -0.027 S 
ATOM     19  S   UNL     1       7.519   4.211   3.539  0.00  0.00    -0.061 S 
BRANCH  16  20
ATOM     20  C   UNL     1       6.007   5.553   0.213  0.00  0.00    +0.189 C 
BRANCH  20  21
ATOM     21  C   UNL     1       6.417   4.646  -0.919  0.00  0.00    +0.122 A 
ATOM     22  C   UNL     1       5.654   3.687  -1.474  0.00  0.00    +0.046 A 
ATOM     23  C   UNL     1       6.429   3.087  -2.493  0.00  0.00    +0.041 A 
ATOM     24  C   UNL     1       7.619   3.715  -2.500  0.00  0.00    +0.195 A 
ATOM     25  O   UNL     1       7.605   4.659  -1.544  0.00  0.00    -0.466 OA
ENDBRANCH  20  21
ENDBRANCH  16  20
ENDBRANCH   2  12
BRANCH   1  26
ATOM     26  N   UNL     1       5.884   4.667   6.072  0.00  0.00    -0.324 N 
ATOM     27  H   UNL     1       5.479   4.973   5.096  0.00  0.00    +0.148 HD
BRANCH  26  28
ATOM     28  C   UNL     1       6.254   5.681   7.062  0.00  0.00    +0.138 C 
BRANCH  28  33
ATOM     29  C   UNL     1       5.218  10.943   4.910  0.00  0.00    +0.044 C 
ATOM     30  C   UNL     1       5.488   9.571   5.471  0.00  0.00    -0.050 A 
ATOM     31  C   UNL     1       4.503   8.907   6.178  0.00  0.00    +0.003 A 
ATOM     32  C   UNL     1       4.751   7.648   6.693  0.00  0.00    +0.005 A 
ATOM     33  C   UNL     1       5.984   7.053   6.501  0.00  0.00    -0.030 A 
ATOM     34  C   UNL     1       6.970   7.719   5.798  0.00  0.00    +0.005 A 
ATOM     35  C   UNL     1       6.721   8.976   5.280  0.00  0.00    +0.003 A 
ENDBRANCH  28  33
ENDBRANCH  26  28
ENDBRANCH   1  26
TORSDOF 6
