REMARK  Name = ZINC03011323
REMARK  6 active torsions:
REMARK  status: ('A' for Active; 'I' for Inactive)
REMARK    1  A    between atoms: C_1  and  C_2
REMARK    2  A    between atoms: C_5  and  C_8
REMARK    3  A    between atoms: C_11  and  C_32
REMARK    4  A    between atoms: C_16  and  C_18
REMARK    5  A    between atoms: N_20  and  C_21
REMARK    6  A    between atoms: C_26  and  C_27
REMARK                            x       y       z     vdW  Elec       q    Type
REMARK                         _______ _______ _______ _____ _____    ______ ____
ROOT
ATOM      1  C   UNL     1       0.084  -4.291  -0.061  0.00  0.00    +0.104 C 
ATOM      2  C   UNL     1      -1.330  -4.822   0.199  0.00  0.00    +0.063 C 
ATOM      3  C   UNL     1      -1.332  -6.354   0.132  0.00  0.00    +0.215 C 
ATOM      4  N   UNL     1      -0.250  -6.867   0.976  0.00  0.00    -0.238 N 
ATOM      5  C   UNL     1       0.818  -6.116   1.380  0.00  0.00    +0.119 A 
ATOM      6  C   UNL     1       1.613  -6.893   2.141  0.00  0.00    +0.078 A 
ATOM      7  C   UNL     1       1.020  -8.174   2.211  0.00  0.00    +0.149 A 
ATOM      8  N   UNL     1      -0.099  -8.147   1.507  0.00  0.00    -0.164 NA
ATOM      9  N   UNL     1       0.977  -4.776   1.010  0.00  0.00    -0.322 N 
ATOM     10  H   UNL     1       1.632  -4.199   1.433  0.00  0.00    +0.148 HD
ENDROOT
BRANCH   1  15
ATOM     11  C   UNL     1       0.014   1.487  -0.062  0.00  0.00    +0.044 C 
ATOM     12  C   UNL     1       0.032  -0.020  -0.062  0.00  0.00    -0.050 A 
ATOM     13  C   UNL     1       0.042  -0.711  -1.259  0.00  0.00    +0.004 A 
ATOM     14  C   UNL     1       0.059  -2.093  -1.259  0.00  0.00    +0.006 A 
ATOM     15  C   UNL     1       0.067  -2.784  -0.062  0.00  0.00    -0.027 A 
ATOM     16  C   UNL     1       0.058  -2.093   1.135  0.00  0.00    +0.006 A 
ATOM     17  C   UNL     1       0.045  -0.710   1.135  0.00  0.00    +0.004 A 
ENDBRANCH   1  15
BRANCH   7  18
ATOM     18  C   UNL     1       1.556  -9.339   2.942  0.00  0.00    +0.268 C 
ATOM     19  O   UNL     1       2.600  -9.242   3.558  0.00  0.00    -0.268 OA
ATOM     20  N   UNL     1       0.888 -10.509   2.928  0.00  0.00    -0.280 N 
ATOM     21  H   UNL     1       0.017 -10.566   2.506  0.00  0.00    +0.155 HD
BRANCH  20  22
ATOM     22  C   UNL     1       1.452 -11.643   3.523  0.00  0.00    +0.045 A 
ATOM     23  C   UNL     1       2.830 -11.744   3.662  0.00  0.00    +0.024 A 
ATOM     24  C   UNL     1       3.383 -12.865   4.250  0.00  0.00    +0.002 A 
ATOM     25  C   UNL     1       2.566 -13.886   4.700  0.00  0.00    +0.001 A 
ATOM     26  C   UNL     1       1.193 -13.788   4.563  0.00  0.00    +0.014 A 
ATOM     27  C   UNL     1       0.633 -12.668   3.981  0.00  0.00    +0.076 A 
BRANCH  27  28
ATOM     28  C   UNL     1      -0.863 -12.559   3.838  0.00  0.00    +0.419 C 
ATOM     29  F   UNL     1      -1.466 -13.704   4.369  0.00  0.00    -0.166 F 
ATOM     30  F   UNL     1      -1.317 -11.430   4.529  0.00  0.00    -0.166 F 
ATOM     31  F   UNL     1      -1.195 -12.442   2.484  0.00  0.00    -0.166 F 
ENDBRANCH  27  28
ENDBRANCH  20  22
ENDBRANCH   7  18
BRANCH   3  32
ATOM     32  C   UNL     1      -2.675  -6.886   0.636  0.00  0.00    +0.412 C 
ATOM     33  F   UNL     1      -3.707  -6.384  -0.164  0.00  0.00    -0.168 F 
ATOM     34  F   UNL     1      -2.676  -8.284   0.575  0.00  0.00    -0.168 F 
ATOM     35  F   UNL     1      -2.872  -6.478   1.960  0.00  0.00    -0.168 F 
ENDBRANCH   3  32
TORSDOF 5
