REMARK  Name = ZINC39987470
REMARK  13 active torsions:
REMARK  status: ('A' for Active; 'I' for Inactive)
REMARK    1  A    between atoms: C_1  and  C_2
REMARK    2  A    between atoms: C_2  and  C_4
REMARK    3  A    between atoms: C_2  and  O_31
REMARK    4  A    between atoms: N_6  and  N_7
REMARK    5  A    between atoms: N_15  and  C_18
REMARK    6  A    between atoms: C_18  and  C_19
REMARK    7  A    between atoms: C_19  and  C_20
REMARK    8  A    between atoms: C_20  and  O_21
REMARK    9  A    between atoms: O_21  and  C_22
REMARK   10  A    between atoms: C_27  and  O_28
REMARK   11  A    between atoms: O_28  and  C_29
REMARK   12  A    between atoms: O_31  and  C_32
REMARK   13  A    between atoms: C_35  and  O_38
REMARK                            x       y       z     vdW  Elec       q    Type
REMARK                         _______ _______ _______ _____ _____    ______ ____
ROOT
ATOM      1  N   UNL     1      -3.674  -0.346  -0.760  0.00  0.00    -0.174 NA
ATOM      2  C   UNL     1      -4.491  -0.095  -1.754  0.00  0.00    +0.153 C 
ATOM      3  C   UNL     1      -5.954  -0.323  -1.800  0.00  0.00    +0.030 A 
ATOM      4  C   UNL     1      -6.867  -0.834  -0.884  0.00  0.00    +0.032 A 
ATOM      5  C   UNL     1      -8.202  -0.925  -1.225  0.00  0.00    +0.042 A 
ATOM      6  C   UNL     1      -8.628  -0.509  -2.476  0.00  0.00    +0.022 A 
ATOM      7  C   UNL     1      -7.729  -0.000  -3.392  0.00  0.00    +0.025 A 
ATOM      8  C   UNL     1      -6.381   0.100  -3.065  0.00  0.00    +0.046 A 
ATOM      9  N   UNL     1      -5.288   0.566  -3.788  0.00  0.00    -0.265 N 
ATOM     10  C   UNL     1      -4.154   0.483  -3.071  0.00  0.00    +0.271 C 
ATOM     11  O   UNL     1      -3.046   0.822  -3.442  0.00  0.00    -0.268 OA
ATOM     12 CL   UNL     1      -9.347  -1.563  -0.086  0.00  0.00    -0.084 Cl
ENDROOT
BRANCH   1  15
ATOM     13  C   UNL     1      -1.469  -0.319   0.136  0.00  0.00    +0.273 C 
ATOM     14  O   UNL     1      -1.896  -0.798   1.165  0.00  0.00    -0.270 OA
ATOM     15  N   UNL     1      -2.309  -0.060  -0.886  0.00  0.00    -0.203 N 
ATOM     16  H   UNL     1      -1.967   0.323  -1.709  0.00  0.00    +0.177 HD
BRANCH  13  18
ATOM     17  C   UNL     1       0.195   1.500  -0.138  0.00  0.00    +0.062 C 
ATOM     18  C   UNL     1       0.000  -0.012   0.000  0.00  0.00    +0.257 C 
BRANCH  18  19
ATOM     19  O   UNL     1       0.693  -0.477   1.160  0.00  0.00    -0.480 OA
BRANCH  19  20
ATOM     20  C   UNL     1       2.015  -0.764   1.016  0.00  0.00    +0.122 A 
ATOM     21  C   UNL     1       2.720  -1.330   2.067  0.00  0.00    +0.049 A 
ATOM     22  C   UNL     1       4.062  -1.622   1.921  0.00  0.00    +0.049 A 
ATOM     23  C   UNL     1       4.705  -1.348   0.722  0.00  0.00    +0.117 A 
ATOM     24  C   UNL     1       3.999  -0.783  -0.330  0.00  0.00    +0.049 A 
ATOM     25  C   UNL     1       2.656  -0.495  -0.185  0.00  0.00    +0.049 A 
BRANCH  23  26
ATOM     26  O   UNL     1       6.026  -1.634   0.578  0.00  0.00    -0.507 OA
ATOM     27  H   UNL     1       6.202  -2.523   0.242  0.00  0.00    +0.292 HD
ENDBRANCH  23  26
ENDBRANCH  19  20
ENDBRANCH  18  19
ENDBRANCH  13  18
ENDBRANCH   1  15
BRANCH   9  28
ATOM     28  C   UNL     1      -5.364   1.087  -5.155  0.00  0.00    +0.117 C 
BRANCH  28  29
ATOM     29  C   UNL     1      -5.614   2.596  -5.112  0.00  0.00    +0.060 C 
BRANCH  29  30
ATOM     30  C   UNL     1      -5.693   3.140  -6.540  0.00  0.00    +0.231 C 
BRANCH  30  31
ATOM     31  O   UNL     1      -5.926   4.550  -6.500  0.00  0.00    -0.488 OA
BRANCH  31  32
ATOM     32  C   UNL     1      -6.024   5.193  -7.694  0.00  0.00    +0.162 A 
ATOM     33  C   UNL     1      -5.904   4.483  -8.877  0.00  0.00    +0.049 A 
ATOM     34  C   UNL     1      -6.003   5.139 -10.090  0.00  0.00    +0.004 A 
ATOM     35  C   UNL     1      -6.223   6.503 -10.126  0.00  0.00    +0.004 A 
ATOM     36  C   UNL     1      -6.343   7.218  -8.949  0.00  0.00    +0.049 A 
ATOM     37  C   UNL     1      -6.250   6.566  -7.730  0.00  0.00    +0.161 A 
BRANCH  37  38
ATOM     38  O   UNL     1      -6.374   7.267  -6.571  0.00  0.00    -0.491 OA
ATOM     39  C   UNL     1      -6.605   8.672  -6.684  0.00  0.00    +0.277 C 
ENDBRANCH  37  38
ENDBRANCH  31  32
ENDBRANCH  30  31
ENDBRANCH  29  30
ENDBRANCH  28  29
ENDBRANCH   9  28
TORSDOF 11
