REMARK  Name = ZINC24714756
REMARK  5 active torsions:
REMARK  status: ('A' for Active; 'I' for Inactive)
REMARK    1  A    between atoms: C_1  and  C_2
REMARK    2  A    between atoms: C_2  and  N_3
REMARK    3  A    between atoms: C_11  and  C_12
REMARK    4  A    between atoms: C_12  and  N_13
REMARK    5  A    between atoms: C_14  and  C_16
REMARK                            x       y       z     vdW  Elec       q    Type
REMARK                         _______ _______ _______ _____ _____    ______ ____
ROOT
ATOM      1  N   UNL     1      -4.030   3.167   1.011  0.00  0.00    -0.304 N 
ATOM      2  C   UNL     1      -5.238   2.728   0.606  0.00  0.00    +0.245 C 
ATOM      3  O   UNL     1      -5.432   2.479  -0.568  0.00  0.00    -0.270 OA
ATOM      4  H   UNL     1      -3.854   3.393   2.073  0.00  0.00    +0.149 HD
ENDROOT
BRANCH   2   5
ATOM      5  C   UNL     1      -6.324   2.550   1.587  0.00  0.00    +0.044 A 
ATOM      6  C   UNL     1      -6.119   2.825   2.935  0.00  0.00    +0.014 A 
ATOM      7  C   UNL     1      -7.129   2.672   3.880  0.00  0.00    +0.005 A 
ATOM      8  C   UNL     1      -8.365   2.229   3.510  0.00  0.00    -0.039 A 
ATOM      9  C   UNL     1      -8.590   1.943   2.167  0.00  0.00    -0.011 A 
ATOM     10  C   UNL     1      -7.601   2.089   1.180  0.00  0.00    -0.005 A 
ATOM     11  C   UNL     1      -7.938   1.771  -0.142  0.00  0.00    +0.009 A 
ATOM     12  C   UNL     1      -9.205   1.335  -0.412  0.00  0.00    +0.001 A 
ATOM     13  C   UNL     1     -10.173   1.196   0.584  0.00  0.00    +0.004 A 
ATOM     14  C   UNL     1      -9.877   1.498   1.878  0.00  0.00    -0.039 A 
ATOM     15  C   UNL     1     -10.647   1.469   3.175  0.00  0.00    +0.040 C 
ATOM     16  C   UNL     1      -9.651   1.951   4.252  0.00  0.00    +0.040 C 
ENDBRANCH   2   5
BRANCH   1  17
ATOM     17  C   UNL     1      -2.950   3.344   0.036  0.00  0.00    +0.179 C 
BRANCH  17  26
ATOM     18  N   UNL     1      -0.749   3.044   1.275  0.00  0.00    -0.327 N 
ATOM     19  C   UNL     1       0.206   3.872   1.831  0.00  0.00    +0.069 A 
ATOM     20  C   UNL     1       1.397   3.655   2.509  0.00  0.00    +0.028 A 
ATOM     21  C   UNL     1       2.139   4.731   2.948  0.00  0.00    +0.002 A 
ATOM     22  C   UNL     1       1.702   6.028   2.716  0.00  0.00    +0.002 A 
ATOM     23  C   UNL     1       0.537   6.261   2.043  0.00  0.00    +0.030 A 
ATOM     24  C   UNL     1      -0.234   5.185   1.593  0.00  0.00    +0.089 A 
ATOM     25  N   UNL     1      -1.414   5.093   0.927  0.00  0.00    -0.231 NA
ATOM     26  C   UNL     1      -1.714   3.840   0.741  0.00  0.00    +0.128 A 
BRANCH  18  28
ATOM     27  C   UNL     1      -0.013   1.086   0.008  0.00  0.00    +0.027 C 
ATOM     28  C   UNL     1      -0.729   1.579   1.267  0.00  0.00    +0.120 C 
ENDBRANCH  18  28
ENDBRANCH  17  26
ENDBRANCH   1  17
TORSDOF 4
