REMARK  Name = ZINC08769390
REMARK  8 active torsions:
REMARK  status: ('A' for Active; 'I' for Inactive)
REMARK    1  A    between atoms: C_1  and  O_2
REMARK    2  A    between atoms: O_2  and  C_3
REMARK    3  A    between atoms: C_6  and  C_9
REMARK    4  A    between atoms: C_9  and  C_10
REMARK    5  A    between atoms: N_16  and  C_19
REMARK    6  A    between atoms: N_26  and  C_27
REMARK    7  A    between atoms: C_27  and  C_28
REMARK    8  A    between atoms: C_28  and  C_29
REMARK                            x       y       z     vdW  Elec       q    Type
REMARK                         _______ _______ _______ _____ _____    ______ ____
ROOT
ATOM      1  C   UNL     1      -5.448   1.721   2.892  0.00  0.00    +0.064 C 
ATOM      2  N   UNL     1      -4.944   2.328   1.778  0.00  0.00    -0.286 NA
ENDROOT
BRANCH   1   3
ATOM      3  C   UNL     1      -6.473   0.776   2.770  0.00  0.00    +0.210 C 
ATOM      4  C   UNL     1      -7.146   0.537   1.485  0.00  0.00    +0.238 C 
ATOM      5  O   UNL     1      -6.826   1.157   0.488  0.00  0.00    -0.274 OA
ATOM      6  N   UNL     1      -8.123  -0.393   1.439  0.00  0.00    -0.238 N 
ATOM      7  C   UNL     1      -8.488  -1.078   2.532  0.00  0.00    +0.319 C 
ATOM      8  O   UNL     1      -9.379  -1.899   2.426  0.00  0.00    -0.251 OA
ATOM      9  N   UNL     1      -7.922  -0.906   3.734  0.00  0.00    -0.193 N 
ATOM     10  C   UNL     1      -6.928  -0.013   3.923  0.00  0.00    +0.245 C 
ATOM     11  O   UNL     1      -6.422   0.135   5.020  0.00  0.00    -0.274 OA
ATOM     12  H   UNL     1      -8.573  -0.565   0.598  0.00  0.00    +0.159 HD
BRANCH   9  13
ATOM     13  C   UNL     1      -8.372  -1.670   4.820  0.00  0.00    +0.045 A 
ATOM     14  C   UNL     1      -7.555  -2.651   5.366  0.00  0.00    +0.025 A 
ATOM     15  C   UNL     1      -7.998  -3.398   6.439  0.00  0.00    +0.017 A 
ATOM     16  C   UNL     1      -9.260  -3.178   6.963  0.00  0.00    +0.018 A 
ATOM     17  C   UNL     1     -10.078  -2.206   6.417  0.00  0.00    +0.017 A 
ATOM     18  C   UNL     1      -9.637  -1.451   5.347  0.00  0.00    +0.025 A 
ATOM     19 BR   UNL     1      -9.867  -4.209   8.428  0.00  0.00    -0.050 Br
ENDBRANCH   9  13
ENDBRANCH   1   3
BRANCH   1  23
ATOM     20  C   UNL     1      -3.907   2.697   6.722  0.00  0.00    +0.120 A 
ATOM     21  C   UNL     1      -3.044   2.288   5.711  0.00  0.00    +0.046 A 
ATOM     22  C   UNL     1      -3.539   1.971   4.467  0.00  0.00    +0.013 A 
ATOM     23  C   UNL     1      -4.914   2.059   4.220  0.00  0.00    -0.003 A 
ATOM     24  C   UNL     1      -5.778   2.477   5.239  0.00  0.00    +0.013 A 
ATOM     25  C   UNL     1      -5.274   2.786   6.482  0.00  0.00    +0.046 A 
BRANCH  20  27
ATOM     26  C   UNL     1      -4.356   3.422   8.939  0.00  0.00    +0.277 C 
ATOM     27  O   UNL     1      -3.414   3.009   7.947  0.00  0.00    -0.495 OA
ENDBRANCH  20  27
ENDBRANCH   1  23
BRANCH   2  28
ATOM     28  C   UNL     1      -3.870   3.316   1.905  0.00  0.00    +0.146 C 
BRANCH  28  29
ATOM     29  C   UNL     1      -3.411   3.752   0.512  0.00  0.00    +0.060 C 
BRANCH  29  30
ATOM     30  C   UNL     1      -2.306   4.769   0.643  0.00  0.00    -0.021 A 
ATOM     31  C   UNL     1      -2.445   6.104   0.628  0.00  0.00    +0.087 A 
ATOM     32  N   UNL     1      -1.221   6.702   0.767  0.00  0.00    -0.360 N 
ATOM     33  H   UNL     1      -1.067   7.659   0.782  0.00  0.00    +0.165 HD
ATOM     34  C   UNL     1      -0.242   5.741   0.883  0.00  0.00    +0.047 A 
ATOM     35  C   UNL     1      -0.879   4.489   0.814  0.00  0.00    +0.003 A 
ATOM     36  C   UNL     1      -0.124   3.317   0.903  0.00  0.00    +0.010 A 
ATOM     37  C   UNL     1       1.231   3.394   1.058  0.00  0.00    +0.001 A 
ATOM     38  C   UNL     1       1.865   4.627   1.127  0.00  0.00    +0.002 A 
ATOM     39  C   UNL     1       1.139   5.795   1.040  0.00  0.00    +0.026 A 
ENDBRANCH  29  30
ENDBRANCH  28  29
ENDBRANCH   2  28
TORSDOF 7
