REMARK  Name = ZINC03641513
REMARK  4 active torsions:
REMARK  status: ('A' for Active; 'I' for Inactive)
REMARK    1  A    between atoms: C_1  and  C_2
REMARK    2  A    between atoms: C_5  and  S_8
REMARK    3  A    between atoms: S_8  and  N_11
REMARK    4  A    between atoms: N_11  and  N_12
REMARK                            x       y       z     vdW  Elec       q    Type
REMARK                         _______ _______ _______ _____ _____    ______ ____
ROOT
ATOM      1  N   UNL     1       1.301   5.980  -0.206  0.00  0.00    -0.190 N 
ATOM      2  C   UNL     1       0.233   5.169  -0.045  0.00  0.00    +0.265 C 
ATOM      3  O   UNL     1      -0.884   5.635   0.071  0.00  0.00    -0.268 OA
ATOM      4  C   UNL     1       0.441   3.709  -0.012  0.00  0.00    +0.059 A 
ATOM      5  C   UNL     1      -0.612   2.814  -0.181  0.00  0.00    +0.015 A 
ATOM      6  C   UNL     1      -0.366   1.457  -0.129  0.00  0.00    +0.001 A 
ATOM      7  C   UNL     1       0.916   0.983   0.099  0.00  0.00    +0.002 A 
ATOM      8  C   UNL     1       1.972   1.860   0.262  0.00  0.00    +0.024 A 
ATOM      9  C   UNL     1       1.742   3.223   0.207  0.00  0.00    +0.041 A 
ATOM     10  N   UNL     1       2.769   4.152   0.350  0.00  0.00    -0.322 N 
ATOM     11  C   UNL     1       2.646   5.431  -0.356  0.00  0.00    +0.118 C 
ATOM     12  C   UNL     1       2.963   5.229  -1.850  0.00  0.00    +0.047 C 
ATOM     13  C   UNL     1       3.734   6.513  -2.250  0.00  0.00    +0.004 C 
ATOM     14  C   UNL     1       4.599   6.798  -0.997  0.00  0.00    +0.004 C 
ATOM     15  C   UNL     1       3.683   6.426   0.188  0.00  0.00    +0.047 C 
ATOM     16  H   UNL     1       3.543   3.959   0.901  0.00  0.00    +0.148 HD
ENDROOT
BRANCH   1  17
ATOM     17  N   UNL     1       1.115   7.368  -0.228  0.00  0.00    -0.103 NA
ATOM     18  H   UNL     1       1.234   7.860  -1.056  0.00  0.00    +0.172 HD
BRANCH  17  19
ATOM     19  S   UNL     1       0.694   8.170   1.159  0.00  0.00    +0.074 S 
ATOM     20  O   UNL     1       0.851   9.556   0.890  0.00  0.00    -0.152 OA
ATOM     21  O   UNL     1      -0.540   7.613   1.591  0.00  0.00    -0.152 OA
BRANCH  19  26
ATOM     22  C   UNL     1       4.790   6.751   5.355  0.00  0.00    +0.044 C 
ATOM     23  C   UNL     1       3.767   7.105   4.307  0.00  0.00    -0.050 A 
ATOM     24  C   UNL     1       3.967   8.202   3.489  0.00  0.00    +0.005 A 
ATOM     25  C   UNL     1       3.028   8.527   2.528  0.00  0.00    +0.029 A 
ATOM     26  C   UNL     1       1.890   7.755   2.384  0.00  0.00    +0.107 A 
ATOM     27  C   UNL     1       1.688   6.662   3.205  0.00  0.00    +0.029 A 
ATOM     28  C   UNL     1       2.629   6.334   4.164  0.00  0.00    +0.005 A 
ENDBRANCH  19  26
ENDBRANCH  17  19
ENDBRANCH   1  17
TORSDOF 3
