REMARK  Name = ZINC63446256
REMARK  4 active torsions:
REMARK  status: ('A' for Active; 'I' for Inactive)
REMARK    1  A    between atoms: C_1  and  C_2
REMARK    2  A    between atoms: C_10  and  S_12
REMARK    3  A    between atoms: S_12  and  C_13
REMARK    4  A    between atoms: C_13  and  C_14
REMARK                            x       y       z     vdW  Elec       q    Type
REMARK                         _______ _______ _______ _____ _____    ______ ____
ROOT
ATOM      1  S   UNL     1      -5.777   3.394  -4.318  0.00  0.00    -0.084 S 
ENDROOT
BRANCH   1  11
ATOM      2  C   UNL     1      -0.013   1.086   0.008  0.00  0.00    +0.067 C 
ATOM      3  C   UNL     1      -0.742   1.585  -1.213  0.00  0.00    +0.055 A 
ATOM      4  C   UNL     1      -0.030   1.822  -2.378  0.00  0.00    +0.041 A 
ATOM      5  C   UNL     1      -0.698   2.281  -3.503  0.00  0.00    +0.046 A 
ATOM      6  C   UNL     1      -2.067   2.486  -3.415  0.00  0.00    +0.087 A 
ATOM      7  C   UNL     1      -2.729   2.226  -2.202  0.00  0.00    +0.179 A 
ATOM      8  N   UNL     1      -2.042   1.782  -1.152  0.00  0.00    -0.230 NA
ATOM      9  N   UNL     1      -4.041   2.510  -2.399  0.00  0.00    -0.202 NA
ATOM     10  H   UNL     1      -2.897   3.183  -5.226  0.00  0.00    +0.168 HD
ATOM     11  C   UNL     1      -4.226   2.920  -3.631  0.00  0.00    +0.169 A 
ATOM     12  N   UNL     1      -3.036   2.923  -4.302  0.00  0.00    -0.332 N 
ATOM     13 BR   UNL     1       1.836   1.522  -2.433  0.00  0.00    -0.048 Br
ENDBRANCH   1  11
BRANCH   1  14
ATOM     14  C   UNL     1      -6.949   3.174  -2.951  0.00  0.00    +0.124 C 
BRANCH  14  15
ATOM     15  C   UNL     1      -8.355   3.557  -3.417  0.00  0.00    +0.184 C 
ATOM     16  N   UNL     1      -8.733   2.755  -4.588  0.00  0.00    -0.363 N 
ATOM     17  C   UNL     1      -8.948   3.579  -5.572  0.00  0.00    +0.060 A 
ATOM     18  C   UNL     1      -9.348   3.380  -6.972  0.00  0.00    +0.027 A 
ATOM     19  C   UNL     1      -9.497   4.449  -7.780  0.00  0.00    +0.002 A 
ATOM     20  C   UNL     1      -9.284   5.767  -7.339  0.00  0.00    +0.002 A 
ATOM     21  C   UNL     1      -8.915   6.061  -6.077  0.00  0.00    +0.027 A 
ATOM     22  C   UNL     1      -8.723   4.974  -5.106  0.00  0.00    +0.060 A 
ATOM     23  N   UNL     1      -8.378   4.959  -3.851  0.00  0.00    -0.363 N 
ATOM     24  H   UNL     1      -8.808   1.788  -4.621  0.00  0.00    +0.162 HD
ATOM     25  H   UNL     1      -8.174   5.733  -3.303  0.00  0.00    +0.162 HD
ENDBRANCH  14  15
ENDBRANCH   1  14
TORSDOF 3
