REMARK  Name = ZINC65331166
REMARK  5 active torsions:
REMARK  status: ('A' for Active; 'I' for Inactive)
REMARK    1  A    between atoms: C_2  and  C_3
REMARK    2  A    between atoms: C_3  and  O_4
REMARK    3  A    between atoms: O_4  and  C_5
REMARK    4  A    between atoms: C_10  and  C_11
REMARK    5  A    between atoms: N_21  and  C_22
REMARK                            x       y       z     vdW  Elec       q    Type
REMARK                         _______ _______ _______ _____ _____    ______ ____
ROOT
ATOM      1  C   UNL     1       1.218  -3.928   2.800  0.00  0.00    +0.066 C 
ATOM      2  C   UNL     1       1.599  -3.828   4.280  0.00  0.00    +0.109 C 
ATOM      3  C   UNL     1       2.379  -5.029   4.729  0.00  0.00    +0.219 C 
ATOM      4  O   UNL     1       3.274  -4.879   5.533  0.00  0.00    -0.275 OA
ATOM      5  N   UNL     1       2.119  -6.272   4.268  0.00  0.00    -0.270 N 
ATOM      6  C   UNL     1       1.182  -6.408   3.244  0.00  0.00    +0.132 A 
ATOM      7  C   UNL     1       0.733  -5.329   2.527  0.00  0.00    +0.020 A 
ATOM      8  C   UNL     1      -0.179  -5.786   1.589  0.00  0.00    +0.141 A 
ATOM      9  N   UNL     1      -0.290  -7.088   1.722  0.00  0.00    -0.173 NA
ATOM     10  N   UNL     1       0.560  -7.504   2.763  0.00  0.00    -0.218 N 
ATOM     11  H   UNL     1       2.570  -7.047   4.638  0.00  0.00    +0.156 HD
ENDROOT
BRANCH  10  12
ATOM     12  C   UNL     1       0.729  -8.819   3.217  0.00  0.00    +0.069 A 
ATOM     13  C   UNL     1       1.973  -9.245   3.664  0.00  0.00    +0.028 A 
ATOM     14  C   UNL     1       2.138 -10.541   4.112  0.00  0.00    +0.003 A 
ATOM     15  C   UNL     1       1.066 -11.415   4.115  0.00  0.00    +0.020 A 
ATOM     16  C   UNL     1      -0.175 -10.993   3.670  0.00  0.00    +0.043 A 
ATOM     17  C   UNL     1      -0.347  -9.695   3.227  0.00  0.00    +0.047 A 
ATOM     18 CL   UNL     1      -1.518 -12.093   3.675  0.00  0.00    -0.083 Cl
ENDBRANCH  10  12
BRANCH   1  24
ATOM     19  C   UNL     1       2.392  -2.577   1.044  0.00  0.00    +0.125 A 
ATOM     20  C   UNL     1       3.505  -2.304   0.261  0.00  0.00    +0.046 A 
ATOM     21  C   UNL     1       4.638  -3.086   0.377  0.00  0.00    +0.004 A 
ATOM     22  C   UNL     1       4.663  -4.140   1.271  0.00  0.00    +0.001 A 
ATOM     23  C   UNL     1       3.556  -4.415   2.051  0.00  0.00    +0.008 A 
ATOM     24  C   UNL     1       2.422  -3.632   1.944  0.00  0.00    +0.002 A 
BRANCH  19  25
ATOM     25  O   UNL     1       1.277  -1.809   0.933  0.00  0.00    -0.488 OA
BRANCH  25  26
ATOM     26  C   UNL     1       1.317  -0.740  -0.015  0.00  0.00    +0.256 C 
BRANCH  26  28
ATOM     27  C   UNL     1      -0.016   1.306   0.009  0.00  0.00    +0.007 C 
ATOM     28  C   UNL     1       0.002  -0.004   0.002  0.00  0.00    +0.006 C 
ENDBRANCH  26  28
ENDBRANCH  25  26
ENDBRANCH  19  25
ENDBRANCH   1  24
TORSDOF 5
