REMARK  Name = ZINC38670977
REMARK  8 active torsions:
REMARK  status: ('A' for Active; 'I' for Inactive)
REMARK    1  A    between atoms: C_1  and  N_2
REMARK    2  A    between atoms: C_10  and  C_12
REMARK    3  A    between atoms: C_12  and  C_14
REMARK    4  A    between atoms: C_12  and  N_31
REMARK    5  A    between atoms: C_14  and  N_15
REMARK    6  A    between atoms: C_16  and  C_18
REMARK    7  A    between atoms: C_18  and  C_19
REMARK    8  A    between atoms: C_18  and  C_25
REMARK                            x       y       z     vdW  Elec       q    Type
REMARK                         _______ _______ _______ _____ _____    ______ ____
ROOT
ATOM      1  C   UNL     1       3.633  -3.183  -0.284  0.00  0.00    -0.020 C 
ENDROOT
BRANCH   1  11
ATOM      2  C   UNL     1      -1.512   0.269   1.764  0.00  0.00    +0.129 C 
ATOM      3  N   UNL     1      -1.305  -1.178   1.657  0.00  0.00    -0.333 N 
ATOM      4  C   UNL     1      -2.369  -2.115   2.043  0.00  0.00    +0.105 C 
ATOM      5  C   UNL     1      -1.729  -3.233   2.877  0.00  0.00    +0.024 C 
ATOM      6  C   UNL     1      -0.730  -3.991   2.004  0.00  0.00    +0.038 C 
ATOM      7  C   UNL     1       0.222  -3.032   1.337  0.00  0.00    -0.026 A 
ATOM      8  C   UNL     1      -0.092  -1.689   1.182  0.00  0.00    +0.033 A 
ATOM      9  C   UNL     1       0.804  -0.832   0.553  0.00  0.00    +0.023 A 
ATOM     10  C   UNL     1       2.007  -1.316   0.079  0.00  0.00    +0.004 A 
ATOM     11  C   UNL     1       2.319  -2.654   0.231  0.00  0.00    -0.059 A 
ATOM     12  C   UNL     1       1.433  -3.509   0.866  0.00  0.00    +0.007 A 
ENDBRANCH   1  11
BRANCH   1  13
ATOM     13  N   UNL     1       3.936  -2.562  -1.581  0.00  0.00    +0.385 N 
ATOM     14  C   UNL     1       2.833  -2.819  -2.514  0.00  0.00    -0.078 C 
ATOM     15  C   UNL     1       3.106  -2.106  -3.841  0.00  0.00    -0.019 C 
ATOM     16  C   UNL     1       4.414  -2.632  -4.437  0.00  0.00    -0.004 C 
ATOM     17  C   UNL     1       5.544  -2.426  -3.424  0.00  0.00    -0.019 C 
ATOM     18  C   UNL     1       5.181  -3.127  -2.113  0.00  0.00    -0.078 C 
ATOM     19  H   UNL     1       4.045  -1.566  -1.458  0.00  0.00    -0.081 HD
ENDBRANCH   1  13
BRANCH   1  20
ATOM     20  C   UNL     1       4.744  -2.849   0.713  0.00  0.00    +0.093 C 
BRANCH  20  21
ATOM     21  N   UNL     1       4.479  -3.527   1.984  0.00  0.00    -0.316 N 
ATOM     22  C   UNL     1       5.364  -3.431   2.997  0.00  0.00    +0.225 C 
ATOM     23  O   UNL     1       6.379  -2.783   2.855  0.00  0.00    -0.275 OA
ATOM     24  H   UNL     1       3.667  -4.045   2.098  0.00  0.00    +0.149 HD
BRANCH  22  25
ATOM     25  C   UNL     1       5.091  -4.129   4.304  0.00  0.00    +0.135 C 
BRANCH  25  26
ATOM     26  C   UNL     1       4.970  -5.612   4.066  0.00  0.00    -0.031 A 
ATOM     27  C   UNL     1       5.964  -6.286   3.382  0.00  0.00    +0.005 A 
ATOM     28  C   UNL     1       5.852  -7.646   3.163  0.00  0.00    +0.000 A 
ATOM     29  C   UNL     1       4.747  -8.333   3.630  0.00  0.00    +0.000 A 
ATOM     30  C   UNL     1       3.753  -7.659   4.316  0.00  0.00    +0.000 A 
ATOM     31  C   UNL     1       3.867  -6.299   4.538  0.00  0.00    +0.005 A 
ENDBRANCH  25  26
BRANCH  25  32
ATOM     32  C   UNL     1       6.226  -3.865   5.260  0.00  0.00    -0.031 A 
ATOM     33  C   UNL     1       7.523  -4.172   4.895  0.00  0.00    +0.005 A 
ATOM     34  C   UNL     1       8.564  -3.930   5.772  0.00  0.00    +0.000 A 
ATOM     35  C   UNL     1       8.307  -3.380   7.014  0.00  0.00    +0.000 A 
ATOM     36  C   UNL     1       7.010  -3.072   7.379  0.00  0.00    +0.000 A 
ATOM     37  C   UNL     1       5.970  -3.310   6.500  0.00  0.00    +0.005 A 
ENDBRANCH  25  32
ENDBRANCH  22  25
ENDBRANCH  20  21
ENDBRANCH   1  20
TORSDOF 7
