REMARK  Name = ZINC39666870
REMARK  11 active torsions:
REMARK  status: ('A' for Active; 'I' for Inactive)
REMARK    1  A    between atoms: C_1  and  C_2
REMARK    2  A    between atoms: C_2  and  C_3
REMARK    3  A    between atoms: C_3  and  C_4
REMARK    4  A    between atoms: C_3  and  C_6
REMARK    5  A    between atoms: C_4  and  C_5
REMARK    6  A    between atoms: C_6  and  N_7
REMARK    7  A    between atoms: C_8  and  C_10
REMARK    8  A    between atoms: C_21  and  C_23
REMARK    9  A    between atoms: C_29  and  O_31
REMARK   10  A    between atoms: O_31  and  C_32
REMARK   11  A    between atoms: C_32  and  C_33
REMARK                            x       y       z     vdW  Elec       q    Type
REMARK                         _______ _______ _______ _____ _____    ______ ____
ROOT
ATOM      1  C   UNL     1       0.470  -4.280   3.200  0.00  0.00    +0.100 C 
ATOM      2  C   UNL     1      -0.260  -3.823   4.483  0.00  0.00    +0.121 C 
ATOM      3  N   UNL     1      -1.144  -4.959   4.835  0.00  0.00    -0.300 N 
ATOM      4  C   UNL     1      -0.331  -6.164   4.544  0.00  0.00    +0.115 C 
ATOM      5  C   UNL     1       0.425  -5.817   3.246  0.00  0.00    -0.004 C 
ATOM      6  C   UNL     1       1.839  -6.386   3.290  0.00  0.00    -0.010 C 
ATOM      7  C   UNL     1       1.770  -7.916   3.276  0.00  0.00    -0.082 C 
ATOM      8  N   UNL     1       1.077  -8.365   2.062  0.00  0.00    +0.379 N 
ATOM      9  C   UNL     1      -0.312  -7.890   2.073  0.00  0.00    -0.082 C 
ATOM     10  C   UNL     1      -0.330  -6.360   2.036  0.00  0.00    -0.010 C 
ATOM     11  C   UNL     1      -2.404  -4.908   5.313  0.00  0.00    +0.219 C 
ATOM     12  O   UNL     1      -3.002  -5.934   5.555  0.00  0.00    -0.275 OA
ATOM     13  H   UNL     1       1.550  -7.997   1.251  0.00  0.00    -0.086 HD
ATOM     14  H   UNL     1       1.086  -9.374   2.025  0.00  0.00    -0.086 HD
ENDROOT
BRANCH  11  15
ATOM     15  C   UNL     1      -3.068  -3.575   5.545  0.00  0.00    +0.078 C 
ATOM     16  C   UNL     1      -2.253  -2.769   6.559  0.00  0.00    +0.032 C 
ATOM     17  C   UNL     1      -2.912  -1.402   6.767  0.00  0.00    +0.112 C 
ATOM     18  N   UNL     1      -4.317  -1.607   7.147  0.00  0.00    -0.267 N 
ATOM     19  C   UNL     1      -5.167  -2.442   6.288  0.00  0.00    +0.112 C 
ATOM     20  C   UNL     1      -4.482  -3.798   6.085  0.00  0.00    +0.032 C 
ATOM     21  C   UNL     1      -4.816  -1.040   8.263  0.00  0.00    +0.403 C 
ATOM     22  O   UNL     1      -4.103  -0.351   8.966  0.00  0.00    -0.226 OA
BRANCH  21  23
ATOM     23  O   UNL     1      -6.105  -1.236   8.600  0.00  0.00    -0.445 OA
BRANCH  23  24
ATOM     24  C   UNL     1      -6.566  -0.605   9.796  0.00  0.00    +0.269 C 
BRANCH  24  25
ATOM     25  C   UNL     1      -8.021  -0.935  10.008  0.00  0.00    -0.010 A 
ATOM     26  C   UNL     1      -9.001  -0.122   9.470  0.00  0.00    +0.007 A 
ATOM     27  C   UNL     1     -10.335  -0.425   9.665  0.00  0.00    +0.000 A 
ATOM     28  C   UNL     1     -10.690  -1.541  10.399  0.00  0.00    +0.000 A 
ATOM     29  C   UNL     1      -9.711  -2.355  10.936  0.00  0.00    +0.000 A 
ATOM     30  C   UNL     1      -8.377  -2.055  10.738  0.00  0.00    +0.007 A 
ENDBRANCH  24  25
ENDBRANCH  23  24
ENDBRANCH  21  23
ENDBRANCH  11  15
BRANCH   1  32
ATOM     31  N   UNL     1       0.433  -3.559   0.834  0.00  0.00    -0.315 N 
ATOM     32  C   UNL     1      -0.248  -3.771   1.977  0.00  0.00    +0.218 C 
ATOM     33  O   UNL     1      -1.440  -3.551   2.022  0.00  0.00    -0.275 OA
ATOM     34  H   UNL     1       1.387  -3.735   0.798  0.00  0.00    +0.149 HD
BRANCH  31  35
ATOM     35  C   UNL     1      -0.265  -3.063  -0.354  0.00  0.00    +0.107 C 
BRANCH  35  36
ATOM     36  C   UNL     1       0.732  -2.911  -1.505  0.00  0.00    +0.006 C 
BRANCH  36  38
ATOM     37  C   UNL     1       2.369  -4.123  -2.951  0.00  0.00    +0.004 C 
ATOM     38  C   UNL     1       1.272  -4.287  -1.898  0.00  0.00    +0.002 C 
ENDBRANCH  36  38
BRANCH  36  39
ATOM     39  C   UNL     1       0.029  -2.276  -2.707  0.00  0.00    +0.002 C 
ATOM     40  C   UNL     1      -0.383  -0.845  -2.360  0.00  0.00    +0.004 C 
ENDBRANCH  36  39
ENDBRANCH  35  36
ENDBRANCH  31  35
ENDBRANCH   1  32
TORSDOF 9
