REMARK  Name = ZINC67434561
REMARK  7 active torsions:
REMARK  status: ('A' for Active; 'I' for Inactive)
REMARK    1  A    between atoms: C_1  and  C_2
REMARK    2  A    between atoms: C_5  and  C_28
REMARK    3  A    between atoms: C_14  and  C_16
REMARK    4  A    between atoms: N_18  and  C_19
REMARK    5  A    between atoms: C_19  and  C_20
REMARK    6  A    between atoms: C_23  and  S_26
REMARK    7  A    between atoms: S_26  and  C_27
REMARK                            x       y       z     vdW  Elec       q    Type
REMARK                         _______ _______ _______ _____ _____    ______ ____
ROOT
ATOM      1  C   UNL     1      -0.085   1.547  -0.113  0.00  0.00    +0.028 C 
ATOM      2  C   UNL     1      -0.013   0.019  -0.097  0.00  0.00    +0.080 C 
ATOM      3  C   UNL     1      -1.430  -0.568  -0.108  0.00  0.00    +0.040 C 
ATOM      4  C   UNL     1      -2.207  -0.005   1.082  0.00  0.00    +0.108 C 
ATOM      5  C   UNL     1      -1.423  -0.185   2.356  0.00  0.00    -0.014 A 
ATOM      6  C   UNL     1      -2.095  -0.150   3.567  0.00  0.00    +0.006 A 
ATOM      7  C   UNL     1      -1.404  -0.310   4.752  0.00  0.00    +0.000 A 
ATOM      8  C   UNL     1      -0.035  -0.506   4.737  0.00  0.00    +0.002 A 
ATOM      9  C   UNL     1       0.642  -0.544   3.535  0.00  0.00    +0.024 A 
ATOM     10  C   UNL     1      -0.052  -0.385   2.340  0.00  0.00    +0.041 A 
ATOM     11  N   UNL     1       0.654  -0.435   1.131  0.00  0.00    -0.261 N 
ATOM     12  C   UNL     1       1.921  -0.893   1.093  0.00  0.00    +0.306 C 
ATOM     13  O   UNL     1       2.417  -1.388   2.084  0.00  0.00    -0.265 OA
ENDROOT
BRANCH   4  14
ATOM     14  C   UNL     1      -3.523  -0.728   1.205  0.00  0.00    +0.218 C 
ATOM     15  O   UNL     1      -3.640  -1.853   0.767  0.00  0.00    -0.275 OA
ATOM     16  N   UNL     1      -4.570  -0.124   1.802  0.00  0.00    -0.329 N 
ATOM     17  H   UNL     1      -4.457   0.746   2.216  0.00  0.00    +0.145 HD
ATOM     18  H   UNL     1      -5.437  -0.560   1.818  0.00  0.00    +0.145 HD
ENDBRANCH   4  14
BRANCH  12  19
ATOM     19  C   UNL     1       2.715  -0.791  -0.168  0.00  0.00    +0.300 C 
ATOM     20  O   UNL     1       2.262  -0.195  -1.123  0.00  0.00    -0.265 OA
ATOM     21  N   UNL     1       3.934  -1.360  -0.244  0.00  0.00    -0.303 N 
ATOM     22  H   UNL     1       4.296  -1.836   0.519  0.00  0.00    +0.149 HD
BRANCH  21  23
ATOM     23  C   UNL     1       4.713  -1.260  -1.481  0.00  0.00    +0.140 C 
BRANCH  23  24
ATOM     24  C   UNL     1       6.028  -1.974  -1.306  0.00  0.00    -0.030 A 
ATOM     25  C   UNL     1       7.127  -1.288  -0.824  0.00  0.00    +0.006 A 
ATOM     26  C   UNL     1       8.334  -1.940  -0.663  0.00  0.00    +0.015 A 
ATOM     27  C   UNL     1       8.443  -3.287  -0.985  0.00  0.00    +0.008 A 
ATOM     28  C   UNL     1       7.335  -3.974  -1.469  0.00  0.00    +0.015 A 
ATOM     29  C   UNL     1       6.131  -3.317  -1.623  0.00  0.00    +0.006 A 
BRANCH  27  30
ATOM     30  S   UNL     1       9.980  -4.122  -0.782  0.00  0.00    -0.129 S 
ATOM     31  C   UNL     1       9.633  -5.819  -1.320  0.00  0.00    +0.090 C 
ENDBRANCH  27  30
ENDBRANCH  23  24
ENDBRANCH  21  23
ENDBRANCH  12  19
TORSDOF 5
