REMARK  Name = ZINC10404443
REMARK  7 active torsions:
REMARK  status: ('A' for Active; 'I' for Inactive)
REMARK    1  A    between atoms: C_1  and  N_2
REMARK    2  A    between atoms: N_2  and  S_3
REMARK    3  A    between atoms: S_3  and  C_6
REMARK    4  A    between atoms: C_6  and  C_7
REMARK    5  A    between atoms: C_10  and  C_13
REMARK    6  A    between atoms: C_13  and  N_14
REMARK    7  A    between atoms: N_17  and  N_18
REMARK                            x       y       z     vdW  Elec       q    Type
REMARK                         _______ _______ _______ _____ _____    ______ ____
ROOT
ATOM      1  N   UNL     1      -1.672   8.216   3.323  0.00  0.00    -0.294 N 
ATOM      2  C   UNL     1      -1.841   9.513   3.647  0.00  0.00    +0.318 C 
ATOM      3  O   UNL     1      -1.482  10.383   2.876  0.00  0.00    -0.251 OA
ATOM      4  N   UNL     1      -2.406   9.846   4.824  0.00  0.00    -0.205 N 
ATOM      5  H   UNL     1      -1.958   7.522   3.938  0.00  0.00    +0.151 HD
ATOM      6  H   UNL     1      -2.692   9.152   5.438  0.00  0.00    +0.177 HD
ENDROOT
BRANCH   4   7
ATOM      7  N   UNL     1      -2.581  11.195   5.160  0.00  0.00    -0.245 N 
ATOM      8  C   UNL     1      -2.225  12.268   4.403  0.00  0.00    +0.219 A 
ATOM      9  N   UNL     1      -2.536  13.372   5.017  0.00  0.00    -0.234 NA
ATOM     10  C   UNL     1      -3.105  13.083   6.215  0.00  0.00    +0.091 A 
ATOM     11  C   UNL     1      -3.142  11.682   6.323  0.00  0.00    +0.088 A 
ATOM     12  C   UNL     1      -3.679  11.091   7.459  0.00  0.00    +0.030 A 
ATOM     13  C   UNL     1      -4.172  11.885   8.474  0.00  0.00    +0.002 A 
ATOM     14  C   UNL     1      -4.135  13.267   8.366  0.00  0.00    +0.002 A 
ATOM     15  C   UNL     1      -3.610  13.867   7.256  0.00  0.00    +0.030 A 
ENDBRANCH   4   7
BRANCH   1  16
ATOM     16  C   UNL     1      -1.057   7.854   2.044  0.00  0.00    +0.141 C 
BRANCH  16  20
ATOM     17  C   UNL     1      -0.853   3.600   1.713  0.00  0.00    -0.025 A 
ATOM     18  C   UNL     1       0.192   4.299   2.287  0.00  0.00    +0.005 A 
ATOM     19  C   UNL     1       0.128   5.676   2.390  0.00  0.00    +0.005 A 
ATOM     20  C   UNL     1      -0.985   6.353   1.928  0.00  0.00    -0.030 A 
ATOM     21  C   UNL     1      -2.033   5.653   1.359  0.00  0.00    +0.005 A 
ATOM     22  C   UNL     1      -1.967   4.276   1.252  0.00  0.00    +0.005 A 
BRANCH  17  23
ATOM     23  C   UNL     1      -0.781   2.099   1.596  0.00  0.00    +0.220 C 
BRANCH  23  24
ATOM     24  S   UNL     1      -0.020   1.652   0.011  0.00  0.00    +0.033 S 
ATOM     25  O   UNL     1       1.349   2.033   0.000  0.00  0.00    -0.158 OA
ATOM     26  O   UNL     1      -0.880   2.009  -1.062  0.00  0.00    -0.158 OA
BRANCH  24  28
ATOM     27  C   UNL     1      -1.257  -0.754  -0.013  0.00  0.00    +0.127 C 
ATOM     28  N   UNL     1       0.002  -0.004   0.002  0.00  0.00    -0.197 NA
ATOM     29  H   UNL     1       0.849  -0.478   0.006  0.00  0.00    +0.147 HD
ENDBRANCH  24  28
ENDBRANCH  23  24
ENDBRANCH  17  23
ENDBRANCH  16  20
ENDBRANCH   1  16
TORSDOF 6
