REMARK  Name = ZINC61845156
REMARK  4 active torsions:
REMARK  status: ('A' for Active; 'I' for Inactive)
REMARK    1  A    between atoms: C_3  and  C_9
REMARK    2  A    between atoms: C_11  and  C_14
REMARK    3  A    between atoms: C_14  and  C_16
REMARK    4  A    between atoms: C_14  and  N_22
REMARK                            x       y       z     vdW  Elec       q    Type
REMARK                         _______ _______ _______ _____ _____    ______ ____
ROOT
ATOM      1  C   UNL     1       3.659   2.169  -0.022  0.00  0.00    +0.203 A 
ATOM      2  N   UNL     1       4.891   1.630  -0.042  0.00  0.00    -0.193 NA
ATOM      3  C   UNL     1       5.790   2.573  -0.045  0.00  0.00    +0.213 A 
ATOM      4  O   UNL     1       5.164   3.757  -0.027  0.00  0.00    -0.339 OA
ATOM      5  N   UNL     1       3.772   3.474  -0.017  0.00  0.00    -0.056 NA
ENDROOT
BRANCH   1   8
ATOM      6  C   UNL     1      -0.017   1.381   0.010  0.00  0.00    +0.039 A 
ATOM      7  C   UNL     1       1.167   2.090   0.002  0.00  0.00    +0.016 A 
ATOM      8  C   UNL     1       2.384   1.411  -0.013  0.00  0.00    +0.041 A 
ATOM      9  C   UNL     1       2.398   0.016  -0.021  0.00  0.00    +0.054 A 
ATOM     10  C   UNL     1       1.209  -0.685  -0.013  0.00  0.00    +0.059 A 
ATOM     11  C   UNL     1       0.002  -0.004   0.002  0.00  0.00    +0.125 A 
ATOM     12  F   UNL     1      -1.160  -0.693   0.009  0.00  0.00    -0.205 F 
ATOM     13 CL   UNL     1       3.910  -0.838  -0.040  0.00  0.00    -0.083 Cl
ENDBRANCH   1   8
BRANCH   3  14
ATOM     14  C   UNL     1       7.283   2.367  -0.065  0.00  0.00    +0.019 C 
BRANCH  14  15
ATOM     15  C   UNL     1       7.822   2.679  -1.462  0.00  0.00    -0.017 C 
ATOM     16  C   UNL     1       7.614   4.163  -1.770  0.00  0.00    +0.002 C 
ATOM     17  C   UNL     1       8.153   4.475  -3.167  0.00  0.00    +0.000 C 
ATOM     18  C   UNL     1       9.647   4.147  -3.223  0.00  0.00    +0.000 C 
ATOM     19  C   UNL     1       9.854   2.663  -2.915  0.00  0.00    +0.000 C 
ATOM     20  C   UNL     1       9.315   2.351  -1.518  0.00  0.00    +0.002 C 
ENDBRANCH  14  15
BRANCH  14  21
ATOM     21  N   UNL     1       7.914   3.262   0.914  0.00  0.00    +0.386 N 
ATOM     22  H   UNL     1       7.703   4.220   0.679  0.00  0.00    -0.089 HD
ATOM     23  H   UNL     1       7.558   3.056   1.836  0.00  0.00    -0.089 HD
ATOM     24  H   UNL     1       8.913   3.124   0.901  0.00  0.00    -0.089 HD
ENDBRANCH  14  21
ENDBRANCH   3  14
TORSDOF 4
