REMARK  Name = ZINC17315796
REMARK  12 active torsions:
REMARK  status: ('A' for Active; 'I' for Inactive)
REMARK    1  A    between atoms: C_1  and  C_2
REMARK    2  A    between atoms: C_2  and  O_3
REMARK    3  A    between atoms: O_3  and  C_4
REMARK    4  A    between atoms: N_13  and  C_14
REMARK    5  A    between atoms: C_14  and  C_15
REMARK    6  A    between atoms: C_15  and  C_16
REMARK    7  A    between atoms: C_16  and  N_17
REMARK    8  A    between atoms: N_17  and  C_18
REMARK    9  A    between atoms: N_17  and  C_19
REMARK   10  A    between atoms: C_20  and  C_22
REMARK   11  A    between atoms: C_25  and  C_28
REMARK   12  A    between atoms: C_28  and  C_30
REMARK                            x       y       z     vdW  Elec       q    Type
REMARK                         _______ _______ _______ _____ _____    ______ ____
ROOT
ATOM      1  C   UNL     1       0.848  -3.155   2.197  0.00  0.00    +0.147 A 
ATOM      2  C   UNL     1       0.485  -4.056   1.223  0.00  0.00    +0.048 A 
ATOM      3  C   UNL     1       0.875  -5.385   1.284  0.00  0.00    +0.005 A 
ATOM      4  C   UNL     1       1.646  -5.817   2.348  0.00  0.00    +0.017 A 
ATOM      5  C   UNL     1       2.015  -4.926   3.326  0.00  0.00    +0.044 A 
ATOM      6  C   UNL     1       1.643  -3.564   3.298  0.00  0.00    +0.122 A 
ATOM      7  N   UNL     1       2.088  -2.813   4.330  0.00  0.00    -0.221 NA
ATOM      8  C   UNL     1       2.823  -3.310   5.297  0.00  0.00    +0.168 A 
ATOM      9  S   UNL     1       2.966  -5.027   4.824  0.00  0.00    -0.052 S 
ATOM     10  N   UNL     1       3.346  -2.668   6.407  0.00  0.00    -0.246 N 
ATOM     11  C   UNL     1       3.117  -1.353   6.596  0.00  0.00    +0.252 C 
ATOM     12  O   UNL     1       2.417  -0.740   5.814  0.00  0.00    -0.270 OA
ENDROOT
BRANCH  11  13
ATOM     13  C   UNL     1       3.717  -0.656   7.755  0.00  0.00    +0.037 A 
ATOM     14  C   UNL     1       5.030  -0.940   8.137  0.00  0.00    +0.014 A 
ATOM     15  C   UNL     1       5.589  -0.291   9.216  0.00  0.00    +0.012 A 
ATOM     16  C   UNL     1       4.842   0.650   9.929  0.00  0.00    +0.022 A 
ATOM     17  C   UNL     1       3.529   0.933   9.547  0.00  0.00    +0.012 A 
ATOM     18  C   UNL     1       2.972   0.288   8.464  0.00  0.00    +0.014 A 
BRANCH  16  19
ATOM     19  C   UNL     1       5.442   1.346  11.088  0.00  0.00    +0.193 C 
ATOM     20  O   UNL     1       6.650   1.436  11.184  0.00  0.00    -0.287 OA
BRANCH  19  21
ATOM     21  C   UNL     1       4.573   1.931  12.129  0.00  0.00    +0.022 A 
ATOM     22  C   UNL     1       3.273   1.451  12.309  0.00  0.00    +0.012 A 
ATOM     23  C   UNL     1       2.467   2.002  13.283  0.00  0.00    +0.001 A 
ATOM     24  C   UNL     1       2.943   3.029  14.081  0.00  0.00    +0.000 A 
ATOM     25  C   UNL     1       4.229   3.509  13.907  0.00  0.00    +0.001 A 
ATOM     26  C   UNL     1       5.048   2.964  12.941  0.00  0.00    +0.012 A 
ENDBRANCH  19  21
ENDBRANCH  16  19
ENDBRANCH  11  13
BRANCH   1  27
ATOM     27  O   UNL     1       0.446  -1.861   2.101  0.00  0.00    -0.490 OA
BRANCH  27  29
ATOM     28  C   UNL     1      -0.706  -0.025   1.032  0.00  0.00    +0.048 C 
ATOM     29  C   UNL     1      -0.353  -1.512   0.969  0.00  0.00    +0.226 C 
ENDBRANCH  27  29
ENDBRANCH   1  27
BRANCH  10  30
ATOM     30  C   UNL     1       4.149  -3.418   7.376  0.00  0.00    +0.114 C 
BRANCH  30  31
ATOM     31  C   UNL     1       5.537  -3.686   6.791  0.00  0.00    +0.001 C 
BRANCH  31  32
ATOM     32  C   UNL     1       6.423  -4.337   7.855  0.00  0.00    -0.078 C 
BRANCH  32  33
ATOM     33  N   UNL     1       7.755  -4.594   7.293  0.00  0.00    +0.376 N 
ATOM     34  C   UNL     1       8.406  -3.317   6.973  0.00  0.00    -0.097 C 
ATOM     35  C   UNL     1       8.568  -5.326   8.273  0.00  0.00    -0.097 C 
ATOM     36  H   UNL     1       7.665  -5.145   6.452  0.00  0.00    -0.083 HD
ENDBRANCH  32  33
ENDBRANCH  31  32
ENDBRANCH  30  31
ENDBRANCH  10  30
TORSDOF 9
