REMARK  Name = ZINC44400527
REMARK  8 active torsions:
REMARK  status: ('A' for Active; 'I' for Inactive)
REMARK    1  A    between atoms: C_1  and  C_2
REMARK    2  A    between atoms: C_2  and  C_3
REMARK    3  A    between atoms: C_3  and  C_5
REMARK    4  A    between atoms: C_3  and  N_25
REMARK    5  A    between atoms: C_5  and  C_6
REMARK    6  A    between atoms: C_9  and  C_11
REMARK    7  A    between atoms: C_13  and  C_21
REMARK    8  A    between atoms: C_15  and  C_17
REMARK                            x       y       z     vdW  Elec       q    Type
REMARK                         _______ _______ _______ _____ _____    ______ ____
ROOT
ATOM      1  C   UNL     1       4.054  -3.686   4.604  0.00  0.00    +0.018 A 
ATOM      2  C   UNL     1       4.122  -4.080   5.941  0.00  0.00    +0.024 A 
ATOM      3  C   UNL     1       5.326  -4.487   6.477  0.00  0.00    +0.056 A 
ATOM      4  C   UNL     1       6.465  -4.505   5.693  0.00  0.00    +0.024 A 
ATOM      5  C   UNL     1       6.405  -4.116   4.366  0.00  0.00    +0.056 A 
ATOM      6  C   UNL     1       5.206  -3.712   3.816  0.00  0.00    +0.024 A 
ENDROOT
BRANCH   1  10
ATOM      7  C   UNL     1       1.277  -2.528   2.581  0.00  0.00    +0.104 A 
ATOM      8  C   UNL     1       0.628  -2.715   3.747  0.00  0.00    +0.045 A 
ATOM      9  C   UNL     1       1.579  -3.179   4.678  0.00  0.00    +0.050 A 
ATOM     10  C   UNL     1       2.768  -3.249   4.022  0.00  0.00    +0.135 A 
ATOM     11  O   UNL     1       2.568  -2.857   2.749  0.00  0.00    -0.460 OA
BRANCH   7  12
ATOM     12  C   UNL     1       0.655  -2.037   1.299  0.00  0.00    +0.058 C 
BRANCH  12  13
ATOM     13  C   UNL     1       0.742  -0.511   1.242  0.00  0.00    -0.068 C 
BRANCH  13  14
ATOM     14  N   UNL     1       2.151  -0.103   1.171  0.00  0.00    +0.380 N 
ATOM     15  H   UNL     1       2.209   0.904   1.134  0.00  0.00    -0.090 HD
ATOM     16  H   UNL     1       2.639  -0.437   1.989  0.00  0.00    -0.090 HD
ATOM     17  H   UNL     1       2.574  -0.495   0.344  0.00  0.00    -0.090 HD
ENDBRANCH  13  14
BRANCH  13  19
ATOM     18  C   UNL     1      -0.019   1.526   0.010  0.00  0.00    +0.002 C 
ATOM     19  C   UNL     1       0.002  -0.004   0.002  0.00  0.00    -0.019 C 
ENDBRANCH  13  19
ENDBRANCH  12  13
ENDBRANCH   7  12
ENDBRANCH   1  10
BRANCH   5  20
ATOM     20  C   UNL     1       7.652  -4.138   3.520  0.00  0.00    +0.417 C 
ATOM     21  F   UNL     1       8.731  -4.584   4.290  0.00  0.00    -0.166 F 
ATOM     22  F   UNL     1       7.464  -5.001   2.435  0.00  0.00    -0.166 F 
ATOM     23  F   UNL     1       7.918  -2.848   3.048  0.00  0.00    -0.166 F 
ENDBRANCH   5  20
BRANCH   3  24
ATOM     24  C   UNL     1       5.400  -4.912   7.921  0.00  0.00    +0.417 C 
ATOM     25  F   UNL     1       5.160  -6.288   8.015  0.00  0.00    -0.166 F 
ATOM     26  F   UNL     1       6.673  -4.626   8.427  0.00  0.00    -0.166 F 
ATOM     27  F   UNL     1       4.437  -4.219   8.662  0.00  0.00    -0.166 F 
ENDBRANCH   3  24
TORSDOF 7
