REMARK  Name = ZINC28212973
REMARK  11 active torsions:
REMARK  status: ('A' for Active; 'I' for Inactive)
REMARK    1  A    between atoms: C_1  and  C_2
REMARK    2  A    between atoms: C_5  and  S_8
REMARK    3  A    between atoms: S_8  and  N_11
REMARK    4  A    between atoms: N_11  and  C_12
REMARK    5  A    between atoms: N_11  and  C_29
REMARK    6  A    between atoms: C_12  and  C_13
REMARK    7  A    between atoms: N_15  and  N_16
REMARK    8  A    between atoms: C_17  and  C_18
REMARK    9  A    between atoms: C_21  and  O_24
REMARK   10  A    between atoms: O_24  and  C_25
REMARK   11  A    between atoms: C_25  and  C_26
REMARK                            x       y       z     vdW  Elec       q    Type
REMARK                         _______ _______ _______ _____ _____    ______ ____
ROOT
ATOM      1  C   UNL     1       2.315  -5.311   1.234  0.00  0.00    +0.228 C 
ENDROOT
BRANCH   1   2
ATOM      2  C   UNL     1       2.043  -6.746   1.604  0.00  0.00    +0.251 C 
ATOM      3  O   UNL     1       1.361  -7.441   0.880  0.00  0.00    -0.272 OA
ATOM      4  N   UNL     1       2.557  -7.258   2.740  0.00  0.00    -0.206 N 
ATOM      5  H   UNL     1       3.102  -6.703   3.319  0.00  0.00    +0.177 HD
BRANCH   4   6
ATOM      6  N   UNL     1       2.303  -8.592   3.084  0.00  0.00    -0.188 NA
ATOM      7  C   UNL     1       2.798  -9.085   4.178  0.00  0.00    +0.138 C 
BRANCH   7   8
ATOM      8  C   UNL     1       2.532 -10.489   4.541  0.00  0.00    -0.005 A 
ATOM      9  C   UNL     1       1.752 -11.293   3.705  0.00  0.00    +0.013 A 
ATOM     10  C   UNL     1       1.506 -12.605   4.048  0.00  0.00    +0.046 A 
ATOM     11  C   UNL     1       2.032 -13.129   5.221  0.00  0.00    +0.121 A 
ATOM     12  C   UNL     1       2.808 -12.334   6.055  0.00  0.00    +0.046 A 
ATOM     13  C   UNL     1       3.064 -11.022   5.718  0.00  0.00    +0.013 A 
BRANCH  11  14
ATOM     14  O   UNL     1       1.787 -14.422   5.555  0.00  0.00    -0.483 OA
BRANCH  14  15
ATOM     15  C   UNL     1       2.359 -14.897   6.776  0.00  0.00    +0.324 C 
BRANCH  15  16
ATOM     16  C   UNL     1       1.982 -16.342   6.978  0.00  0.00    +0.248 C 
ATOM     17  O   UNL     1       1.292 -16.910   6.158  0.00  0.00    -0.272 OA
ATOM     18  N   UNL     1       2.412 -17.004   8.071  0.00  0.00    -0.327 N 
ATOM     19  H   UNL     1       2.964 -16.550   8.727  0.00  0.00    +0.145 HD
ATOM     20  H   UNL     1       2.170 -17.934   8.201  0.00  0.00    +0.145 HD
ENDBRANCH  15  16
ENDBRANCH  14  15
ENDBRANCH  11  14
ENDBRANCH   7   8
ENDBRANCH   4   6
ENDBRANCH   1   2
BRANCH   1  21
ATOM     21  N   UNL     1       1.651  -4.999  -0.034  0.00  0.00    -0.194 N 
BRANCH  21  22
ATOM     22  C   UNL     1       2.284  -5.292  -1.244  0.00  0.00    +0.053 A 
ATOM     23  C   UNL     1       3.515  -4.721  -1.542  0.00  0.00    +0.025 A 
ATOM     24  C   UNL     1       4.140  -5.012  -2.738  0.00  0.00    +0.003 A 
ATOM     25  C   UNL     1       3.540  -5.871  -3.642  0.00  0.00    +0.020 A 
ATOM     26  C   UNL     1       2.314  -6.441  -3.350  0.00  0.00    +0.043 A 
ATOM     27  C   UNL     1       1.687  -6.158  -2.151  0.00  0.00    +0.044 A 
ATOM     28 CL   UNL     1       1.565  -7.518  -4.487  0.00  0.00    -0.083 Cl
ENDBRANCH  21  22
BRANCH  21  29
ATOM     29  S   UNL     1       0.149  -4.301  -0.033  0.00  0.00    +0.075 S 
ATOM     30  O   UNL     1      -0.501  -4.738   1.152  0.00  0.00    -0.150 OA
ATOM     31  O   UNL     1      -0.399  -4.515  -1.326  0.00  0.00    -0.150 OA
BRANCH  29  36
ATOM     32  C   UNL     1       0.950   1.653   0.536  0.00  0.00    +0.044 C 
ATOM     33  C   UNL     1       0.750   0.166   0.394  0.00  0.00    -0.050 A 
ATOM     34  C   UNL     1       0.708  -0.409  -0.863  0.00  0.00    +0.005 A 
ATOM     35  C   UNL     1       0.525  -1.773  -0.993  0.00  0.00    +0.029 A 
ATOM     36  C   UNL     1       0.384  -2.562   0.133  0.00  0.00    +0.109 A 
ATOM     37  C   UNL     1       0.427  -1.988   1.390  0.00  0.00    +0.029 A 
ATOM     38  C   UNL     1       0.614  -0.624   1.520  0.00  0.00    +0.005 A 
ENDBRANCH  29  36
ENDBRANCH  21  29
ENDBRANCH   1  21
TORSDOF 10
