REMARK  Name = ZINC09408997
REMARK  8 active torsions:
REMARK  status: ('A' for Active; 'I' for Inactive)
REMARK    1  A    between atoms: C_1  and  O_2
REMARK    2  A    between atoms: O_2  and  C_3
REMARK    3  A    between atoms: C_5  and  C_11
REMARK    4  A    between atoms: C_8  and  O_9
REMARK    5  A    between atoms: C_14  and  C_28
REMARK    6  A    between atoms: N_21  and  C_22
REMARK    7  A    between atoms: C_22  and  C_23
REMARK    8  A    between atoms: C_33  and  O_34
REMARK                            x       y       z     vdW  Elec       q    Type
REMARK                         _______ _______ _______ _____ _____    ______ ____
ROOT
ATOM      1  C   UNL     1      -4.855   0.221   0.046  0.00  0.00    +0.142 C 
ATOM      2  C   UNL     1      -5.499   0.189   1.405  0.00  0.00    +0.035 A 
ATOM      3  C   UNL     1      -5.391   0.484   2.768  0.00  0.00    +0.102 A 
ATOM      4  N   UNL     1      -6.513   0.102   3.344  0.00  0.00    -0.173 NA
ATOM      5  N   UNL     1      -7.319  -0.406   2.480  0.00  0.00    -0.272 N 
ATOM      6  H   UNL     1      -8.202  -0.753   2.679  0.00  0.00    +0.189 HD
ATOM      7  C   UNL     1      -6.746  -0.383   1.241  0.00  0.00    +0.126 A 
ATOM      8  C   UNL     1      -6.922  -0.719  -0.177  0.00  0.00    +0.266 C 
ATOM      9  O   UNL     1      -7.916  -1.237  -0.649  0.00  0.00    -0.268 OA
ATOM     10  N   UNL     1      -5.829  -0.371  -0.881  0.00  0.00    -0.278 N 
ENDROOT
BRANCH   1  13
ATOM     11  C   UNL     1      -1.197  -0.713  -0.107  0.00  0.00    +0.163 A 
ATOM     12  C   UNL     1      -2.365   0.033  -0.114  0.00  0.00    +0.055 A 
ATOM     13  C   UNL     1      -3.586  -0.593   0.053  0.00  0.00    -0.018 A 
ATOM     14  C   UNL     1      -3.646  -1.963   0.229  0.00  0.00    +0.025 A 
ATOM     15  C   UNL     1      -2.484  -2.713   0.237  0.00  0.00    +0.063 A 
ATOM     16  C   UNL     1      -1.257  -2.092   0.063  0.00  0.00    +0.173 A 
ATOM     17 BR   UNL     1      -2.571  -4.587   0.478  0.00  0.00    -0.046 Br
BRANCH  11  19
ATOM     18  C   UNL     1      -0.009   1.321  -0.440  0.00  0.00    +0.277 C 
ATOM     19  O   UNL     1       0.005  -0.098  -0.271  0.00  0.00    -0.491 OA
ENDBRANCH  11  19
BRANCH  16  20
ATOM     20  O   UNL     1      -0.114  -2.829   0.066  0.00  0.00    -0.503 OA
ATOM     21  H   UNL     1       0.283  -2.937   0.941  0.00  0.00    +0.292 HD
ENDBRANCH  16  20
ENDBRANCH   1  13
BRANCH   3  22
ATOM     22  C   UNL     1      -4.227   1.113   3.442  0.00  0.00    +0.044 A 
ATOM     23  C   UNL     1      -3.155   1.584   2.689  0.00  0.00    +0.014 A 
ATOM     24  C   UNL     1      -2.075   2.168   3.320  0.00  0.00    +0.001 A 
ATOM     25  C   UNL     1      -2.053   2.286   4.699  0.00  0.00    +0.004 A 
ATOM     26  C   UNL     1      -3.112   1.821   5.455  0.00  0.00    +0.046 A 
ATOM     27  C   UNL     1      -4.206   1.238   4.833  0.00  0.00    +0.126 A 
BRANCH  27  28
ATOM     28  O   UNL     1      -5.250   0.786   5.575  0.00  0.00    -0.506 OA
ATOM     29  H   UNL     1      -5.164  -0.135   5.855  0.00  0.00    +0.292 HD
ENDBRANCH  27  28
ENDBRANCH   3  22
BRANCH  10  30
ATOM     30  C   UNL     1      -5.641  -0.551  -2.323  0.00  0.00    +0.183 C 
BRANCH  30  31
ATOM     31  C   UNL     1      -5.019  -1.899  -2.584  0.00  0.00    +0.122 A 
ATOM     32  C   UNL     1      -5.687  -3.046  -2.799  0.00  0.00    +0.046 A 
ATOM     33  C   UNL     1      -4.716  -4.055  -2.997  0.00  0.00    +0.041 A 
ATOM     34  C   UNL     1      -3.513  -3.463  -2.892  0.00  0.00    +0.195 A 
ATOM     35  O   UNL     1      -3.702  -2.156  -2.647  0.00  0.00    -0.466 OA
ENDBRANCH  30  31
ENDBRANCH  10  30
TORSDOF 7
