REMARK  Name = ZINC13803079
REMARK  6 active torsions:
REMARK  status: ('A' for Active; 'I' for Inactive)
REMARK    1  A    between atoms: C_4  and  O_33
REMARK    2  A    between atoms: C_5  and  C_7
REMARK    3  A    between atoms: N_12  and  C_26
REMARK    4  A    between atoms: C_16  and  C_20
REMARK    5  A    between atoms: C_26  and  C_27
REMARK    6  A    between atoms: O_33  and  C_34
REMARK                            x       y       z     vdW  Elec       q    Type
REMARK                         _______ _______ _______ _____ _____    ______ ____
ROOT
ATOM      1  C   UNL     1       1.250  -2.159  -0.022  0.00  0.00    +0.250 C 
ATOM      2  O   UNL     1       1.227  -0.946   0.062  0.00  0.00    -0.270 OA
ATOM      3  N   UNL     1       0.096  -2.850  -0.116  0.00  0.00    -0.292 N 
ATOM      4  C   UNL     1       0.130  -4.316  -0.118  0.00  0.00    +0.127 C 
ATOM      5  C   UNL     1      -0.543  -4.882   1.119  0.00  0.00    +0.124 C 
ATOM      6  N   UNL     1      -1.951  -4.455   1.161  0.00  0.00    -0.322 N 
ATOM      7  C   UNL     1      -2.250  -3.233   1.754  0.00  0.00    +0.035 A 
ATOM      8  C   UNL     1      -2.968  -3.178   2.944  0.00  0.00    +0.024 A 
ATOM      9  C   UNL     1      -3.209  -1.963   3.547  0.00  0.00    +0.010 A 
ATOM     10  C   UNL     1      -2.733  -0.786   2.970  0.00  0.00    -0.017 A 
ATOM     11  C   UNL     1      -2.031  -0.840   1.765  0.00  0.00    +0.015 A 
ATOM     12  C   UNL     1      -1.817  -2.052   1.157  0.00  0.00    -0.009 A 
ATOM     13  C   UNL     1      -1.172  -2.127  -0.209  0.00  0.00    +0.145 C 
ENDROOT
BRANCH   1  18
ATOM     14  C   UNL     1       3.998  -4.533   0.924  0.00  0.00    +0.001 A 
ATOM     15  C   UNL     1       4.966  -4.219  -0.016  0.00  0.00    +0.004 A 
ATOM     16  C   UNL     1       4.731  -3.238  -0.959  0.00  0.00    +0.047 A 
ATOM     17  C   UNL     1       3.522  -2.559  -0.970  0.00  0.00    +0.142 A 
ATOM     18  C   UNL     1       2.540  -2.874  -0.021  0.00  0.00    +0.079 A 
ATOM     19  C   UNL     1       2.791  -3.869   0.928  0.00  0.00    +0.017 A 
BRANCH  17  20
ATOM     20  O   UNL     1       3.290  -1.595  -1.895  0.00  0.00    -0.405 OA
BRANCH  20  21
ATOM     21  C   UNL     1       4.337  -1.328  -2.830  0.00  0.00    +0.575 C 
ATOM     22  F   UNL     1       4.618  -2.488  -3.559  0.00  0.00    -0.133 F 
ATOM     23  F   UNL     1       3.933  -0.314  -3.705  0.00  0.00    -0.133 F 
ATOM     24  F   UNL     1       5.484  -0.920  -2.142  0.00  0.00    -0.133 F 
ENDBRANCH  20  21
ENDBRANCH  17  20
ENDBRANCH   1  18
BRANCH  10  25
ATOM     25  C   UNL     1      -2.973   0.518   3.634  0.00  0.00    -0.015 A 
ATOM     26  C   UNL     1      -2.508   1.708   3.067  0.00  0.00    +0.028 A 
ATOM     27  C   UNL     1      -2.753   2.900   3.718  0.00  0.00    +0.111 A 
ATOM     28  N   UNL     1      -3.415   2.924   4.860  0.00  0.00    -0.263 NA
ATOM     29  C   UNL     1      -3.870   1.824   5.428  0.00  0.00    +0.111 A 
ATOM     30  C   UNL     1      -3.675   0.591   4.841  0.00  0.00    +0.028 A 
ENDBRANCH  10  25
BRANCH   6  31
ATOM     31  C   UNL     1      -3.008  -5.294   0.593  0.00  0.00    +0.159 C 
BRANCH  31  32
ATOM     32  C   UNL     1      -3.530  -6.230   1.652  0.00  0.00    +0.051 A 
ATOM     33  C   UNL     1      -3.120  -7.496   1.861  0.00  0.00    +0.106 A 
ATOM     34  N   UNL     1      -3.849  -7.980   2.914  0.00  0.00    -0.352 N 
ATOM     35  H   UNL     1      -3.782  -8.866   3.302  0.00  0.00    +0.166 HD
ATOM     36  C   UNL     1      -4.681  -6.992   3.311  0.00  0.00    +0.171 A 
ATOM     37  N   UNL     1      -4.481  -5.947   2.555  0.00  0.00    -0.349 N 
ATOM     38  H   UNL     1      -4.947  -5.101   2.633  0.00  0.00    +0.166 HD
ENDBRANCH  31  32
ENDBRANCH   6  31
TORSDOF 6
