REMARK  Name = ZINC65920783
REMARK  8 active torsions:
REMARK  status: ('A' for Active; 'I' for Inactive)
REMARK    1  A    between atoms: C_1  and  C_2
REMARK    2  A    between atoms: C_5  and  S_8
REMARK    3  A    between atoms: S_8  and  N_11
REMARK    4  A    between atoms: N_11  and  C_12
REMARK    5  A    between atoms: C_12  and  C_14
REMARK    6  A    between atoms: C_12  and  C_15
REMARK    7  A    between atoms: N_17  and  N_18
REMARK    8  A    between atoms: N_21  and  C_22
REMARK                            x       y       z     vdW  Elec       q    Type
REMARK                         _______ _______ _______ _____ _____    ______ ____
ROOT
ATOM      1  C   UNL     1       3.908  -4.404   0.629  0.00  0.00    +0.247 C 
ATOM      2  O   UNL     1       4.160  -4.442  -0.557  0.00  0.00    -0.273 OA
ATOM      3  N   UNL     1       4.878  -4.099   1.514  0.00  0.00    -0.232 N 
ATOM      4  H   UNL     1       4.676  -4.069   2.462  0.00  0.00    +0.173 HD
ENDROOT
BRANCH   3   5
ATOM      5  N   UNL     1       6.176  -3.825   1.064  0.00  0.00    -0.218 N 
ATOM      6  C   UNL     1       7.145  -3.520   1.950  0.00  0.00    +0.316 C 
ATOM      7  O   UNL     1       8.272  -3.283   1.559  0.00  0.00    -0.251 OA
ATOM      8  N   UNL     1       6.866  -3.479   3.267  0.00  0.00    -0.295 N 
ATOM      9  H   UNL     1       6.377  -3.855   0.116  0.00  0.00    +0.174 HD
ATOM     10  H   UNL     1       5.967  -3.669   3.579  0.00  0.00    +0.151 HD
BRANCH   8  11
ATOM     11  C   UNL     1       7.920  -3.147   4.230  0.00  0.00    +0.074 C 
ATOM     12  C   UNL     1       8.672  -4.427   4.651  0.00  0.00    +0.022 C 
ATOM     13  C   UNL     1       8.976  -4.210   6.154  0.00  0.00    +0.002 C 
ATOM     14  C   UNL     1       7.696  -3.503   6.664  0.00  0.00    +0.002 C 
ATOM     15  C   UNL     1       7.299  -2.561   5.510  0.00  0.00    +0.022 C 
ENDBRANCH   8  11
ENDBRANCH   3   5
BRANCH   1  16
ATOM     16  C   UNL     1       2.512  -4.699   1.113  0.00  0.00    +0.160 C 
ATOM     17  C   UNL     1       2.542  -5.903   2.056  0.00  0.00    +0.035 C 
BRANCH  16  18
ATOM     18  N   UNL     1       1.651  -4.999  -0.034  0.00  0.00    -0.178 NA
ATOM     19  H   UNL     1       2.011  -5.473  -0.800  0.00  0.00    +0.149 HD
BRANCH  18  20
ATOM     20  S   UNL     1       0.063  -4.530  -0.023  0.00  0.00    +0.059 S 
ATOM     21  O   UNL     1      -0.476  -4.950   1.223  0.00  0.00    -0.153 OA
ATOM     22  O   UNL     1      -0.490  -4.937  -1.267  0.00  0.00    -0.153 OA
BRANCH  20  27
ATOM     23  C   UNL     1      -0.018   1.503   0.010  0.00  0.00    +0.044 C 
ATOM     24  C   UNL     1       0.002  -0.004   0.002  0.00  0.00    -0.050 A 
ATOM     25  C   UNL     1       0.006  -0.689  -1.199  0.00  0.00    +0.005 A 
ATOM     26  C   UNL     1       0.025  -2.071  -1.206  0.00  0.00    +0.029 A 
ATOM     27  C   UNL     1       0.040  -2.768  -0.013  0.00  0.00    +0.105 A 
ATOM     28  C   UNL     1       0.037  -2.084   1.188  0.00  0.00    +0.029 A 
ATOM     29  C   UNL     1       0.023  -0.702   1.195  0.00  0.00    +0.005 A 
ENDBRANCH  20  27
ENDBRANCH  18  20
ENDBRANCH  16  18
ENDBRANCH   1  16
TORSDOF 6
