REMARK  Name = ZINC38942557
REMARK  5 active torsions:
REMARK  status: ('A' for Active; 'I' for Inactive)
REMARK    1  A    between atoms: C_1  and  C_2
REMARK    2  A    between atoms: C_2  and  C_3
REMARK    3  A    between atoms: C_3  and  C_5
REMARK    4  A    between atoms: C_3  and  C_11
REMARK    5  A    between atoms: N_13  and  C_14
REMARK                            x       y       z     vdW  Elec       q    Type
REMARK                         _______ _______ _______ _____ _____    ______ ____
ROOT
ATOM      1  C   UNL     1      -2.676   1.183  -3.064  0.00  0.00    +0.034 A 
ATOM      2  C   UNL     1      -2.704   2.484  -3.546  0.00  0.00    +0.028 A 
ATOM      3  C   UNL     1      -3.200   2.748  -4.811  0.00  0.00    -0.024 A 
ATOM      4  C   UNL     1      -3.664   1.706  -5.601  0.00  0.00    +0.043 A 
ATOM      5  C   UNL     1      -3.653   0.406  -5.111  0.00  0.00    -0.023 A 
ATOM      6  C   UNL     1      -3.149   0.143  -3.852  0.00  0.00    +0.028 A 
ATOM      7  C   UNL     1      -4.204  -0.726  -5.939  0.00  0.00    +0.046 C 
ATOM      8  C   UNL     1      -3.954  -0.457  -7.422  0.00  0.00    +0.101 C 
ATOM      9  C   UNL     1      -4.360   0.952  -7.760  0.00  0.00    +0.220 C 
ATOM     10  O   UNL     1      -4.877   1.185  -8.832  0.00  0.00    -0.275 OA
ATOM     11  N   UNL     1      -4.157   1.954  -6.889  0.00  0.00    -0.271 N 
ATOM     12  C   UNL     1      -4.456   3.337  -7.287  0.00  0.00    +0.114 C 
ATOM     13  C   UNL     1      -3.291   4.220  -6.822  0.00  0.00    +0.024 C 
ATOM     14  C   UNL     1      -3.219   4.174  -5.296  0.00  0.00    +0.038 C 
ENDROOT
BRANCH   1  17
ATOM     15  C   UNL     1      -1.568  -0.261  -1.530  0.00  0.00    +0.225 C 
ATOM     16  O   UNL     1      -1.559  -1.132  -2.373  0.00  0.00    -0.275 OA
ATOM     17  N   UNL     1      -2.166   0.920  -1.786  0.00  0.00    -0.285 N 
ATOM     18  H   UNL     1      -2.243   1.587  -1.086  0.00  0.00    +0.155 HD
BRANCH  15  19
ATOM     19  C   UNL     1      -0.911  -0.498  -0.195  0.00  0.00    +0.105 C 
BRANCH  19  20
ATOM     20  C   UNL     1      -1.967  -0.578   0.878  0.00  0.00    -0.036 A 
ATOM     21  C   UNL     1      -2.944  -1.553   0.814  0.00  0.00    +0.004 A 
ATOM     22  C   UNL     1      -3.913  -1.627   1.798  0.00  0.00    +0.000 A 
ATOM     23  C   UNL     1      -3.904  -0.725   2.845  0.00  0.00    +0.000 A 
ATOM     24  C   UNL     1      -2.925   0.250   2.910  0.00  0.00    +0.000 A 
ATOM     25  C   UNL     1      -1.954   0.321   1.928  0.00  0.00    +0.004 A 
ENDBRANCH  19  20
BRANCH  19  27
ATOM     26  C   UNL     1       0.727  -1.938   1.025  0.00  0.00    +0.005 C 
ATOM     27  C   UNL     1      -0.128  -1.811  -0.238  0.00  0.00    +0.014 C 
ENDBRANCH  19  27
ENDBRANCH  15  19
ENDBRANCH   1  17
TORSDOF 4
