REMARK  Name = ZINC14742817
REMARK  8 active torsions:
REMARK  status: ('A' for Active; 'I' for Inactive)
REMARK    1  A    between atoms: C_1  and  O_2
REMARK    2  A    between atoms: O_2  and  C_3
REMARK    3  A    between atoms: C_3  and  C_4
REMARK    4  A    between atoms: C_4  and  C_5
REMARK    5  A    between atoms: C_5  and  N_6
REMARK    6  A    between atoms: N_9  and  C_26
REMARK    7  A    between atoms: C_17  and  N_72
REMARK    8  A    between atoms: C_26  and  C_27
REMARK                            x       y       z     vdW  Elec       q    Type
REMARK                         _______ _______ _______ _____ _____    ______ ____
ROOT
ATOM      1  N   UNL     1       6.224   4.003  -3.407  0.00  0.00    -0.271 N 
ATOM      2  C   UNL     1       6.035   3.541  -2.156  0.00  0.00    +0.312 C 
ATOM      3  O   UNL     1       6.524   2.511  -1.735  0.00  0.00    -0.252 OA
ATOM      4  N   UNL     1       5.247   4.343  -1.430  0.00  0.00    -0.220 N 
ATOM      5  C   UNL     1       4.846   5.420  -2.137  0.00  0.00    +0.247 C 
ATOM      6  O   UNL     1       4.133   6.324  -1.757  0.00  0.00    -0.273 OA
ATOM      7  C   UNL     1       5.474   5.261  -3.502  0.00  0.00    +0.112 C 
ATOM      8  C   UNL     1       6.415   6.425  -3.796  0.00  0.00    +0.017 C 
ATOM      9  C   UNL     1       7.014   6.252  -5.194  0.00  0.00    -0.076 C 
ATOM     10  C   UNL     1       5.061   5.030  -5.950  0.00  0.00    -0.076 C 
ATOM     11  C   UNL     1       4.396   5.162  -4.577  0.00  0.00    +0.017 C 
ATOM     12  N   UNL     1       5.915   6.214  -6.184  0.00  0.00    +0.382 N 
ATOM     13  H   UNL     1       5.345   7.061  -6.080  0.00  0.00    -0.081 HD
ENDROOT
BRANCH  12  14
ATOM     14  C   UNL     1       6.471   6.173  -7.552  0.00  0.00    -0.060 C 
ATOM     15  C   UNL     1       7.341   7.420  -7.813  0.00  0.00    +0.020 C 
ATOM     16  C   UNL     1       7.093   7.781  -9.262  0.00  0.00    -0.046 A 
ATOM     17  C   UNL     1       7.817   8.591 -10.121  0.00  0.00    +0.004 A 
ATOM     18  C   UNL     1       7.393   8.777 -11.422  0.00  0.00    +0.000 A 
ATOM     19  C   UNL     1       6.242   8.154 -11.869  0.00  0.00    +0.000 A 
ATOM     20  C   UNL     1       5.519   7.346 -11.013  0.00  0.00    +0.004 A 
ATOM     21  C   UNL     1       5.943   7.158  -9.708  0.00  0.00    -0.046 A 
ATOM     22  C   UNL     1       5.339   6.336  -8.589  0.00  0.00    +0.020 C 
ENDBRANCH  12  14
BRANCH   1  23
ATOM     23  C   UNL     1       7.024   3.377  -4.463  0.00  0.00    +0.112 C 
BRANCH  23  24
ATOM     24  C   UNL     1       6.368   2.062  -4.888  0.00  0.00    +0.047 C 
BRANCH  24  25
ATOM     25  C   UNL     1       7.266   1.348  -5.900  0.00  0.00    +0.161 C 
BRANCH  25  27
ATOM     26  C   UNL     1       7.477  -0.685  -7.152  0.00  0.00    +0.193 C 
ATOM     27  O   UNL     1       6.711   0.068  -6.210  0.00  0.00    -0.383 OA
ENDBRANCH  25  27
ENDBRANCH  24  25
ENDBRANCH  23  24
ENDBRANCH   1  23
BRANCH   4  28
ATOM     28  C   UNL     1       4.870   4.085  -0.037  0.00  0.00    +0.153 C 
BRANCH  28  29
ATOM     29  C   UNL     1       3.596   3.281  -0.002  0.00  0.00    -0.029 A 
ATOM     30  C   UNL     1       3.662   1.889  -0.001  0.00  0.00    +0.006 A 
ATOM     31  C   UNL     1       2.531   1.133   0.030  0.00  0.00    +0.009 A 
ATOM     32  C   UNL     1       1.275   1.763   0.062  0.00  0.00    -0.018 A 
ATOM     33  C   UNL     1       0.085   1.016   0.094  0.00  0.00    +0.008 A 
ATOM     34  C   UNL     1      -1.114   1.661   0.118  0.00  0.00    +0.001 A 
ATOM     35  C   UNL     1      -1.181   3.053   0.123  0.00  0.00    +0.001 A 
ATOM     36  C   UNL     1      -0.049   3.808   0.092  0.00  0.00    +0.008 A 
ATOM     37  C   UNL     1       1.207   3.179   0.060  0.00  0.00    -0.018 A 
ATOM     38  C   UNL     1       2.397   3.925   0.027  0.00  0.00    +0.013 A 
ENDBRANCH  28  29
ENDBRANCH   4  28
TORSDOF 7
