REMARK  Name = ZINC01819265
REMARK  9 active torsions:
REMARK  status: ('A' for Active; 'I' for Inactive)
REMARK    1  A    between atoms: C_1  and  C_2
REMARK    2  A    between atoms: C_7  and  O_8
REMARK    3  A    between atoms: O_8  and  C_9
REMARK    4  A    between atoms: C_9  and  C_10
REMARK    5  A    between atoms: N_12  and  C_13
REMARK    6  A    between atoms: C_13  and  C_14
REMARK    7  A    between atoms: N_16  and  N_17
REMARK    8  A    between atoms: N_25  and  C_28
REMARK    9  A    between atoms: C_28  and  C_29
REMARK                            x       y       z     vdW  Elec       q    Type
REMARK                         _______ _______ _______ _____ _____    ______ ____
ROOT
ATOM      1  N   UNL     1       0.112  -0.546  10.817  0.00  0.00    -0.174 NA
ATOM      2  C   UNL     1       0.115   0.041  11.989  0.00  0.00    +0.153 C 
ATOM      3  C   UNL     1       0.131  -0.605  13.322  0.00  0.00    +0.028 A 
ATOM      4  C   UNL     1       0.145  -1.932  13.737  0.00  0.00    +0.012 A 
ATOM      5  C   UNL     1       0.157  -2.229  15.085  0.00  0.00    +0.001 A 
ATOM      6  C   UNL     1       0.154  -1.207  16.020  0.00  0.00    +0.002 A 
ATOM      7  C   UNL     1       0.148   0.114  15.618  0.00  0.00    +0.024 A 
ATOM      8  C   UNL     1       0.131   0.431  14.264  0.00  0.00    +0.046 A 
ATOM      9  N   UNL     1       0.108   1.654  13.603  0.00  0.00    -0.261 N 
ATOM     10  C   UNL     1       0.098   1.492  12.269  0.00  0.00    +0.272 C 
ATOM     11  O   UNL     1       0.077   2.381  11.439  0.00  0.00    -0.268 OA
ENDROOT
BRANCH   1  14
ATOM     12  C   UNL     1       0.087  -0.378   8.443  0.00  0.00    +0.249 C 
ATOM     13  O   UNL     1       0.103  -1.589   8.371  0.00  0.00    -0.272 OA
ATOM     14  N   UNL     1       0.090   0.225   9.648  0.00  0.00    -0.205 N 
ATOM     15  H   UNL     1       0.078   1.193   9.705  0.00  0.00    +0.177 HD
BRANCH  12  16
ATOM     16  C   UNL     1       0.064   0.451   7.185  0.00  0.00    +0.202 C 
BRANCH  16  19
ATOM     17  C   UNL     1       0.046   0.090   4.775  0.00  0.00    +0.251 C 
ATOM     18  O   UNL     1       0.028   1.293   4.625  0.00  0.00    -0.272 OA
ATOM     19  N   UNL     1       0.065  -0.433   6.017  0.00  0.00    -0.304 N 
ATOM     20  H   UNL     1       0.079  -1.396   6.137  0.00  0.00    +0.149 HD
BRANCH  17  21
ATOM     21  C   UNL     1       0.047  -0.820   3.574  0.00  0.00    +0.324 C 
BRANCH  21  22
ATOM     22  O   UNL     1       0.025  -0.033   2.381  0.00  0.00    -0.483 OA
BRANCH  22  29
ATOM     23  C   UNL     1      -0.018   1.503   0.010  0.00  0.00    +0.047 C 
ATOM     24  C   UNL     1       0.002  -0.004   0.002  0.00  0.00    -0.009 A 
ATOM     25  C   UNL     1      -0.006  -0.689  -1.198  0.00  0.00    +0.007 A 
ATOM     26  C   UNL     1       0.018  -2.071  -1.206  0.00  0.00    +0.000 A 
ATOM     27  C   UNL     1       0.039  -2.772  -0.014  0.00  0.00    +0.004 A 
ATOM     28  C   UNL     1       0.041  -2.092   1.188  0.00  0.00    +0.046 A 
ATOM     29  C   UNL     1       0.023  -0.705   1.199  0.00  0.00    +0.124 A 
ENDBRANCH  22  29
ENDBRANCH  21  22
ENDBRANCH  17  21
ENDBRANCH  16  19
ENDBRANCH  12  16
ENDBRANCH   1  14
BRANCH   9  30
ATOM     30  C   UNL     1       0.096   2.956  14.276  0.00  0.00    +0.149 C 
BRANCH  30  31
ATOM     31  C   UNL     1      -1.328   3.382  14.520  0.00  0.00    -0.028 A 
ATOM     32  C   UNL     1      -1.964   3.029  15.696  0.00  0.00    +0.007 A 
ATOM     33  C   UNL     1      -3.270   3.419  15.921  0.00  0.00    +0.022 A 
ATOM     34  C   UNL     1      -3.943   4.165  14.970  0.00  0.00    +0.059 A 
ATOM     35  C   UNL     1      -3.307   4.519  13.792  0.00  0.00    +0.060 A 
ATOM     36  C   UNL     1      -1.997   4.132  13.571  0.00  0.00    +0.026 A 
ATOM     37 CL   UNL     1      -4.149   5.455  12.597  0.00  0.00    -0.082 Cl
ATOM     38 CL   UNL     1      -5.584   4.656  15.252  0.00  0.00    -0.082 Cl
ENDBRANCH  30  31
ENDBRANCH   9  30
TORSDOF 8
