REMARK  Name = ZINC01011767
REMARK  6 active torsions:
REMARK  status: ('A' for Active; 'I' for Inactive)
REMARK    1  A    between atoms: C_1  and  C_2
REMARK    2  A    between atoms: C_2  and  O_3
REMARK    3  A    between atoms: O_3  and  C_4
REMARK    4  A    between atoms: C_6  and  C_12
REMARK    5  A    between atoms: C_9  and  O_10
REMARK    6  A    between atoms: N_16  and  C_20
REMARK                            x       y       z     vdW  Elec       q    Type
REMARK                         _______ _______ _______ _____ _____    ______ ____
ROOT
ATOM      1  C   UNL     1       5.133   3.206  -0.017  0.00  0.00    +0.028 C 
ATOM      2  C   UNL     1       5.688   3.627   1.148  0.00  0.00    +0.080 C 
ATOM      3  C   UNL     1       6.963   4.334   1.382  0.00  0.00    +0.265 C 
ATOM      4  O   UNL     1       7.705   4.635   0.465  0.00  0.00    -0.269 OA
ATOM      5  N   UNL     1       7.255   4.628   2.638  0.00  0.00    -0.197 N 
ATOM      6  C   UNL     1       6.433   4.287   3.651  0.00  0.00    +0.290 C 
ATOM      7  O   UNL     1       6.579   4.488   4.842  0.00  0.00    -0.262 OA
ATOM      8  S   UNL     1       5.080   3.469   2.822  0.00  0.00    -0.025 S 
ENDROOT
BRANCH   1  11
ATOM      9  C   UNL     1       2.039   1.403  -1.131  0.00  0.00    +0.164 A 
ATOM     10  C   UNL     1       3.167   2.199  -1.157  0.00  0.00    +0.057 A 
ATOM     11  C   UNL     1       3.933   2.361   0.004  0.00  0.00    -0.019 A 
ATOM     12  C   UNL     1       3.550   1.715   1.186  0.00  0.00    +0.032 A 
ATOM     13  C   UNL     1       2.419   0.926   1.204  0.00  0.00    +0.087 A 
ATOM     14  C   UNL     1       1.664   0.762   0.049  0.00  0.00    +0.177 A 
ATOM     15 CL   UNL     1       1.941   0.131   2.671  0.00  0.00    -0.080 Cl
BRANCH  14  16
ATOM     16  O   UNL     1       0.554  -0.021   0.071  0.00  0.00    -0.502 OA
ATOM     17  H   UNL     1       0.722  -0.948  -0.148  0.00  0.00    +0.292 HD
ENDBRANCH  14  16
BRANCH   9  18
ATOM     18  O   UNL     1       1.293   1.244  -2.257  0.00  0.00    -0.489 OA
BRANCH  18  20
ATOM     19  C   UNL     1       0.778   1.632  -4.586  0.00  0.00    +0.048 C 
ATOM     20  C   UNL     1       1.736   1.929  -3.431  0.00  0.00    +0.226 C 
ENDBRANCH  18  20
ENDBRANCH   9  18
ENDBRANCH   1  11
BRANCH   5  21
ATOM     21  C   UNL     1       8.450   5.303   2.922  0.00  0.00    +0.046 A 
ATOM     22  C   UNL     1       8.612   6.626   2.530  0.00  0.00    +0.024 A 
ATOM     23  C   UNL     1       9.790   7.289   2.811  0.00  0.00    +0.003 A 
ATOM     24  C   UNL     1      10.808   6.639   3.484  0.00  0.00    +0.020 A 
ATOM     25  C   UNL     1      10.650   5.322   3.877  0.00  0.00    +0.043 A 
ATOM     26  C   UNL     1       9.471   4.654   3.602  0.00  0.00    +0.044 A 
ATOM     27 CL   UNL     1      11.930   4.509   4.722  0.00  0.00    -0.083 Cl
ENDBRANCH   5  21
TORSDOF 5
