REMARK  Name = ZINC24630863
REMARK  8 active torsions:
REMARK  status: ('A' for Active; 'I' for Inactive)
REMARK    1  A    between atoms: C_1  and  C_2
REMARK    2  A    between atoms: N_5  and  S_8
REMARK    3  A    between atoms: S_8  and  C_11
REMARK    4  A    between atoms: C_14  and  C_17
REMARK    5  A    between atoms: N_19  and  C_20
REMARK    6  A    between atoms: C_20  and  C_21
REMARK    7  A    between atoms: C_21  and  C_23
REMARK    8  A    between atoms: C_21  and  N_28
REMARK                            x       y       z     vdW  Elec       q    Type
REMARK                         _______ _______ _______ _____ _____    ______ ____
ROOT
ATOM      1  C   UNL     1       1.113   2.176   0.011  0.00  0.00    +0.244 C 
ATOM      2  O   UNL     1       2.178   1.602   0.128  0.00  0.00    -0.270 OA
ATOM      3  N   UNL     1      -0.034   1.470  -0.021  0.00  0.00    -0.313 N 
ATOM      4  H   UNL     1      -0.997   1.990  -0.127  0.00  0.00    +0.149 HD
ENDROOT
BRANCH   1   8
ATOM      5  C   UNL     1       1.008   6.412  -0.293  0.00  0.00    +0.106 A 
ATOM      6  C   UNL     1       2.221   5.761  -0.160  0.00  0.00    +0.029 A 
ATOM      7  C   UNL     1       2.263   4.386  -0.060  0.00  0.00    +0.015 A 
ATOM      8  C   UNL     1       1.077   3.651  -0.094  0.00  0.00    +0.037 A 
ATOM      9  C   UNL     1      -0.144   4.313  -0.234  0.00  0.00    +0.015 A 
ATOM     10  C   UNL     1      -0.172   5.689  -0.327  0.00  0.00    +0.029 A 
BRANCH   5  11
ATOM     11  S   UNL     1       0.964   8.169  -0.419  0.00  0.00    +0.061 S 
ATOM     12  O   UNL     1      -0.328   8.575   0.012  0.00  0.00    -0.153 OA
ATOM     13  O   UNL     1       2.156   8.649   0.187  0.00  0.00    -0.153 OA
BRANCH  11  18
ATOM     14  C   UNL     1       1.188  11.533  -5.057  0.00  0.00    +0.007 C 
ATOM     15  C   UNL     1       1.178  10.187  -4.330  0.00  0.00    -0.012 C 
ATOM     16  C   UNL     1      -0.127  10.043  -3.543  0.00  0.00    +0.020 C 
ATOM     17  C   UNL     1      -0.149   8.680  -2.844  0.00  0.00    +0.110 C 
ATOM     18  N   UNL     1       1.066   8.547  -2.028  0.00  0.00    -0.177 NA
ATOM     19  C   UNL     1       2.372   8.761  -2.666  0.00  0.00    +0.110 C 
ATOM     20  C   UNL     1       2.366  10.118  -3.368  0.00  0.00    +0.020 C 
ENDBRANCH  11  18
ENDBRANCH   5  11
ENDBRANCH   1   8
BRANCH   3  21
ATOM     21  C   UNL     1       0.003   0.009   0.083  0.00  0.00    +0.094 C 
BRANCH  21  22
ATOM     22  C   UNL     1      -1.427  -0.534   0.139  0.00  0.00    -0.013 C 
BRANCH  22  23
ATOM     23  N   UNL     1      -1.391  -1.984   0.371  0.00  0.00    +0.386 N 
ATOM     24  C   UNL     1      -0.697  -2.303   1.645  0.00  0.00    -0.078 C 
ATOM     25  C   UNL     1      -1.203  -3.728   1.978  0.00  0.00    -0.020 C 
ATOM     26  C   UNL     1      -2.681  -3.684   1.528  0.00  0.00    -0.020 C 
ATOM     27  C   UNL     1      -2.757  -2.533   0.508  0.00  0.00    -0.078 C 
ATOM     28  H   UNL     1      -0.869  -2.414  -0.497  0.00  0.00    -0.081 HD
ENDBRANCH  22  23
BRANCH  22  29
ATOM     29  C   UNL     1      -2.123  -0.252  -1.168  0.00  0.00    -0.022 A 
ATOM     30  C   UNL     1      -2.999   0.737  -1.472  0.00  0.00    +0.009 A 
ATOM     31  C   UNL     1      -3.517   0.803  -2.752  0.00  0.00    +0.008 A 
ATOM     32  C   UNL     1      -3.133  -0.122  -3.665  0.00  0.00    +0.045 A 
ATOM     33  S   UNL     1      -2.000  -1.127  -2.719  0.00  0.00    -0.103 S 
ENDBRANCH  22  29
ENDBRANCH  21  22
ENDBRANCH   3  21
TORSDOF 7
