REMARK  Name = ZINC16627833
REMARK  10 active torsions:
REMARK  status: ('A' for Active; 'I' for Inactive)
REMARK    1  A    between atoms: C_1  and  C_2
REMARK    2  A    between atoms: C_2  and  C_3
REMARK    3  A    between atoms: C_3  and  N_52
REMARK    4  A    between atoms: C_4  and  C_5
REMARK    5  A    between atoms: C_4  and  N_52
REMARK    6  A    between atoms: N_7  and  C_8
REMARK    7  A    between atoms: C_16  and  C_17
REMARK    8  A    between atoms: C_16  and  N_52
REMARK    9  A    between atoms: N_19  and  C_20
REMARK   10  A    between atoms: C_21  and  C_28
REMARK                            x       y       z     vdW  Elec       q    Type
REMARK                         _______ _______ _______ _____ _____    ______ ____
ROOT
ATOM      1  N   UNL     1       0.023  -0.045  -0.047  0.00  0.00    +0.391 N 
ATOM      2  H   UNL     1       0.760  -0.281   0.627  0.00  0.00    -0.080 HD
ENDROOT
BRANCH   1   3
ATOM      3  C   UNL     1       0.481  -0.406  -1.405  0.00  0.00    -0.078 C 
BRANCH   3   5
ATOM      4  C   UNL     1       0.020  -0.221  -3.854  0.00  0.00    +0.002 C 
ATOM      5  C   UNL     1      -0.527   0.069  -2.455  0.00  0.00    -0.022 C 
ENDBRANCH   3   5
ENDBRANCH   1   3
BRANCH   1   6
ATOM      6  C   UNL     1      -0.247   1.407   0.025  0.00  0.00    +0.020 C 
BRANCH   6   7
ATOM      7  C   UNL     1       1.067   2.144   0.026  0.00  0.00    +0.201 C 
ATOM      8  O   UNL     1       2.104   1.535  -0.127  0.00  0.00    -0.278 OA
ATOM      9  N   UNL     1       1.089   3.481   0.197  0.00  0.00    -0.286 N 
ATOM     10  H   UNL     1       0.264   3.962   0.370  0.00  0.00    +0.155 HD
BRANCH   9  11
ATOM     11  C   UNL     1       2.302   4.176   0.124  0.00  0.00    +0.052 A 
ATOM     12  C   UNL     1       3.495   3.525   0.410  0.00  0.00    +0.026 A 
ATOM     13  C   UNL     1       4.690   4.213   0.338  0.00  0.00    +0.022 A 
ATOM     14  C   UNL     1       4.701   5.550  -0.020  0.00  0.00    +0.042 A 
ATOM     15  C   UNL     1       3.515   6.202  -0.306  0.00  0.00    +0.041 A 
ATOM     16  C   UNL     1       2.316   5.517  -0.239  0.00  0.00    +0.064 A 
ATOM     17 CL   UNL     1       0.828   6.333  -0.604  0.00  0.00    -0.082 Cl
ATOM     18 CL   UNL     1       6.206   6.410  -0.111  0.00  0.00    -0.083 Cl
ENDBRANCH   9  11
ENDBRANCH   6   7
ENDBRANCH   1   6
BRANCH   1  19
ATOM     19  C   UNL     1      -1.199  -0.804   0.292  0.00  0.00    +0.020 C 
BRANCH  19  20
ATOM     20  C   UNL     1      -0.844  -2.262   0.427  0.00  0.00    +0.201 C 
ATOM     21  O   UNL     1       0.298  -2.628   0.242  0.00  0.00    -0.278 OA
ATOM     22  N   UNL     1      -1.795  -3.160   0.752  0.00  0.00    -0.281 N 
ATOM     23  H   UNL     1      -2.708  -2.868   0.900  0.00  0.00    +0.155 HD
BRANCH  22  24
ATOM     24  C   UNL     1      -1.468  -4.503   0.876  0.00  0.00    +0.090 A 
ATOM     25  C   UNL     1      -2.294  -5.563   1.204  0.00  0.00    +0.084 A 
ATOM     26  C   UNL     1      -1.697  -6.896   1.264  0.00  0.00    -0.018 A 
ATOM     27  C   UNL     1      -0.378  -6.943   0.997  0.00  0.00    -0.004 A 
ATOM     28  S   UNL     1       0.075  -5.258   0.663  0.00  0.00    -0.077 S 
ATOM     29  C   UNL     1       0.164  -8.344   1.081  0.00  0.00    +0.043 C 
ATOM     30  C   UNL     1      -1.086  -9.250   1.018  0.00  0.00    +0.010 C 
ATOM     31  C   UNL     1      -2.180  -8.314   1.569  0.00  0.00    +0.037 C 
BRANCH  25  32
ATOM     32  C   UNL     1      -3.687  -5.362   1.471  0.00  0.00    +0.102 C 
ATOM     33  N   UNL     1      -4.792  -5.202   1.683  0.00  0.00    -0.191 NA
ENDBRANCH  25  32
ENDBRANCH  22  24
ENDBRANCH  19  20
ENDBRANCH   1  19
TORSDOF 9
