REMARK  Name = ZINC63137831
REMARK  3 active torsions:
REMARK  status: ('A' for Active; 'I' for Inactive)
REMARK    1  A    between atoms: C_10  and  C_11
REMARK    2  A    between atoms: N_30  and  C_33
REMARK    3  A    between atoms: C_33  and  C_34
REMARK                            x       y       z     vdW  Elec       q    Type
REMARK                         _______ _______ _______ _____ _____    ______ ____
ROOT
ATOM      1  C   UNL     1       4.960   0.161  -0.046  0.00  0.00    +0.134 C 
ATOM      2  C   UNL     1       5.302   0.618   1.375  0.00  0.00    +0.131 C 
ATOM      3  C   UNL     1       6.730   1.146   1.335  0.00  0.00    -0.034 C 
ATOM      4  C   UNL     1       6.684   2.387   1.806  0.00  0.00    -0.001 A 
ATOM      5  C   UNL     1       7.744   3.372   2.075  0.00  0.00    +0.010 A 
ATOM      6  C   UNL     1       7.335   4.576   2.554  0.00  0.00    +0.001 A 
ATOM      7  C   UNL     1       5.994   4.895   2.790  0.00  0.00    +0.002 A 
ATOM      8  C   UNL     1       4.955   4.049   2.576  0.00  0.00    +0.026 A 
ATOM      9  C   UNL     1       5.260   2.749   2.077  0.00  0.00    +0.043 A 
ATOM     10  N   UNL     1       4.460   1.734   1.808  0.00  0.00    -0.375 N 
ATOM     11  C   UNL     1       7.873   0.342   0.766  0.00  0.00    +0.065 C 
ATOM     12  C   UNL     1       7.412  -0.161  -0.615  0.00  0.00    +0.167 C 
ATOM     13  N   UNL     1       6.063  -0.707  -0.518  0.00  0.00    -0.279 N 
ATOM     14  C   UNL     1       5.771  -1.973  -0.837  0.00  0.00    +0.234 C 
ATOM     15  O   UNL     1       4.622  -2.338  -0.702  0.00  0.00    -0.274 OA
ATOM     16  C   UNL     1       6.758  -2.969  -1.347  0.00  0.00    +0.204 C 
ATOM     17  N   UNL     1       8.093  -2.406  -1.470  0.00  0.00    -0.287 N 
ATOM     18  C   UNL     1       8.396  -1.152  -1.143  0.00  0.00    +0.237 C 
ATOM     19  O   UNL     1       9.545  -0.790  -1.286  0.00  0.00    -0.274 OA
ATOM     20  H   UNL     1       3.492   1.722   1.876  0.00  0.00    +0.160 HD
ENDROOT
BRANCH   1  30
ATOM     21  C   UNL     1       1.356  -0.972  -3.499  0.00  0.00    +0.001 A 
ATOM     22  C   UNL     1       2.548  -0.250  -3.527  0.00  0.00    +0.001 A 
ATOM     23  C   UNL     1       3.315  -0.122  -2.410  0.00  0.00    +0.009 A 
ATOM     24  C   UNL     1       2.903  -0.725  -1.210  0.00  0.00    -0.013 A 
ATOM     25  C   UNL     1       1.690  -1.459  -1.182  0.00  0.00    -0.018 A 
ATOM     26  C   UNL     1       0.924  -1.569  -2.355  0.00  0.00    +0.008 A 
ATOM     27  C   UNL     1       1.277  -2.061   0.019  0.00  0.00    +0.008 A 
ATOM     28  C   UNL     1       2.045  -1.933   1.135  0.00  0.00    +0.001 A 
ATOM     29  C   UNL     1       3.236  -1.211   1.108  0.00  0.00    +0.006 A 
ATOM     30  C   UNL     1       3.668  -0.615  -0.037  0.00  0.00    -0.017 A 
ENDBRANCH   1  30
BRANCH  17  31
ATOM     31  C   UNL     1       9.163  -3.267  -1.980  0.00  0.00    +0.143 C 
BRANCH  31  32
ATOM     32  C   UNL     1       9.233  -3.148  -3.481  0.00  0.00    -0.030 A 
ATOM     33  C   UNL     1       8.482  -3.993  -4.277  0.00  0.00    +0.006 A 
ATOM     34  C   UNL     1       8.545  -3.883  -5.653  0.00  0.00    +0.020 A 
ATOM     35  C   UNL     1       9.360  -2.928  -6.234  0.00  0.00    +0.041 A 
ATOM     36  C   UNL     1      10.111  -2.083  -5.437  0.00  0.00    +0.020 A 
ATOM     37  C   UNL     1      10.043  -2.189  -4.060  0.00  0.00    +0.006 A 
ATOM     38 CL   UNL     1       9.441  -2.791  -7.963  0.00  0.00    -0.084 Cl
ENDBRANCH  31  32
ENDBRANCH  17  31
TORSDOF 3
