REMARK  Name = ZINC38848482
REMARK  10 active torsions:
REMARK  status: ('A' for Active; 'I' for Inactive)
REMARK    1  A    between atoms: C_1  and  C_2
REMARK    2  A    between atoms: C_2  and  O_3
REMARK    3  A    between atoms: O_3  and  C_4
REMARK    4  A    between atoms: N_13  and  C_14
REMARK    5  A    between atoms: C_14  and  C_15
REMARK    6  A    between atoms: C_15  and  C_16
REMARK    7  A    between atoms: C_16  and  N_17
REMARK    8  A    between atoms: C_22  and  C_24
REMARK    9  A    between atoms: C_27  and  O_30
REMARK   10  A    between atoms: O_30  and  C_31
REMARK                            x       y       z     vdW  Elec       q    Type
REMARK                         _______ _______ _______ _____ _____    ______ ____
ROOT
ATOM      1  C   UNL     1      -2.634  -1.722   0.480  0.00  0.00    +0.122 A 
ATOM      2  C   UNL     1      -1.425  -2.372   0.246  0.00  0.00    +0.048 A 
ATOM      3  C   UNL     1      -1.369  -3.725   0.042  0.00  0.00    +0.032 A 
ATOM      4  C   UNL     1      -2.545  -4.510   0.062  0.00  0.00    +0.081 A 
ATOM      5  C   UNL     1      -3.754  -3.819   0.302  0.00  0.00    +0.044 A 
ATOM      6  C   UNL     1      -3.805  -2.464   0.512  0.00  0.00    +0.063 A 
ATOM      7  S   UNL     1      -4.955  -5.128   0.249  0.00  0.00    -0.052 S 
ATOM      8  C   UNL     1      -3.815  -6.466  -0.077  0.00  0.00    +0.168 A 
ATOM      9  N   UNL     1      -2.660  -5.845  -0.119  0.00  0.00    -0.224 NA
ATOM     10  N   UNL     1      -4.083  -7.814  -0.243  0.00  0.00    -0.246 N 
ATOM     11  C   UNL     1      -5.351  -8.264  -0.163  0.00  0.00    +0.252 C 
ATOM     12  O   UNL     1      -6.265  -7.480   0.002  0.00  0.00    -0.270 OA
ENDROOT
BRANCH  11  13
ATOM     13  C   UNL     1      -5.630  -9.709  -0.277  0.00  0.00    +0.038 A 
ATOM     14  C   UNL     1      -4.780 -10.636   0.334  0.00  0.00    +0.016 A 
ATOM     15  C   UNL     1      -5.044 -11.983   0.226  0.00  0.00    +0.047 A 
ATOM     16  C   UNL     1      -6.153 -12.421  -0.489  0.00  0.00    +0.128 A 
ATOM     17  C   UNL     1      -7.000 -11.502  -1.097  0.00  0.00    +0.047 A 
ATOM     18  C   UNL     1      -6.747 -10.153  -0.989  0.00  0.00    +0.016 A 
BRANCH  16  19
ATOM     19  O   UNL     1      -6.409 -13.750  -0.594  0.00  0.00    -0.456 OA
BRANCH  19  20
ATOM     20  C   UNL     1      -6.944 -14.383   0.482  0.00  0.00    +0.128 A 
ATOM     21  C   UNL     1      -7.317 -13.654   1.603  0.00  0.00    +0.046 A 
ATOM     22  C   UNL     1      -7.862 -14.301   2.696  0.00  0.00    +0.004 A 
ATOM     23  C   UNL     1      -8.034 -15.672   2.674  0.00  0.00    +0.000 A 
ATOM     24  C   UNL     1      -7.663 -16.401   1.559  0.00  0.00    +0.004 A 
ATOM     25  C   UNL     1      -7.124 -15.759   0.461  0.00  0.00    +0.046 A 
ENDBRANCH  19  20
ENDBRANCH  16  19
ENDBRANCH  11  13
BRANCH   1  26
ATOM     26  O   UNL     1      -2.665  -0.378   0.680  0.00  0.00    -0.492 OA
BRANCH  26  28
ATOM     27  C   UNL     1      -1.649   1.806   0.877  0.00  0.00    +0.048 C 
ATOM     28  C   UNL     1      -1.415   0.314   0.632  0.00  0.00    +0.225 C 
ENDBRANCH  26  28
ENDBRANCH   1  26
BRANCH  10  29
ATOM     29  C   UNL     1      -2.988  -8.752  -0.506  0.00  0.00    +0.117 C 
BRANCH  29  30
ATOM     30  C   UNL     1      -2.200  -8.990   0.783  0.00  0.00    +0.041 C 
BRANCH  30  31
ATOM     31  C   UNL     1      -1.154 -10.081   0.547  0.00  0.00    +0.124 C 
BRANCH  31  32
ATOM     32  N   UNL     1      -0.400 -10.309   1.782  0.00  0.00    -0.338 N 
ATOM     33  C   UNL     1       0.746  -9.666   2.164  0.00  0.00    +0.104 A 
ATOM     34  C   UNL     1       1.101 -10.178   3.358  0.00  0.00    +0.101 A 
ATOM     35  N   UNL     1       0.197 -11.110   3.696  0.00  0.00    -0.352 N 
ATOM     36  C   UNL     1      -0.708 -11.190   2.759  0.00  0.00    +0.173 A 
ATOM     37  H   UNL     1       0.211 -11.637   4.509  0.00  0.00    +0.166 HD
ENDBRANCH  31  32
ENDBRANCH  30  31
ENDBRANCH  29  30
ENDBRANCH  10  29
TORSDOF 9
