REMARK  Name = ZINC13032881
REMARK  11 active torsions:
REMARK  status: ('A' for Active; 'I' for Inactive)
REMARK    1  A    between atoms: C_1  and  C_2
REMARK    2  A    between atoms: C_4  and  C_37
REMARK    3  A    between atoms: C_7  and  C_14
REMARK    4  A    between atoms: C_14  and  N_66
REMARK    5  A    between atoms: C_15  and  C_16
REMARK    6  A    between atoms: C_15  and  N_66
REMARK    7  A    between atoms: C_16  and  C_17
REMARK    8  A    between atoms: C_23  and  C_24
REMARK    9  A    between atoms: C_23  and  N_66
REMARK   10  A    between atoms: N_28  and  C_29
REMARK   11  A    between atoms: C_29  and  C_30
REMARK                            x       y       z     vdW  Elec       q    Type
REMARK                         _______ _______ _______ _____ _____    ______ ____
ROOT
ATOM      1  N   UNL     1       1.741  -2.885  -1.544  0.00  0.00    +0.387 N 
ATOM      2  H   UNL     1       0.955  -2.704  -2.179  0.00  0.00    -0.081 HD
ENDROOT
BRANCH   1   3
ATOM      3  C   UNL     1       1.781  -4.329  -1.229  0.00  0.00    -0.037 C 
BRANCH   3  10
ATOM      4  C   UNL     1      -5.682  -7.130  -0.957  0.00  0.00    +0.044 C 
ATOM      5  C   UNL     1      -4.277  -6.660  -1.235  0.00  0.00    -0.048 A 
ATOM      6  C   UNL     1      -3.752  -6.782  -2.514  0.00  0.00    +0.007 A 
ATOM      7  C   UNL     1      -2.481  -6.362  -2.787  0.00  0.00    -0.041 A 
ATOM      8  C   UNL     1      -1.702  -5.805  -1.768  0.00  0.00    +0.002 A 
ATOM      9  C   UNL     1      -0.337  -5.340  -2.026  0.00  0.00    +0.017 A 
ATOM     10  C   UNL     1       0.373  -4.812  -0.999  0.00  0.00    +0.001 A 
ATOM     11  C   UNL     1      -0.205  -4.709   0.285  0.00  0.00    +0.251 A 
ATOM     12  O   UNL     1       0.450  -4.227   1.194  0.00  0.00    -0.268 OA
ATOM     13  N   UNL     1      -1.458  -5.128   0.531  0.00  0.00    -0.322 N 
ATOM     14  H   UNL     1      -1.825  -5.042   1.425  0.00  0.00    +0.169 HD
ATOM     15  C   UNL     1      -2.231  -5.679  -0.470  0.00  0.00    +0.050 A 
ATOM     16  C   UNL     1      -3.528  -6.113  -0.216  0.00  0.00    +0.029 A 
ATOM     17  C   UNL     1      -1.921  -6.500  -4.179  0.00  0.00    +0.044 C 
ENDBRANCH   3  10
ENDBRANCH   1   3
BRANCH   1  18
ATOM     18  C   UNL     1       2.997  -2.477  -2.206  0.00  0.00    -0.073 C 
BRANCH  18  19
ATOM     19  C   UNL     1       2.994  -3.013  -3.639  0.00  0.00    +0.016 C 
BRANCH  19  20
ATOM     20  C   UNL     1       4.309  -2.689  -4.300  0.00  0.00    -0.049 A 
ATOM     21  C   UNL     1       4.461  -1.504  -4.995  0.00  0.00    +0.003 A 
ATOM     22  C   UNL     1       5.669  -1.205  -5.596  0.00  0.00    +0.000 A 
ATOM     23  C   UNL     1       6.723  -2.096  -5.511  0.00  0.00    +0.000 A 
ATOM     24  C   UNL     1       6.569  -3.284  -4.821  0.00  0.00    +0.000 A 
ATOM     25  C   UNL     1       5.363  -3.580  -4.215  0.00  0.00    +0.003 A 
ENDBRANCH  19  20
ENDBRANCH  18  19
ENDBRANCH   1  18
BRANCH   1  26
ATOM     26  C   UNL     1       1.546  -2.104  -0.304  0.00  0.00    +0.001 C 
BRANCH  26  27
ATOM     27  C   UNL     1       1.363  -0.653  -0.667  0.00  0.00    +0.135 A 
ATOM     28  N   UNL     1       2.311   0.232  -0.859  0.00  0.00    -0.115 NA
ATOM     29  N   UNL     1       1.753   1.356  -1.152  0.00  0.00    -0.023 NA
ATOM     30  N   UNL     1       0.473   1.211  -1.152  0.00  0.00    -0.044 NA
ATOM     31  N   UNL     1       0.193  -0.013  -0.858  0.00  0.00    -0.227 N 
BRANCH  31  32
ATOM     32  C   UNL     1      -1.146  -0.598  -0.750  0.00  0.00    +0.182 C 
BRANCH  32  33
ATOM     33  C   UNL     1      -1.641  -0.974  -2.123  0.00  0.00    -0.026 A 
ATOM     34  C   UNL     1      -2.265  -0.028  -2.915  0.00  0.00    +0.008 A 
ATOM     35  C   UNL     1      -2.716  -0.370  -4.176  0.00  0.00    +0.038 A 
ATOM     36  C   UNL     1      -2.550  -1.663  -4.642  0.00  0.00    +0.123 A 
ATOM     37  C   UNL     1      -1.930  -2.611  -3.846  0.00  0.00    +0.038 A 
ATOM     38  C   UNL     1      -1.475  -2.265  -2.588  0.00  0.00    +0.008 A 
ATOM     39  F   UNL     1      -2.994  -2.000  -5.873  0.00  0.00    -0.205 F 
ENDBRANCH  32  33
ENDBRANCH  31  32
ENDBRANCH  26  27
ENDBRANCH   1  26
TORSDOF 9
