REMARK  Name = ZINC39227648
REMARK  13 active torsions:
REMARK  status: ('A' for Active; 'I' for Inactive)
REMARK    1  A    between atoms: C_1  and  C_2
REMARK    2  A    between atoms: C_2  and  C_3
REMARK    3  A    between atoms: C_2  and  C_4
REMARK    4  A    between atoms: C_4  and  N_5
REMARK    5  A    between atoms: N_5  and  C_6
REMARK    6  A    between atoms: C_6  and  C_7
REMARK    7  A    between atoms: C_7  and  C_8
REMARK    8  A    between atoms: C_7  and  C_9
REMARK    9  A    between atoms: C_10  and  C_12
REMARK   10  A    between atoms: C_15  and  C_18
REMARK   11  A    between atoms: N_31  and  C_34
REMARK   12  A    between atoms: C_34  and  C_35
REMARK   13  A    between atoms: C_34  and  C_36
REMARK                            x       y       z     vdW  Elec       q    Type
REMARK                         _______ _______ _______ _____ _____    ______ ____
ROOT
ATOM      1  C   UNL     1      -1.238   1.470  -5.689  0.00  0.00    -0.017 A 
ATOM      2  C   UNL     1      -1.273   2.833  -5.383  0.00  0.00    +0.012 A 
ATOM      3  C   UNL     1      -1.235   3.777  -6.386  0.00  0.00    +0.047 A 
ATOM      4  C   UNL     1      -1.159   3.382  -7.716  0.00  0.00    +0.132 A 
ATOM      5  C   UNL     1      -1.120   2.013  -8.029  0.00  0.00    +0.060 A 
ATOM      6  C   UNL     1      -1.156   1.058  -7.014  0.00  0.00    +0.023 A 
ATOM      7  C   UNL     1      -1.028   1.603  -9.442  0.00  0.00    +0.170 C 
ATOM      8  O   UNL     1      -0.780   0.459  -9.760  0.00  0.00    -0.292 OA
ATOM      9  C   UNL     1      -1.260   2.688 -10.479  0.00  0.00    +0.127 C 
ATOM     10  C   UNL     1      -0.575   3.960  -9.962  0.00  0.00    +0.114 C 
ATOM     11  O   UNL     1      -1.127   4.316  -8.696  0.00  0.00    -0.485 OA
ATOM     12  C   UNL     1       0.926   3.701  -9.816  0.00  0.00    +0.030 C 
ATOM     13  C   UNL     1       1.622   4.995  -9.386  0.00  0.00    -0.075 C 
ATOM     14  N   UNL     1       1.398   6.034 -10.399  0.00  0.00    +0.381 N 
ATOM     15  C   UNL     1      -0.035   6.339 -10.490  0.00  0.00    -0.075 C 
ATOM     16  C   UNL     1      -0.796   5.098 -10.961  0.00  0.00    +0.030 C 
ATOM     17  H   UNL     1       1.729   5.707 -11.294  0.00  0.00    -0.081 HD
ENDROOT
BRANCH   1  21
ATOM     18  C   UNL     1      -1.364  -1.416  -2.564  0.00  0.00    +0.037 A 
ATOM     19  C   UNL     1      -1.405  -0.053  -2.259  0.00  0.00    +0.013 A 
ATOM     20  C   UNL     1      -1.364   0.879  -3.271  0.00  0.00    +0.009 A 
ATOM     21  C   UNL     1      -1.282   0.464  -4.600  0.00  0.00    -0.018 A 
ATOM     22  C   UNL     1      -1.241  -0.896  -4.906  0.00  0.00    +0.009 A 
ATOM     23  C   UNL     1      -1.276  -1.831  -3.896  0.00  0.00    +0.013 A 
BRANCH  18  25
ATOM     24  N   UNL     1      -2.086  -2.154  -0.346  0.00  0.00    -0.297 N 
ATOM     25  C   UNL     1      -1.408  -2.418  -1.480  0.00  0.00    +0.247 C 
ATOM     26  O   UNL     1      -0.832  -3.481  -1.611  0.00  0.00    -0.270 OA
BRANCH  24  27
ATOM     27  C   UNL     1      -2.781  -0.874  -0.189  0.00  0.00    +0.111 C 
BRANCH  27  29
ATOM     28  C   UNL     1      -2.542   1.474   0.633  0.00  0.00    +0.009 C 
ATOM     29  C   UNL     1      -1.914   0.079   0.638  0.00  0.00    +0.000 C 
ATOM     30  C   UNL     1      -1.821  -0.434   2.076  0.00  0.00    +0.009 C 
ENDBRANCH  27  29
ENDBRANCH  24  27
BRANCH  24  31
ATOM     31  C   UNL     1      -2.129  -3.147   0.730  0.00  0.00    +0.111 C 
BRANCH  31  32
ATOM     32  C   UNL     1      -3.334  -4.068   0.527  0.00  0.00    +0.000 C 
ATOM     33  C   UNL     1      -3.149  -4.873  -0.760  0.00  0.00    +0.009 C 
ATOM     34  C   UNL     1      -3.451  -5.025   1.715  0.00  0.00    +0.009 C 
ENDBRANCH  31  32
ENDBRANCH  24  31
ENDBRANCH  18  25
ENDBRANCH   1  21
BRANCH  14  35
ATOM     35  C   UNL     1       2.133   7.249 -10.022  0.00  0.00    -0.075 C 
ATOM     36  C   UNL     1       3.627   6.934  -9.936  0.00  0.00    -0.014 C 
ATOM     37  C   UNL     1       1.899   8.333 -11.076  0.00  0.00    -0.014 C 
ENDBRANCH  14  35
TORSDOF 7
