REMARK  Name = ZINC24176636
REMARK  7 active torsions:
REMARK  status: ('A' for Active; 'I' for Inactive)
REMARK    1  A    between atoms: C_1  and  C_2
REMARK    2  A    between atoms: C_8  and  C_10
REMARK    3  A    between atoms: C_10  and  S_11
REMARK    4  A    between atoms: S_11  and  C_12
REMARK    5  A    between atoms: C_20  and  C_24
REMARK    6  A    between atoms: N_27  and  C_28
REMARK    7  A    between atoms: C_28  and  C_29
REMARK                            x       y       z     vdW  Elec       q    Type
REMARK                         _______ _______ _______ _____ _____    ______ ____
ROOT
ATOM      1  C   UNL     1       0.002  -0.004   0.002  0.00  0.00    +0.173 A 
ATOM      2  N   UNL     1       1.157  -0.638  -0.018  0.00  0.00    -0.216 NA
ATOM      3  C   UNL     1       1.204  -1.965  -0.021  0.00  0.00    +0.117 A 
ATOM      4  C   UNL     1       0.041  -2.755  -0.013  0.00  0.00    +0.076 A 
ATOM      5  C   UNL     1       0.253  -4.204  -0.022  0.00  0.00    -0.023 A 
ATOM      6  C   UNL     1       1.530  -4.636  -0.037  0.00  0.00    -0.004 A 
ATOM      7  S   UNL     1       2.515  -3.162  -0.040  0.00  0.00    -0.073 S 
ATOM      8  C   UNL     1       2.008  -6.056  -0.048  0.00  0.00    +0.046 C 
ATOM      9  C   UNL     1       0.832  -6.965   0.336  0.00  0.00    -0.009 C 
ATOM     10  C   UNL     1      -0.393  -6.558  -0.487  0.00  0.00    +0.008 C 
ATOM     11  C   UNL     1      -0.906  -5.197  -0.016  0.00  0.00    +0.037 C 
ATOM     12  C   UNL     1       1.192  -8.423   0.040  0.00  0.00    +0.008 C 
ATOM     13  C   UNL     1      -1.198  -2.039   0.003  0.00  0.00    +0.263 A 
ATOM     14  O   UNL     1      -2.258  -2.640   0.010  0.00  0.00    -0.267 OA
ATOM     15  N   UNL     1      -1.176  -0.694   0.010  0.00  0.00    -0.285 N 
ENDROOT
BRANCH   1  16
ATOM     16  S   UNL     1      -0.022   1.758   0.012  0.00  0.00    -0.078 S 
BRANCH  16  17
ATOM     17  C   UNL     1       1.756   2.096  -0.004  0.00  0.00    +0.173 C 
BRANCH  17  25
ATOM     18  C   UNL     1       5.919   8.181  -0.011  0.00  0.00    +0.066 C 
ATOM     19  C   UNL     1       4.612   7.432  -0.002  0.00  0.00    +0.047 A 
ATOM     20  C   UNL     1       3.431   8.098   0.013  0.00  0.00    +0.071 A 
ATOM     21  S   UNL     1       2.279   6.732   0.017  0.00  0.00    -0.060 S 
ATOM     22  C   UNL     1       3.450   5.450  -0.002  0.00  0.00    +0.165 A 
ATOM     23  N   UNL     1       4.589   6.114  -0.004  0.00  0.00    -0.230 NA
ATOM     24  N   UNL     1       3.240   4.076  -0.007  0.00  0.00    -0.264 N 
ATOM     25  C   UNL     1       1.984   3.586   0.002  0.00  0.00    +0.229 C 
ATOM     26  O   UNL     1       1.037   4.344   0.015  0.00  0.00    -0.275 OA
ATOM     27  H   UNL     1       4.098   3.388  -0.019  0.00  0.00    +0.157 HD
ENDBRANCH  17  25
ENDBRANCH  16  17
ENDBRANCH   1  16
BRANCH  15  28
ATOM     28  C   UNL     1      -2.441   0.045   0.025  0.00  0.00    +0.159 C 
BRANCH  28  29
ATOM     29  C   UNL     1      -2.895   0.310  -1.412  0.00  0.00    +0.138 C 
ATOM     30  C   UNL     1      -4.165   1.187  -1.407  0.00  0.00    +0.035 C 
ATOM     31  C   UNL     1      -5.002   0.561  -2.556  0.00  0.00    +0.031 C 
ATOM     32  C   UNL     1      -4.613  -0.933  -2.423  0.00  0.00    +0.160 C 
ATOM     33  O   UNL     1      -3.225  -0.928  -2.053  0.00  0.00    -0.375 OA
ENDBRANCH  28  29
ENDBRANCH  15  28
TORSDOF 5
