REMARK  Name = ZINC09503120
REMARK  11 active torsions:
REMARK  status: ('A' for Active; 'I' for Inactive)
REMARK    1  A    between atoms: C_1  and  C_2
REMARK    2  A    between atoms: C_3  and  C_27
REMARK    3  A    between atoms: N_4  and  C_21
REMARK    4  A    between atoms: C_5  and  N_9
REMARK    5  A    between atoms: C_6  and  C_7
REMARK    6  A    between atoms: C_10  and  C_12
REMARK    7  A    between atoms: C_12  and  N_49
REMARK    8  A    between atoms: C_13  and  N_49
REMARK    9  A    between atoms: C_14  and  C_15
REMARK   10  A    between atoms: C_14  and  N_49
REMARK   11  A    between atoms: C_21  and  C_22
REMARK                            x       y       z     vdW  Elec       q    Type
REMARK                         _______ _______ _______ _____ _____    ______ ____
ROOT
ATOM      1  C   UNL     1      -1.239  -0.893  -0.100  0.00  0.00    +0.047 C 
ATOM      2  C   UNL     1      -0.034   0.012  -0.075  0.00  0.00    -0.011 A 
ATOM      3  C   UNL     1       1.254  -0.368  -0.074  0.00  0.00    +0.022 A 
ATOM      4  N   UNL     1       2.054   0.743  -0.048  0.00  0.00    -0.324 N 
ATOM      5  C   UNL     1       1.292   1.867  -0.032  0.00  0.00    +0.124 A 
ATOM      6  C   UNL     1      -0.040   1.480  -0.048  0.00  0.00    +0.095 A 
ATOM      7  C   UNL     1       1.743  -1.794  -0.097  0.00  0.00    +0.064 C 
ENDROOT
BRANCH   5   8
ATOM      8  N   UNL     1       1.763   3.171  -0.005  0.00  0.00    -0.272 N 
ATOM      9  C   UNL     1       1.036   4.138   0.590  0.00  0.00    +0.202 C 
ATOM     10  O   UNL     1       0.025   3.850   1.195  0.00  0.00    -0.278 OA
ATOM     11  H   UNL     1       2.615   3.388  -0.414  0.00  0.00    +0.156 HD
BRANCH   9  12
ATOM     12  C   UNL     1       1.479   5.575   0.503  0.00  0.00    +0.019 C 
BRANCH  12  14
ATOM     13  C   UNL     1       0.463   6.279   2.586  0.00  0.00    -0.095 C 
ATOM     14  N   UNL     1       0.440   6.431   1.116  0.00  0.00    +0.387 N 
ATOM     15  H   UNL     1      -0.480   6.140   0.764  0.00  0.00    -0.081 HD
BRANCH  14  16
ATOM     16  C   UNL     1       0.670   7.844   0.750  0.00  0.00    -0.035 C 
BRANCH  16  17
ATOM     17  C   UNL     1      -0.515   8.661   1.198  0.00  0.00    -0.026 A 
ATOM     18  C   UNL     1      -0.715   9.301   2.375  0.00  0.00    +0.010 A 
ATOM     19  C   UNL     1      -1.893   9.998   2.569  0.00  0.00    +0.023 A 
ATOM     20  C   UNL     1      -2.814  10.019   1.574  0.00  0.00    +0.055 A 
ATOM     21  S   UNL     1      -2.017   9.041   0.311  0.00  0.00    -0.088 S 
ATOM     22 BR   UNL     1      -4.502  10.872   1.532  0.00  0.00    -0.043 Br
ENDBRANCH  16  17
ENDBRANCH  14  16
ENDBRANCH  12  14
ENDBRANCH   9  12
ENDBRANCH   5   8
BRANCH   6  23
ATOM     23  C   UNL     1      -1.187   2.337  -0.045  0.00  0.00    +0.103 C 
ATOM     24  N   UNL     1      -2.097   3.017  -0.043  0.00  0.00    -0.191 NA
ENDBRANCH   6  23
BRANCH   4  25
ATOM     25  C   UNL     1       3.519   0.722  -0.038  0.00  0.00    +0.197 C 
BRANCH  25  26
ATOM     26  C   UNL     1       4.029   0.617  -1.453  0.00  0.00    +0.124 A 
ATOM     27  C   UNL     1       4.395   1.648  -2.235  0.00  0.00    +0.046 A 
ATOM     28  C   UNL     1       4.808   1.099  -3.470  0.00  0.00    +0.041 A 
ATOM     29  C   UNL     1       4.661  -0.235  -3.372  0.00  0.00    +0.195 A 
ATOM     30  O   UNL     1       4.189  -0.521  -2.148  0.00  0.00    -0.466 OA
ENDBRANCH  25  26
ENDBRANCH   4  25
TORSDOF 8
