REMARK  Name = ZINC63372873
REMARK  13 active torsions:
REMARK  status: ('A' for Active; 'I' for Inactive)
REMARK    1  A    between atoms: C_1  and  C_2
REMARK    2  A    between atoms: C_2  and  C_3
REMARK    3  A    between atoms: C_3  and  C_4
REMARK    4  A    between atoms: C_4  and  C_5
REMARK    5  A    between atoms: C_5  and  N_6
REMARK    6  A    between atoms: C_12  and  C_28
REMARK    7  A    between atoms: C_24  and  C_27
REMARK    8  A    between atoms: C_31  and  O_36
REMARK    9  A    between atoms: C_32  and  O_34
REMARK   10  A    between atoms: O_34  and  C_35
REMARK   11  A    between atoms: O_36  and  C_37
REMARK   12  A    between atoms: C_37  and  C_38
REMARK   13  A    between atoms: C_37  and  C_39
REMARK                            x       y       z     vdW  Elec       q    Type
REMARK                         _______ _______ _______ _____ _____    ______ ____
ROOT
ATOM      1  N   UNL     1       1.637  -3.442  -2.592  0.00  0.00    -0.291 N 
ATOM      2  C   UNL     1       2.767  -4.298  -2.186  0.00  0.00    +0.203 C 
ATOM      3  C   UNL     1       2.231  -5.446  -1.357  0.00  0.00    +0.234 C 
ATOM      4  O   UNL     1       2.791  -5.814  -0.345  0.00  0.00    -0.274 OA
ATOM      5  N   UNL     1       1.081  -6.050  -1.804  0.00  0.00    -0.283 N 
ATOM      6  C   UNL     1       0.445  -7.003  -0.912  0.00  0.00    +0.121 C 
ATOM      7  C   UNL     1      -0.586  -7.895  -1.609  0.00  0.00    +0.065 C 
ATOM      8  C   UNL     1      -1.333  -7.002  -2.567  0.00  0.00    -0.027 C 
ATOM      9  C   UNL     1      -2.610  -6.670  -2.678  0.00  0.00    -0.000 A 
ATOM     10  C   UNL     1      -3.816  -7.148  -1.982  0.00  0.00    +0.010 A 
ATOM     11  C   UNL     1      -4.988  -6.559  -2.337  0.00  0.00    +0.001 A 
ATOM     12  C   UNL     1      -5.081  -5.552  -3.303  0.00  0.00    +0.002 A 
ATOM     13  C   UNL     1      -4.027  -5.060  -4.001  0.00  0.00    +0.026 A 
ATOM     14  C   UNL     1      -2.742  -5.609  -3.724  0.00  0.00    +0.043 A 
ATOM     15  N   UNL     1      -1.583  -5.351  -4.258  0.00  0.00    -0.375 N 
ATOM     16  C   UNL     1      -0.598  -6.256  -3.669  0.00  0.00    +0.139 C 
ATOM     17  C   UNL     1       0.610  -5.584  -3.097  0.00  0.00    +0.135 C 
ATOM     18  C   UNL     1       0.532  -4.080  -3.083  0.00  0.00    +0.242 C 
ATOM     19  O   UNL     1      -0.442  -3.477  -3.483  0.00  0.00    -0.273 OA
ATOM     20  C   UNL     1       1.748  -5.895  -4.072  0.00  0.00    +0.044 C 
ATOM     21  H   UNL     1      -1.405  -4.675  -4.931  0.00  0.00    +0.160 HD
ENDROOT
BRANCH   7  22
ATOM     22  C   UNL     1       0.109  -9.001  -2.361  0.00  0.00    -0.035 A 
ATOM     23  C   UNL     1       1.422  -8.841  -2.765  0.00  0.00    +0.008 A 
ATOM     24  C   UNL     1       2.064  -9.851  -3.455  0.00  0.00    +0.050 A 
ATOM     25  C   UNL     1       1.392 -11.029  -3.744  0.00  0.00    +0.162 A 
ATOM     26  C   UNL     1       0.071 -11.190  -3.337  0.00  0.00    +0.162 A 
ATOM     27  C   UNL     1      -0.565 -10.175  -2.641  0.00  0.00    +0.053 A 
BRANCH  26  28
ATOM     28  O   UNL     1      -0.592 -12.343  -3.618  0.00  0.00    -0.491 OA
ATOM     29  C   UNL     1      -1.946 -12.439  -3.169  0.00  0.00    +0.277 C 
ENDBRANCH  26  28
BRANCH  25  30
ATOM     30  O   UNL     1       2.022 -12.024  -4.423  0.00  0.00    -0.486 OA
BRANCH  30  31
ATOM     31  C   UNL     1       3.401 -11.822  -4.738  0.00  0.00    +0.167 C 
ATOM     32  C   UNL     1       4.262 -12.207  -3.533  0.00  0.00    +0.051 C 
ATOM     33  C   UNL     1       3.784 -12.694  -5.936  0.00  0.00    +0.051 C 
ENDBRANCH  30  31
ENDBRANCH  25  30
ENDBRANCH   7  22
BRANCH   1  34
ATOM     34  C   UNL     1       1.694  -1.983  -2.471  0.00  0.00    +0.108 C 
BRANCH  34  35
ATOM     35  C   UNL     1       1.173  -1.565  -1.094  0.00  0.00    +0.019 C 
BRANCH  35  36
ATOM     36  C   UNL     1       1.232  -0.042  -0.967  0.00  0.00    +0.001 C 
BRANCH  36  38
ATOM     37  C   UNL     1       0.770   1.899   0.537  0.00  0.00    +0.004 C 
ATOM     38  C   UNL     1       0.711   0.375   0.410  0.00  0.00    -0.003 C 
ENDBRANCH  36  38
ENDBRANCH  35  36
ENDBRANCH  34  35
ENDBRANCH   1  34
TORSDOF 8
