REMARK  Name = ZINC42398404
REMARK  6 active torsions:
REMARK  status: ('A' for Active; 'I' for Inactive)
REMARK    1  A    between atoms: C_1  and  N_2
REMARK    2  A    between atoms: N_2  and  C_3
REMARK    3  A    between atoms: N_2  and  C_10
REMARK    4  A    between atoms: C_3  and  C_4
REMARK    5  A    between atoms: C_10  and  C_20
REMARK    6  A    between atoms: C_20  and  N_21
REMARK                            x       y       z     vdW  Elec       q    Type
REMARK                         _______ _______ _______ _____ _____    ______ ____
ROOT
ATOM      1  C   UNL     1      -1.280  -0.469   0.198  0.00  0.00    +0.011 C 
ATOM      2  C   UNL     1      -2.155   0.130  -0.910  0.00  0.00    +0.025 C 
ATOM      3  C   UNL     1      -3.614  -0.201  -0.604  0.00  0.00    +0.037 C 
ATOM      4  C   UNL     1      -3.779  -1.674  -0.340  0.00  0.00    -0.044 A 
ATOM      5  C   UNL     1      -5.060  -2.207  -0.420  0.00  0.00    +0.004 A 
ATOM      6  C   UNL     1      -5.277  -3.548  -0.184  0.00  0.00    +0.000 A 
ATOM      7  C   UNL     1      -4.213  -4.370   0.136  0.00  0.00    +0.000 A 
ATOM      8  C   UNL     1      -2.940  -3.844   0.214  0.00  0.00    +0.004 A 
ATOM      9  C   UNL     1      -2.718  -2.494  -0.027  0.00  0.00    -0.043 A 
ATOM     10  C   UNL     1      -1.302  -1.990   0.059  0.00  0.00    +0.055 C 
ENDROOT
BRANCH   1  12
ATOM     11  C   UNL     1       0.701  -0.452  -1.193  0.00  0.00    +0.105 C 
ATOM     12  N   UNL     1       0.098   0.021   0.059  0.00  0.00    -0.297 NA
BRANCH  12  13
ATOM     13  C   UNL     1       0.146   1.487   0.147  0.00  0.00    +0.127 C 
BRANCH  13  14
ATOM     14  C   UNL     1       1.545   1.922   0.500  0.00  0.00    +0.005 A 
ATOM     15  C   UNL     1       2.578   2.227  -0.323  0.00  0.00    +0.027 A 
ATOM     16  C   UNL     1       3.786   2.608   0.231  0.00  0.00    +0.025 A 
ATOM     17  C   UNL     1       3.902   2.665   1.581  0.00  0.00    +0.060 A 
ATOM     18  S   UNL     1       2.268   2.179   2.112  0.00  0.00    -0.099 S 
ATOM     19 BR   UNL     1       5.256   3.042  -0.877  0.00  0.00    -0.050 Br
ENDBRANCH  13  14
ENDBRANCH  12  13
ENDBRANCH   1  12
BRANCH   1  20
ATOM     20  C   UNL     1      -1.835  -0.068   1.566  0.00  0.00    -0.064 C 
BRANCH  20  21
ATOM     21  N   UNL     1      -0.938  -0.560   2.621  0.00  0.00    +0.379 N 
ATOM     22  H   UNL     1      -0.030  -0.131   2.518  0.00  0.00    -0.090 HD
ATOM     23  H   UNL     1      -1.321  -0.325   3.524  0.00  0.00    -0.090 HD
ATOM     24  H   UNL     1      -0.847  -1.562   2.545  0.00  0.00    -0.090 HD
ENDBRANCH  20  21
ENDBRANCH   1  20
TORSDOF 5
