REMARK  Name = ZINC57839996
REMARK  7 active torsions:
REMARK  status: ('A' for Active; 'I' for Inactive)
REMARK    1  A    between atoms: C_1  and  C_2
REMARK    2  A    between atoms: C_2  and  C_3
REMARK    3  A    between atoms: C_2  and  C_4
REMARK    4  A    between atoms: C_7  and  C_10
REMARK    5  A    between atoms: N_14  and  C_18
REMARK    6  A    between atoms: C_18  and  C_19
REMARK    7  A    between atoms: C_19  and  N_20
REMARK                            x       y       z     vdW  Elec       q    Type
REMARK                         _______ _______ _______ _____ _____    ______ ____
ROOT
ATOM      1  C   UNL     1       2.707  -1.868  -4.752  0.00  0.00    +0.191 C 
ATOM      2  C   UNL     1       3.947  -1.040  -5.021  0.00  0.00    +0.248 C 
ATOM      3  O   UNL     1       3.998   0.150  -5.246  0.00  0.00    -0.273 OA
ATOM      4  N   UNL     1       4.982  -1.901  -4.955  0.00  0.00    -0.226 N 
ATOM      5  C   UNL     1       4.571  -3.145  -4.686  0.00  0.00    +0.309 C 
ATOM      6  O   UNL     1       5.321  -4.096  -4.578  0.00  0.00    -0.252 OA
ATOM      7  N   UNL     1       3.232  -3.229  -4.549  0.00  0.00    -0.284 N 
ATOM      8  H   UNL     1       2.716  -4.027  -4.354  0.00  0.00    +0.151 HD
ENDROOT
BRANCH   1  12
ATOM      9  C   UNL     1       0.707  -0.490  -1.238  0.00  0.00    -0.045 A 
ATOM     10  C   UNL     1       0.222  -0.151  -2.487  0.00  0.00    +0.004 A 
ATOM     11  C   UNL     1       0.869  -0.597  -3.624  0.00  0.00    +0.006 A 
ATOM     12  C   UNL     1       2.002  -1.381  -3.513  0.00  0.00    -0.018 A 
ATOM     13  C   UNL     1       2.488  -1.720  -2.263  0.00  0.00    +0.006 A 
ATOM     14  C   UNL     1       1.843  -1.270  -1.126  0.00  0.00    +0.004 A 
BRANCH   9  16
ATOM     15  C   UNL     1      -0.019   1.526   0.010  0.00  0.00    +0.012 C 
ATOM     16  C   UNL     1       0.002  -0.004   0.002  0.00  0.00    +0.013 C 
ATOM     17  C   UNL     1      -1.433  -0.534   0.013  0.00  0.00    +0.012 C 
ENDBRANCH   9  16
ENDBRANCH   1  12
BRANCH   4  18
ATOM     18  C   UNL     1       6.383  -1.521  -5.155  0.00  0.00    +0.098 C 
BRANCH  18  19
ATOM     19  C   UNL     1       7.000  -1.125  -3.813  0.00  0.00    -0.067 C 
BRANCH  19  20
ATOM     20  N   UNL     1       8.405  -0.745  -4.013  0.00  0.00    +0.379 N 
ATOM     21  H   UNL     1       8.812  -0.484  -3.128  0.00  0.00    -0.090 HD
ATOM     22  H   UNL     1       8.913  -1.526  -4.400  0.00  0.00    -0.090 HD
ATOM     23  H   UNL     1       8.454   0.037  -4.650  0.00  0.00    -0.090 HD
ENDBRANCH  19  20
ENDBRANCH  18  19
ENDBRANCH   4  18
TORSDOF 5
