REMARK  Name = ZINC02449568
REMARK  12 active torsions:
REMARK  status: ('A' for Active; 'I' for Inactive)
REMARK    1  A    between atoms: C_1  and  C_2
REMARK    2  A    between atoms: C_2  and  O_3
REMARK    3  A    between atoms: O_3  and  C_4
REMARK    4  A    between atoms: C_4  and  C_6
REMARK    5  A    between atoms: C_7  and  C_39
REMARK    6  A    between atoms: N_8  and  C_38
REMARK    7  A    between atoms: C_11  and  N_17
REMARK    8  A    between atoms: C_12  and  O_15
REMARK    9  A    between atoms: O_15  and  C_16
REMARK   10  A    between atoms: C_18  and  C_20
REMARK   11  A    between atoms: C_20  and  N_75
REMARK   12  A    between atoms: C_27  and  C_37
REMARK                            x       y       z     vdW  Elec       q    Type
REMARK                         _______ _______ _______ _____ _____    ______ ____
ROOT
ATOM      1  N   UNL     1       9.485   4.078  -0.854  0.00  0.00    -0.284 N 
ATOM      2  C   UNL     1       8.344   3.768  -0.206  0.00  0.00    +0.201 C 
ATOM      3  O   UNL     1       7.559   4.643   0.092  0.00  0.00    -0.278 OA
ATOM      4  H   UNL     1      10.074   3.372  -1.162  0.00  0.00    +0.155 HD
ENDROOT
BRANCH   1  10
ATOM      5  C   UNL     1      12.310   5.262  -0.215  0.00  0.00    +0.089 A 
ATOM      6  C   UNL     1      13.257   6.243  -0.149  0.00  0.00    +0.030 A 
ATOM      7  N   UNL     1      12.743   7.407  -0.614  0.00  0.00    -0.346 N 
ATOM      8  C   UNL     1      11.430   7.231  -1.006  0.00  0.00    +0.052 A 
ATOM      9  C   UNL     1      11.098   5.888  -0.776  0.00  0.00    +0.039 A 
ATOM     10  C   UNL     1       9.818   5.419  -1.081  0.00  0.00    +0.086 A 
ATOM     11  C   UNL     1       8.881   6.292  -1.618  0.00  0.00    +0.142 A 
ATOM     12  C   UNL     1       9.213   7.623  -1.838  0.00  0.00    +0.049 A 
ATOM     13  C   UNL     1      10.475   8.091  -1.539  0.00  0.00    +0.030 A 
ATOM     14  C   UNL     1      13.476   8.672  -0.691  0.00  0.00    +0.149 C 
ATOM     15  C   UNL     1      14.662   6.059   0.364  0.00  0.00    +0.064 C 
BRANCH   5  16
ATOM     16  C   UNL     1      12.467   3.861   0.191  0.00  0.00    +0.342 C 
ATOM     17  O   UNL     1      12.855   3.034  -0.612  0.00  0.00    -0.245 OA
BRANCH  16  18
ATOM     18  O   UNL     1      12.182   3.490   1.456  0.00  0.00    -0.461 OA
BRANCH  18  20
ATOM     19  C   UNL     1      11.991   1.860   3.255  0.00  0.00    +0.048 C 
ATOM     20  C   UNL     1      12.361   2.088   1.788  0.00  0.00    +0.229 C 
ENDBRANCH  18  20
ENDBRANCH  16  18
ENDBRANCH   5  16
BRANCH  11  21
ATOM     21  O   UNL     1       7.633   5.844  -1.925  0.00  0.00    -0.493 OA
ATOM     22  C   UNL     1       6.719   6.795  -2.474  0.00  0.00    +0.277 C 
ENDBRANCH  11  21
ENDBRANCH   1  10
BRANCH   2  23
ATOM     23  C   UNL     1       8.044   2.334   0.148  0.00  0.00    +0.020 C 
BRANCH  23  40
ATOM     24  C   UNL     1       5.687   2.767  -0.205  0.00  0.00    -0.055 C 
ATOM     25  C   UNL     1       4.274   2.338   0.207  0.00  0.00    +0.103 C 
ATOM     26  N   UNL     1       4.102   2.639   1.637  0.00  0.00    -0.347 N 
ATOM     27  C   UNL     1       2.970   2.696   2.393  0.00  0.00    +0.049 A 
ATOM     28  C   UNL     1       1.625   2.529   2.071  0.00  0.00    +0.026 A 
ATOM     29  C   UNL     1       0.708   2.647   3.100  0.00  0.00    +0.005 A 
ATOM     30  C   UNL     1       1.093   2.920   4.403  0.00  0.00    -0.050 A 
ATOM     31  C   UNL     1       2.408   3.092   4.753  0.00  0.00    +0.013 A 
ATOM     32  C   UNL     1       3.361   2.980   3.736  0.00  0.00    +0.003 A 
ATOM     33  C   UNL     1       4.794   3.097   3.717  0.00  0.00    -0.020 A 
ATOM     34  C   UNL     1       5.177   2.899   2.440  0.00  0.00    +0.009 A 
ATOM     35  C   UNL     1       6.629   2.951   2.022  0.00  0.00    -0.020 C 
ATOM     36  C   UNL     1       7.451   2.225   3.076  0.00  0.00    -0.009 C 
ATOM     37  C   UNL     1       7.035   2.438   4.510  0.00  0.00    +0.003 C 
ATOM     38  C   UNL     1       5.847   3.357   4.758  0.00  0.00    +0.037 C 
ATOM     39  C   UNL     1       0.032   3.033   5.468  0.00  0.00    +0.044 C 
ATOM     40  N   UNL     1       6.690   2.218   0.732  0.00  0.00    +0.392 N 
ATOM     41  H   UNL     1       6.484   1.227   0.900  0.00  0.00    -0.080 HD
ENDBRANCH  23  40
ENDBRANCH   2  23
TORSDOF 7
