REMARK  Name = ZINC39621216
REMARK  8 active torsions:
REMARK  status: ('A' for Active; 'I' for Inactive)
REMARK    1  A    between atoms: C_1  and  C_2
REMARK    2  A    between atoms: C_7  and  C_8
REMARK    3  A    between atoms: C_7  and  C_9
REMARK    4  A    between atoms: N_12  and  N_13
REMARK    5  A    between atoms: C_14  and  C_16
REMARK    6  A    between atoms: C_16  and  O_17
REMARK    7  A    between atoms: O_17  and  C_18
REMARK    8  A    between atoms: C_23  and  C_24
REMARK                            x       y       z     vdW  Elec       q    Type
REMARK                         _______ _______ _______ _____ _____    ______ ____
ROOT
ATOM      1  N   UNL     1      -2.635   1.113  -0.532  0.00  0.00    -0.204 N 
ATOM      2  C   UNL     1      -3.849   1.688  -0.640  0.00  0.00    +0.270 C 
ATOM      3  O   UNL     1      -4.840   1.083  -0.288  0.00  0.00    -0.270 OA
ATOM      4  H   UNL     1      -1.843   1.597  -0.813  0.00  0.00    +0.177 HD
ENDROOT
BRANCH   1  15
ATOM      5  C   UNL     1      -0.037   1.546   0.137  0.00  0.00    +0.018 C 
ATOM      6  C   UNL     1      -0.001   0.018   0.071  0.00  0.00    +0.013 C 
ATOM      7  C   UNL     1       0.673  -0.592  -1.195  0.00  0.00    +0.013 C 
ATOM      8  C   UNL     1       1.037  -2.037  -0.785  0.00  0.00    +0.005 C 
ATOM      9  C   UNL     1       0.538  -2.161   0.688  0.00  0.00    +0.001 C 
ATOM     10  C   UNL     1       0.806  -0.704   1.207  0.00  0.00    -0.021 C 
ATOM     11  C   UNL     1       2.293  -0.345   1.174  0.00  0.00    +0.012 C 
ATOM     12  C   UNL     1       0.194  -0.464   2.589  0.00  0.00    +0.012 C 
ATOM     13  C   UNL     1      -1.017  -2.155   0.570  0.00  0.00    +0.057 C 
ATOM     14  C   UNL     1      -1.359  -0.689   0.187  0.00  0.00    +0.044 C 
ATOM     15  N   UNL     1      -2.517  -0.183  -0.014  0.00  0.00    -0.189 NA
ENDBRANCH   1  15
BRANCH   2  16
ATOM     16  C   UNL     1      -3.976   3.082  -1.197  0.00  0.00    +0.326 C 
BRANCH  16  17
ATOM     17  O   UNL     1      -5.353   3.467  -1.210  0.00  0.00    -0.480 OA
BRANCH  17  18
ATOM     18  C   UNL     1      -5.642   4.704  -1.686  0.00  0.00    +0.155 A 
ATOM     19  C   UNL     1      -5.669   5.792  -0.826  0.00  0.00    +0.085 A 
ATOM     20  C   UNL     1      -5.964   7.052  -1.311  0.00  0.00    +0.045 A 
ATOM     21  C   UNL     1      -6.235   7.240  -2.657  0.00  0.00    +0.062 A 
ATOM     22  C   UNL     1      -6.213   6.170  -3.528  0.00  0.00    +0.077 A 
ATOM     23  C   UNL     1      -5.910   4.888  -3.050  0.00  0.00    +0.126 A 
ATOM     24 CL   UNL     1      -6.553   6.412  -5.213  0.00  0.00    -0.081 Cl
ATOM     25 CL   UNL     1      -6.605   8.829  -3.251  0.00  0.00    -0.082 Cl
ATOM     26 CL   UNL     1      -5.332   5.571   0.863  0.00  0.00    -0.080 Cl
BRANCH  23  27
ATOM     27  C   UNL     1      -5.879   3.743  -3.973  0.00  0.00    +0.392 C 
ATOM     28  O   UNL     1      -5.619   2.625  -3.550  0.00  0.00    -0.240 OA
ATOM     29  O   UNL     1      -6.113   3.909  -5.162  0.00  0.00    -0.240 OA
ENDBRANCH  23  27
ENDBRANCH  17  18
ENDBRANCH  16  17
ENDBRANCH   2  16
TORSDOF 5
