REMARK  Name = ZINC36800123
REMARK  9 active torsions:
REMARK  status: ('A' for Active; 'I' for Inactive)
REMARK    1  A    between atoms: C_1  and  C_2
REMARK    2  A    between atoms: C_3  and  C_7
REMARK    3  A    between atoms: C_10  and  S_13
REMARK    4  A    between atoms: N_11  and  N_12
REMARK    5  A    between atoms: S_13  and  C_14
REMARK    6  A    between atoms: C_14  and  C_16
REMARK    7  A    between atoms: C_14  and  C_22
REMARK    8  A    between atoms: N_24  and  C_25
REMARK    9  A    between atoms: C_29  and  N_31
REMARK                            x       y       z     vdW  Elec       q    Type
REMARK                         _______ _______ _______ _____ _____    ______ ____
ROOT
ATOM      1  C   UNL     1      -7.304   0.655   0.053  0.00  0.00    +0.170 C 
ENDROOT
BRANCH   1   2
ATOM      2  C   UNL     1      -7.043   1.401  -1.230  0.00  0.00    -0.025 A 
ATOM      3  C   UNL     1      -7.383   0.829  -2.442  0.00  0.00    +0.005 A 
ATOM      4  C   UNL     1      -7.144   1.513  -3.620  0.00  0.00    +0.000 A 
ATOM      5  C   UNL     1      -6.565   2.768  -3.585  0.00  0.00    +0.000 A 
ATOM      6  C   UNL     1      -6.226   3.339  -2.373  0.00  0.00    +0.000 A 
ATOM      7  C   UNL     1      -6.469   2.658  -1.196  0.00  0.00    +0.005 A 
ENDBRANCH   1   2
BRANCH   1   8
ATOM      8  C   UNL     1      -8.778   0.373   0.179  0.00  0.00    +0.235 C 
ATOM      9  O   UNL     1      -9.212  -0.724  -0.106  0.00  0.00    -0.274 OA
ATOM     10  N   UNL     1      -9.615   1.338   0.609  0.00  0.00    -0.284 N 
ATOM     11  H   UNL     1      -9.261   2.192   0.901  0.00  0.00    +0.155 HD
BRANCH  10  12
ATOM     12  C   UNL     1     -10.996   1.107   0.634  0.00  0.00    +0.036 A 
ATOM     13  C   UNL     1     -11.879   2.140   0.348  0.00  0.00    +0.025 A 
ATOM     14  C   UNL     1     -13.240   1.909   0.373  0.00  0.00    +0.024 A 
ATOM     15  C   UNL     1     -13.725   0.651   0.683  0.00  0.00    +0.071 A 
ATOM     16  C   UNL     1     -12.847  -0.380   0.969  0.00  0.00    +0.146 A 
ATOM     17  C   UNL     1     -11.484  -0.156   0.940  0.00  0.00    +0.057 A 
ATOM     18 CL   UNL     1     -15.437   0.365   0.715  0.00  0.00    -0.081 Cl
BRANCH  16  19
ATOM     19  N   UNL     1     -13.368  -1.725   1.301  0.00  0.00    +0.058 N 
ATOM     20  O   UNL     1     -12.602  -2.626   1.551  0.00  0.00    -0.126 OA
ATOM     21  O   UNL     1     -14.561  -1.922   1.323  0.00  0.00    -0.126 OA
ENDBRANCH  16  19
ENDBRANCH  10  12
ENDBRANCH   1   8
BRANCH   1  22
ATOM     22  S   UNL     1      -6.387  -0.910   0.041  0.00  0.00    -0.067 S 
BRANCH  22  26
ATOM     23  C   UNL     1      -2.511  -0.411   0.034  0.00  0.00    +0.185 A 
ATOM     24  N   UNL     1      -2.961   0.822   0.044  0.00  0.00    -0.127 NA
ATOM     25  N   UNL     1      -4.246   0.820   0.046  0.00  0.00    -0.121 NA
ATOM     26  C   UNL     1      -4.696  -0.414   0.039  0.00  0.00    +0.210 A 
ATOM     27  N   UNL     1      -3.608  -1.241   0.025  0.00  0.00    -0.224 N 
BRANCH  23  30
ATOM     28  C   UNL     1      -0.015   1.486   0.054  0.00  0.00    +0.087 C 
ATOM     29  C   UNL     1       0.002  -0.021   0.037  0.00  0.00    +0.112 A 
ATOM     30  C   UNL     1      -1.092  -0.829   0.029  0.00  0.00    +0.061 A 
ATOM     31  C   UNL     1      -0.573  -2.203   0.012  0.00  0.00    +0.053 A 
ATOM     32  C   UNL     1       0.766  -2.092   0.013  0.00  0.00    +0.196 A 
ATOM     33  O   UNL     1       1.098  -0.793   0.023  0.00  0.00    -0.467 OA
ENDBRANCH  23  30
BRANCH  27  34
ATOM     34  N   UNL     1      -3.609  -2.607   0.009  0.00  0.00    -0.295 N 
ATOM     35  H   UNL     1      -3.609  -2.980   0.947  0.00  0.00    +0.163 HD
ATOM     36  H   UNL     1      -4.392  -2.961  -0.521  0.00  0.00    +0.163 HD
ENDBRANCH  27  34
ENDBRANCH  22  26
ENDBRANCH   1  22
TORSDOF 8
