REMARK  Name = ZINC19878705
REMARK  8 active torsions:
REMARK  status: ('A' for Active; 'I' for Inactive)
REMARK    1  A    between atoms: C_1  and  C_2
REMARK    2  A    between atoms: C_2  and  C_4
REMARK    3  A    between atoms: C_2  and  N_33
REMARK    4  A    between atoms: C_10  and  C_32
REMARK    5  A    between atoms: C_21  and  C_31
REMARK    6  A    between atoms: C_24  and  O_27
REMARK    7  A    between atoms: O_27  and  C_28
REMARK    8  A    between atoms: C_28  and  C_30
REMARK                            x       y       z     vdW  Elec       q    Type
REMARK                         _______ _______ _______ _____ _____    ______ ____
ROOT
ATOM      1  C   UNL     1       0.511   1.137   2.552  0.00  0.00    -0.020 C 
ATOM      2  C   UNL     1       0.097   2.082   3.712  0.00  0.00    +0.003 C 
ATOM      3  C   UNL     1      -0.558   3.330   3.050  0.00  0.00    +0.004 C 
ATOM      4  C   UNL     1      -0.107   3.197   1.591  0.00  0.00    -0.001 C 
ATOM      5  C   UNL     1      -0.283   1.687   1.347  0.00  0.00    -0.028 C 
ATOM      6  C   UNL     1       0.248   1.314  -0.014  0.00  0.00    +0.007 C 
ATOM      7  C   UNL     1      -0.448   2.182  -1.081  0.00  0.00    +0.005 C 
ATOM      8  C   UNL     1      -0.175   3.657  -0.824  0.00  0.00    -0.001 C 
ATOM      9  C   UNL     1      -0.738   4.067   0.549  0.00  0.00    -0.004 C 
ATOM     10  C   UNL     1      -2.259   4.037   0.524  0.00  0.00    +0.004 C 
ATOM     11  C   UNL     1      -2.752   5.038  -0.534  0.00  0.00    +0.004 C 
ATOM     12  C   UNL     1      -2.252   4.569  -1.904  0.00  0.00    -0.001 C 
ATOM     13  C   UNL     1      -0.725   4.562  -1.920  0.00  0.00    -0.026 C 
ATOM     14  C   UNL     1      -0.231   5.995  -1.693  0.00  0.00    +0.011 C 
ATOM     15  C   UNL     1      -0.735   6.916  -2.798  0.00  0.00    +0.045 C 
ATOM     16  C   UNL     1      -2.254   6.894  -2.904  0.00  0.00    +0.177 C 
ATOM     17  C   UNL     1      -2.806   5.479  -2.993  0.00  0.00    +0.048 C 
ATOM     18  C   UNL     1      -0.222   4.076  -3.283  0.00  0.00    +0.012 C 
ATOM     19  C   UNL     1      -1.721   1.200   1.517  0.00  0.00    +0.011 C 
ENDROOT
BRANCH   1  21
ATOM     20  C   UNL     1       0.757  -0.781   4.129  0.00  0.00    -0.014 C 
ATOM     21  C   UNL     1       0.077  -0.296   2.848  0.00  0.00    -0.075 C 
BRANCH  21  22
ATOM     22  N   UNL     1       0.464  -1.165   1.729  0.00  0.00    +0.380 N 
ATOM     23  H   UNL     1      -0.025  -0.817   0.807  0.00  0.00    -0.090 HD
ATOM     24  H   UNL     1       0.151  -2.198   1.942  0.00  0.00    -0.090 HD
ATOM     25  H   UNL     1       1.556  -1.132   1.599  0.00  0.00    -0.090 HD
ENDBRANCH  21  22
ENDBRANCH   1  21
BRANCH  16  26
ATOM     26  O   UNL     1      -2.846   7.603  -1.785  0.00  0.00    -0.462 OA
BRANCH  26  27
ATOM     27  C   UNL     1      -3.065   8.918  -1.943  0.00  0.00    +0.304 C 
ATOM     28  O   UNL     1      -2.772   9.458  -2.984  0.00  0.00    -0.251 OA
ATOM     29  C   UNL     1      -3.677   9.720  -0.824  0.00  0.00    +0.136 C 
ENDBRANCH  26  27
ENDBRANCH  16  26
TORSDOF 4
