REMARK  Name = ZINC39699631
REMARK  10 active torsions:
REMARK  status: ('A' for Active; 'I' for Inactive)
REMARK    1  A    between atoms: C_1  and  O_2
REMARK    2  A    between atoms: O_2  and  C_3
REMARK    3  A    between atoms: C_6  and  C_11
REMARK    4  A    between atoms: C_8  and  O_9
REMARK    5  A    between atoms: O_9  and  C_10
REMARK    6  A    between atoms: C_12  and  C_13
REMARK    7  A    between atoms: C_12  and  N_27
REMARK    8  A    between atoms: N_15  and  N_16
REMARK    9  A    between atoms: C_17  and  C_18
REMARK   10  A    between atoms: C_28  and  C_30
REMARK                            x       y       z     vdW  Elec       q    Type
REMARK                         _______ _______ _______ _____ _____    ______ ____
ROOT
ATOM      1  C   UNL     1      -4.799  -2.576   0.011  0.00  0.00    +0.036 C 
ATOM      2  C   UNL     1      -5.965  -1.891   0.114  0.00  0.00    +0.098 C 
ENDROOT
BRANCH   1   6
ATOM      3  C   UNL     1      -1.101  -0.527   0.376  0.00  0.00    +0.162 A 
ATOM      4  C   UNL     1      -2.224  -0.053   1.040  0.00  0.00    +0.050 A 
ATOM      5  C   UNL     1      -3.427  -0.715   0.924  0.00  0.00    +0.012 A 
ATOM      6  C   UNL     1      -3.518  -1.868   0.136  0.00  0.00    -0.019 A 
ATOM      7  C   UNL     1      -2.385  -2.345  -0.533  0.00  0.00    +0.057 A 
ATOM      8  C   UNL     1      -1.184  -1.672  -0.416  0.00  0.00    +0.162 A 
BRANCH   3  10
ATOM      9  C   UNL     1       0.098   1.295   1.321  0.00  0.00    +0.277 C 
ATOM     10  O   UNL     1       0.083   0.130   0.494  0.00  0.00    -0.491 OA
ENDBRANCH   3  10
BRANCH   8  11
ATOM     11  O   UNL     1      -0.082  -2.128  -1.069  0.00  0.00    -0.491 OA
ATOM     12  C   UNL     1      -0.240  -3.306  -1.863  0.00  0.00    +0.277 C 
ENDBRANCH   8  11
ENDBRANCH   1   6
BRANCH   2  13
ATOM     13  C   UNL     1      -5.953  -0.425   0.156  0.00  0.00    +0.277 C 
ATOM     14  O   UNL     1      -6.272   0.157   1.176  0.00  0.00    -0.267 OA
ATOM     15  N   UNL     1      -5.590   0.278  -0.935  0.00  0.00    -0.202 N 
ATOM     16  H   UNL     1      -5.406  -0.182  -1.769  0.00  0.00    +0.178 HD
BRANCH  15  17
ATOM     17  N   UNL     1      -5.477   1.672  -0.865  0.00  0.00    -0.188 NA
ATOM     18  C   UNL     1      -5.123   2.355  -1.926  0.00  0.00    +0.136 C 
BRANCH  18  19
ATOM     19  C   UNL     1      -5.010   3.750  -1.855  0.00  0.00    +0.000 C 
ATOM     20  C   UNL     1      -4.654   4.619  -2.885  0.00  0.00    +0.004 A 
ATOM     21  C   UNL     1      -4.312   4.407  -4.238  0.00  0.00    +0.010 A 
ATOM     22  C   UNL     1      -4.001   5.465  -5.028  0.00  0.00    +0.001 A 
ATOM     23  C   UNL     1      -4.008   6.774  -4.536  0.00  0.00    +0.002 A 
ATOM     24  C   UNL     1      -4.326   7.052  -3.249  0.00  0.00    +0.026 A 
ATOM     25  C   UNL     1      -4.663   5.996  -2.361  0.00  0.00    +0.043 A 
ATOM     26  N   UNL     1      -5.002   6.003  -1.088  0.00  0.00    -0.380 N 
ATOM     27  C   UNL     1      -5.257   4.628  -0.648  0.00  0.00    +0.150 C 
ATOM     28  H   UNL     1      -5.077   6.793  -0.531  0.00  0.00    +0.160 HD
ENDBRANCH  18  19
ENDBRANCH  15  17
ENDBRANCH   2  13
BRANCH   2  29
ATOM     29  N   UNL     1      -7.179  -2.583   0.180  0.00  0.00    -0.277 N 
ATOM     30  C   UNL     1      -8.334  -1.904   0.329  0.00  0.00    +0.248 C 
ATOM     31  O   UNL     1      -8.329  -0.689   0.327  0.00  0.00    -0.270 OA
ATOM     32  H   UNL     1      -7.190  -3.551   0.118  0.00  0.00    +0.155 HD
BRANCH  30  33
ATOM     33  C   UNL     1      -9.606  -2.638   0.496  0.00  0.00    +0.037 A 
ATOM     34  C   UNL     1      -9.614  -4.034   0.505  0.00  0.00    +0.013 A 
ATOM     35  C   UNL     1     -10.805  -4.713   0.661  0.00  0.00    +0.001 A 
ATOM     36  C   UNL     1     -11.989  -4.014   0.809  0.00  0.00    +0.000 A 
ATOM     37  C   UNL     1     -11.988  -2.630   0.801  0.00  0.00    +0.001 A 
ATOM     38  C   UNL     1     -10.804  -1.939   0.651  0.00  0.00    +0.013 A 
ENDBRANCH  30  33
ENDBRANCH   2  29
TORSDOF 8
