REMARK  Name = ZINC48356593
REMARK  4 active torsions:
REMARK  status: ('A' for Active; 'I' for Inactive)
REMARK    1  A    between atoms: C_1  and  C_2
REMARK    2  A    between atoms: C_7  and  N_8
REMARK    3  A    between atoms: C_17  and  C_18
REMARK    4  A    between atoms: C_17  and  O_25
REMARK                            x       y       z     vdW  Elec       q    Type
REMARK                         _______ _______ _______ _____ _____    ______ ____
ROOT
ATOM      1  N   UNL     1      -0.167  -0.046   2.404  0.00  0.00    -0.230 N 
ATOM      2  C   UNL     1      -1.314   0.145   3.077  0.00  0.00    +0.254 C 
ATOM      3  O   UNL     1      -2.404  -0.262   2.724  0.00  0.00    -0.270 OA
ATOM      4  C   UNL     1      -1.062   0.921   4.307  0.00  0.00    +0.045 A 
ATOM      5  C   UNL     1      -1.906   1.372   5.324  0.00  0.00    +0.013 A 
ATOM      6  C   UNL     1      -1.385   2.092   6.378  0.00  0.00    +0.001 A 
ATOM      7  C   UNL     1      -0.030   2.371   6.433  0.00  0.00    +0.000 A 
ATOM      8  C   UNL     1       0.813   1.927   5.428  0.00  0.00    +0.009 A 
ATOM      9  C   UNL     1       0.304   1.207   4.372  0.00  0.00    +0.019 A 
ATOM     10  C   UNL     1       0.928   0.587   3.147  0.00  0.00    +0.193 C 
ENDROOT
BRANCH   1  17
ATOM     11  C   UNL     1       0.247  -2.860   2.509  0.00  0.00    +0.045 C 
ATOM     12  C   UNL     1       0.166  -2.114   1.202  0.00  0.00    -0.029 A 
ATOM     13  C   UNL     1       0.287  -2.798   0.008  0.00  0.00    +0.005 A 
ATOM     14  C   UNL     1       0.213  -2.114  -1.192  0.00  0.00    +0.000 A 
ATOM     15  C   UNL     1       0.016  -0.746  -1.201  0.00  0.00    +0.002 A 
ATOM     16  C   UNL     1      -0.106  -0.056  -0.011  0.00  0.00    +0.024 A 
ATOM     17  C   UNL     1      -0.038  -0.741   1.196  0.00  0.00    +0.043 A 
ENDBRANCH   1  17
BRANCH  10  18
ATOM     18  C   UNL     1       1.578   1.653   2.304  0.00  0.00    +0.008 A 
ATOM     19  C   UNL     1       0.807   2.431   1.460  0.00  0.00    +0.011 A 
ATOM     20  C   UNL     1       1.402   3.410   0.686  0.00  0.00    +0.039 A 
ATOM     21  C   UNL     1       2.770   3.611   0.756  0.00  0.00    +0.123 A 
ATOM     22  C   UNL     1       3.541   2.832   1.602  0.00  0.00    +0.039 A 
ATOM     23  C   UNL     1       2.943   1.857   2.379  0.00  0.00    +0.011 A 
ATOM     24  F   UNL     1       3.352   4.568   0.000  0.00  0.00    -0.205 F 
ENDBRANCH  10  18
BRANCH  10  25
ATOM     25  O   UNL     1       1.894  -0.394   3.529  0.00  0.00    -0.364 OA
ATOM     26  H   UNL     1       2.644  -0.036   4.024  0.00  0.00    +0.213 HD
ENDBRANCH  10  25
TORSDOF 3
