REMARK  Name = ZINC05740439
REMARK  4 active torsions:
REMARK  status: ('A' for Active; 'I' for Inactive)
REMARK    1  A    between atoms: C_1  and  C_2
REMARK    2  A    between atoms: C_5  and  C_8
REMARK    3  A    between atoms: C_18  and  N_25
REMARK    4  A    between atoms: C_21  and  C_24
REMARK                            x       y       z     vdW  Elec       q    Type
REMARK                         _______ _______ _______ _____ _____    ______ ____
ROOT
ATOM      1  C   UNL     1       0.555  -0.661  -3.516  0.00  0.00    +0.105 C 
ATOM      2  C   UNL     1      -0.107  -1.921  -4.078  0.00  0.00    +0.029 C 
ATOM      3  C   UNL     1       0.763  -2.428  -5.262  0.00  0.00    +0.033 C 
ATOM      4  C   UNL     1       1.864  -3.218  -4.582  0.00  0.00    -0.030 C 
ATOM      5  C   UNL     1       1.494  -3.582  -3.380  0.00  0.00    -0.023 C 
ATOM      6  C   UNL     1       0.110  -3.081  -3.081  0.00  0.00    +0.051 C 
ATOM      7  C   UNL     1       0.004  -2.613  -1.660  0.00  0.00    +0.011 A 
ATOM      8  C   UNL     1       0.010  -3.572  -0.656  0.00  0.00    +0.132 A 
ATOM      9  C   UNL     1      -0.075  -3.202   0.670  0.00  0.00    +0.033 A 
ATOM     10  C   UNL     1      -0.168  -1.865   1.011  0.00  0.00    +0.007 A 
ATOM     11  C   UNL     1      -0.177  -0.905   0.022  0.00  0.00    -0.029 A 
ATOM     12  C   UNL     1      -0.098  -1.275  -1.320  0.00  0.00    +0.037 A 
ATOM     13  N   UNL     1      -0.122  -0.265  -2.280  0.00  0.00    -0.336 N 
ATOM     14  C   UNL     1      -0.280   0.552   0.393  0.00  0.00    +0.045 C 
ATOM     15  H   UNL     1      -1.067   0.035  -2.466  0.00  0.00    +0.147 HD
ENDROOT
BRANCH   1  20
ATOM     16  C   UNL     1       6.121  -1.744  -2.399  0.00  0.00    +0.044 C 
ATOM     17  C   UNL     1       4.669  -1.462  -2.690  0.00  0.00    -0.050 A 
ATOM     18  C   UNL     1       3.742  -1.484  -1.665  0.00  0.00    +0.004 A 
ATOM     19  C   UNL     1       2.410  -1.225  -1.933  0.00  0.00    +0.006 A 
ATOM     20  C   UNL     1       2.007  -0.944  -3.224  0.00  0.00    -0.027 A 
ATOM     21  C   UNL     1       2.933  -0.927  -4.250  0.00  0.00    +0.006 A 
ATOM     22  C   UNL     1       4.266  -1.182  -3.982  0.00  0.00    +0.004 A 
ENDBRANCH   1  20
BRANCH   8  23
ATOM     23  N   UNL     1       0.107  -5.005  -1.012  0.00  0.00    +0.057 N 
ATOM     24  O   UNL     1       0.113  -5.851  -0.136  0.00  0.00    -0.126 OA
ATOM     25  O   UNL     1       0.183  -5.338  -2.181  0.00  0.00    -0.126 OA
ENDBRANCH   8  23
TORSDOF 2
