REMARK  Name = ZINC39711432
REMARK  13 active torsions:
REMARK  status: ('A' for Active; 'I' for Inactive)
REMARK    1  A    between atoms: C_1  and  C_2
REMARK    2  A    between atoms: C_2  and  O_3
REMARK    3  A    between atoms: O_3  and  C_4
REMARK    4  A    between atoms: C_11  and  C_16
REMARK    5  A    between atoms: C_16  and  C_18
REMARK    6  A    between atoms: C_16  and  N_28
REMARK    7  A    between atoms: N_23  and  C_24
REMARK    8  A    between atoms: C_24  and  C_25
REMARK    9  A    between atoms: C_24  and  C_26
REMARK   10  A    between atoms: C_24  and  C_27
REMARK   11  A    between atoms: N_31  and  C_34
REMARK   12  A    between atoms: C_36  and  C_41
REMARK   13  A    between atoms: C_39  and  C_40
REMARK                            x       y       z     vdW  Elec       q    Type
REMARK                         _______ _______ _______ _____ _____    ______ ____
ROOT
ATOM      1  C   UNL     1      -4.926  -6.341   1.220  0.00  0.00    -0.009 C 
ENDROOT
BRANCH   1   9
ATOM      2  C   UNL     1      -1.963  -1.367   0.469  0.00  0.00    +0.121 A 
ATOM      3  C   UNL     1      -0.781  -2.060   0.183  0.00  0.00    +0.047 A 
ATOM      4  C   UNL     1      -0.758  -3.395  -0.065  0.00  0.00    +0.027 A 
ATOM      5  C   UNL     1      -1.946  -4.148  -0.044  0.00  0.00    +0.041 A 
ATOM      6  N   UNL     1      -1.908  -5.458  -0.289  0.00  0.00    -0.285 N 
ATOM      7  C   UNL     1      -2.985  -6.225  -0.286  0.00  0.00    +0.223 C 
ATOM      8  O   UNL     1      -2.888  -7.416  -0.517  0.00  0.00    -0.275 OA
ATOM      9  C   UNL     1      -4.338  -5.617   0.007  0.00  0.00    +0.088 C 
ATOM     10  C   UNL     1      -4.387  -4.128   0.287  0.00  0.00    -0.006 C 
ATOM     11  C   UNL     1      -3.207  -3.446   0.254  0.00  0.00    -0.004 A 
ATOM     12  C   UNL     1      -3.164  -2.008   0.518  0.00  0.00    +0.055 A 
ATOM     13  H   UNL     1      -1.050  -5.868  -0.480  0.00  0.00    +0.155 HD
BRANCH   2  14
ATOM     14  O   UNL     1      -1.911  -0.030   0.707  0.00  0.00    -0.492 OA
BRANCH  14  16
ATOM     15  C   UNL     1      -0.766   2.086   0.936  0.00  0.00    +0.048 C 
ATOM     16  C   UNL     1      -0.626   0.591   0.642  0.00  0.00    +0.225 C 
ENDBRANCH  14  16
ENDBRANCH   2  14
ENDBRANCH   1   9
BRANCH   1  17
ATOM     17  N   UNL     1      -5.044  -7.775   0.924  0.00  0.00    +0.387 N 
ATOM     18  C   UNL     1      -5.813  -8.431   1.989  0.00  0.00    -0.059 C 
ATOM     19  C   UNL     1      -5.840  -9.943   1.742  0.00  0.00    +0.086 C 
ATOM     20  N   UNL     1      -6.354 -10.185   0.385  0.00  0.00    -0.333 N 
ATOM     21  C   UNL     1      -5.746  -9.441  -0.729  0.00  0.00    +0.086 C 
ATOM     22  C   UNL     1      -5.724  -7.953  -0.365  0.00  0.00    -0.059 C 
ATOM     23  H   UNL     1      -4.123  -8.185   0.876  0.00  0.00    -0.081 HD
BRANCH  20  24
ATOM     24  C   UNL     1      -7.389 -11.095   0.161  0.00  0.00    +0.033 A 
ATOM     25  C   UNL     1      -8.711 -10.667   0.192  0.00  0.00    +0.026 A 
ATOM     26  C   UNL     1      -9.732 -11.570  -0.031  0.00  0.00    -0.049 A 
ATOM     27  C   UNL     1      -9.441 -12.898  -0.284  0.00  0.00    +0.004 A 
ATOM     28  C   UNL     1      -8.127 -13.327  -0.315  0.00  0.00    +0.005 A 
ATOM     29  C   UNL     1      -7.100 -12.428  -0.100  0.00  0.00    -0.029 A 
ATOM     30  C   UNL     1      -5.668 -12.895  -0.140  0.00  0.00    +0.045 C 
ATOM     31  C   UNL     1     -11.166 -11.107   0.003  0.00  0.00    +0.044 C 
ENDBRANCH  20  24
ENDBRANCH   1  17
BRANCH   1  32
ATOM     32  C   UNL     1      -4.007  -6.143   2.427  0.00  0.00    +0.205 C 
ATOM     33  N   UNL     1      -2.782  -6.941   2.275  0.00  0.00    -0.152 NA
ATOM     34  N   UNL     1      -2.717  -7.752   3.201  0.00  0.00    -0.070 NA
ATOM     35  N   UNL     1      -3.796  -7.661   4.079  0.00  0.00    -0.179 N 
ATOM     36  N   UNL     1      -4.644  -6.669   3.652  0.00  0.00    -0.183 NA
ATOM     37  H   UNL     1      -3.927  -8.211   4.867  0.00  0.00    +0.191 HD
BRANCH  36  38
ATOM     38  C   UNL     1      -4.780  -5.616   4.668  0.00  0.00    +0.035 C 
ATOM     39  C   UNL     1      -5.621  -4.469   4.104  0.00  0.00    +0.029 C 
ATOM     40  C   UNL     1      -5.467  -6.191   5.909  0.00  0.00    +0.029 C 
ATOM     41  C   UNL     1      -3.394  -5.093   5.048  0.00  0.00    +0.029 C 
ENDBRANCH  36  38
ENDBRANCH   1  32
TORSDOF 7
