REMARK  Name = ZINC14697665
REMARK  10 active torsions:
REMARK  status: ('A' for Active; 'I' for Inactive)
REMARK    1  A    between atoms: C_1  and  C_2
REMARK    2  A    between atoms: C_5  and  C_9
REMARK    3  A    between atoms: C_7  and  C_8
REMARK    4  A    between atoms: N_11  and  C_12
REMARK    5  A    between atoms: N_11  and  C_20
REMARK    6  A    between atoms: C_12  and  C_13
REMARK    7  A    between atoms: C_13  and  C_14
REMARK    8  A    between atoms: C_21  and  N_36
REMARK    9  A    between atoms: N_22  and  C_29
REMARK   10  A    between atoms: C_29  and  C_30
REMARK                            x       y       z     vdW  Elec       q    Type
REMARK                         _______ _______ _______ _____ _____    ______ ____
ROOT
ATOM      1  C   UNL     1       0.439  -4.220   0.081  0.00  0.00    +0.251 C 
ATOM      2  O   UNL     1       0.560  -3.017   0.214  0.00  0.00    -0.270 OA
ATOM      3  N   UNL     1       0.089  -4.734  -1.115  0.00  0.00    -0.260 N 
ENDROOT
BRANCH   3   4
ATOM      4  C   UNL     1      -0.112  -6.123  -1.254  0.00  0.00    +0.140 A 
ATOM      5  C   UNL     1      -1.112  -6.761  -0.548  0.00  0.00    +0.128 A 
ATOM      6  N   UNL     1      -1.284  -8.117  -0.705  0.00  0.00    -0.276 N 
ATOM      7  C   UNL     1      -0.487  -8.812  -1.536  0.00  0.00    +0.331 A 
ATOM      8  O   UNL     1      -0.656 -10.010  -1.661  0.00  0.00    -0.246 OA
ATOM      9  N   UNL     1       0.491  -8.207  -2.232  0.00  0.00    -0.273 N 
ATOM     10  H   UNL     1       1.052  -8.731  -2.826  0.00  0.00    +0.173 HD
ATOM     11  C   UNL     1       0.699  -6.881  -2.119  0.00  0.00    +0.277 A 
ATOM     12  O   UNL     1       1.586  -6.341  -2.759  0.00  0.00    -0.266 OA
BRANCH   5  13
ATOM     13  N   UNL     1      -1.925  -6.051   0.303  0.00  0.00    -0.343 N 
ATOM     14  H   UNL     1      -1.856  -5.084   0.345  0.00  0.00    +0.144 HD
ATOM     15  H   UNL     1      -2.568  -6.516   0.861  0.00  0.00    +0.144 HD
ENDBRANCH   5  13
BRANCH   6  16
ATOM     16  C   UNL     1      -2.341  -8.807   0.039  0.00  0.00    +0.163 C 
BRANCH  16  17
ATOM     17  C   UNL     1      -3.610  -8.806  -0.774  0.00  0.00    -0.028 A 
ATOM     18  C   UNL     1      -4.511  -7.765  -0.645  0.00  0.00    +0.005 A 
ATOM     19  C   UNL     1      -5.675  -7.763  -1.391  0.00  0.00    +0.000 A 
ATOM     20  C   UNL     1      -5.938  -8.802  -2.265  0.00  0.00    +0.000 A 
ATOM     21  C   UNL     1      -5.036  -9.841  -2.394  0.00  0.00    +0.000 A 
ATOM     22  C   UNL     1      -3.870  -9.841  -1.652  0.00  0.00    +0.005 A 
ENDBRANCH  16  17
ENDBRANCH   6  16
ENDBRANCH   3   4
BRANCH   1  27
ATOM     23  C   UNL     1       1.358  -7.716   4.558  0.00  0.00    +0.044 C 
ATOM     24  C   UNL     1       1.117  -6.801   3.386  0.00  0.00    -0.047 A 
ATOM     25  C   UNL     1       1.238  -7.287   2.096  0.00  0.00    +0.004 A 
ATOM     26  C   UNL     1       1.019  -6.454   1.018  0.00  0.00    +0.013 A 
ATOM     27  C   UNL     1       0.674  -5.118   1.231  0.00  0.00    +0.038 A 
ATOM     28  C   UNL     1       0.553  -4.635   2.535  0.00  0.00    +0.016 A 
ATOM     29  C   UNL     1       0.770  -5.479   3.604  0.00  0.00    -0.047 A 
ATOM     30  C   UNL     1       0.633  -4.960   5.012  0.00  0.00    +0.044 C 
ENDBRANCH   1  27
BRANCH   3  31
ATOM     31  C   UNL     1      -0.081  -3.850  -2.270  0.00  0.00    +0.118 C 
BRANCH  31  32
ATOM     32  C   UNL     1       1.283  -3.571  -2.905  0.00  0.00    +0.050 C 
BRANCH  32  33
ATOM     33  C   UNL     1       1.115  -2.610  -4.054  0.00  0.00    -0.072 C 
ATOM     34  C   UNL     1       1.303  -1.350  -3.823  0.00  0.00    -0.028 C 
ATOM     35  C   UNL     1       1.163  -0.276  -4.861  0.00  0.00    +0.027 C 
ATOM     36  C   UNL     1       1.196  -0.889  -6.263  0.00  0.00    +0.004 C 
ATOM     37  C   UNL     1       0.210  -2.063  -6.302  0.00  0.00    +0.005 C 
ATOM     38  C   UNL     1       0.748  -3.174  -5.395  0.00  0.00    +0.030 C 
ENDBRANCH  32  33
ENDBRANCH  31  32
ENDBRANCH   3  31
TORSDOF 8
