REMARK  Name = ZINC09725160
REMARK  6 active torsions:
REMARK  status: ('A' for Active; 'I' for Inactive)
REMARK    1  A    between atoms: C_1  and  S_2
REMARK    2  A    between atoms: S_2  and  C_5
REMARK    3  A    between atoms: N_13  and  C_14
REMARK    4  A    between atoms: C_14  and  C_16
REMARK    5  A    between atoms: N_23  and  C_24
REMARK    6  A    between atoms: C_24  and  C_25
REMARK                            x       y       z     vdW  Elec       q    Type
REMARK                         _______ _______ _______ _____ _____    ______ ____
ROOT
ATOM      1  C   UNL     1       2.406  -0.024  -0.021  0.00  0.00    +0.089 A 
ATOM      2  C   UNL     1       1.193  -0.691  -0.013  0.00  0.00    +0.029 A 
ATOM      3  C   UNL     1       0.002  -0.004   0.002  0.00  0.00    +0.029 A 
ATOM      4  C   UNL     1      -0.017   1.400   0.010  0.00  0.00    +0.058 A 
ATOM      5  C   UNL     1       1.227   2.048   0.001  0.00  0.00    +0.041 A 
ATOM      6  C   UNL     1       2.417   1.360  -0.014  0.00  0.00    +0.044 A 
ATOM      7  S   UNL     1       0.789   3.768   0.014  0.00  0.00    -0.052 S 
ATOM      8  C   UNL     1      -0.936   3.591   0.029  0.00  0.00    +0.167 A 
ATOM      9  N   UNL     1      -1.862   4.544   0.043  0.00  0.00    -0.152 NA
ATOM     10  N   UNL     1      -1.113   2.242   0.019  0.00  0.00    -0.317 N 
ENDROOT
BRANCH   1  12
ATOM     11  C   UNL     1       4.303  -1.156  -1.798  0.00  0.00    +0.200 C 
ATOM     12  S   UNL     1       3.920  -0.926  -0.040  0.00  0.00    -0.006 S 
ATOM     13  O   UNL     1       4.869  -0.055   0.559  0.00  0.00    -0.170 OA
ATOM     14  O   UNL     1       3.604  -2.175   0.560  0.00  0.00    -0.170 OA
ENDBRANCH   1  12
BRANCH   9  15
ATOM     15  C   UNL     1      -1.497   5.830   0.046  0.00  0.00    +0.271 C 
ATOM     16  O   UNL     1      -0.316   6.129   0.037  0.00  0.00    -0.268 OA
BRANCH  15  17
ATOM     17  C   UNL     1      -2.529   6.892   0.062  0.00  0.00    +0.053 A 
ATOM     18  C   UNL     1      -3.883   6.553   0.072  0.00  0.00    +0.014 A 
ATOM     19  C   UNL     1      -4.839   7.547   0.086  0.00  0.00    +0.001 A 
ATOM     20  C   UNL     1      -4.460   8.878   0.090  0.00  0.00    +0.001 A 
ATOM     21  C   UNL     1      -3.120   9.221   0.080  0.00  0.00    +0.016 A 
ATOM     22  C   UNL     1      -2.152   8.236   0.071  0.00  0.00    +0.030 A 
ATOM     23 BR   UNL     1      -0.321   8.706   0.066  0.00  0.00    -0.050 Br
ENDBRANCH  15  17
ENDBRANCH   9  15
BRANCH  10  24
ATOM     24  C   UNL     1      -2.466   1.682   0.023  0.00  0.00    +0.151 C 
BRANCH  24  25
ATOM     25  C   UNL     1      -3.398   2.624   0.742  0.00  0.00    -0.013 C 
ATOM     26  C   UNL     1      -4.479   3.059   0.145  0.00  0.00    +0.005 C 
ENDBRANCH  24  25
ENDBRANCH  10  24
TORSDOF 5
