REMARK  Name = ZINC35212495
REMARK  8 active torsions:
REMARK  status: ('A' for Active; 'I' for Inactive)
REMARK    1  A    between atoms: C_1  and  C_2
REMARK    2  A    between atoms: N_8  and  C_9
REMARK    3  A    between atoms: C_9  and  C_10
REMARK    4  A    between atoms: C_10  and  C_11
REMARK    5  A    between atoms: C_11  and  N_12
REMARK    6  A    between atoms: C_13  and  C_15
REMARK    7  A    between atoms: C_19  and  C_31
REMARK    8  A    between atoms: C_22  and  C_24
REMARK                            x       y       z     vdW  Elec       q    Type
REMARK                         _______ _______ _______ _____ _____    ______ ____
ROOT
ATOM      1  C   UNL     1       6.793  -0.105   5.336  0.00  0.00    +0.173 C 
ATOM      2  C   UNL     1       6.054   0.544   6.543  0.00  0.00    +0.103 C 
ATOM      3  S   UNL     1       6.812   2.228   6.452  0.00  0.00    -0.131 S 
ATOM      4  C   UNL     1       8.443   1.710   5.766  0.00  0.00    +0.166 C 
ATOM      5  N   UNL     1       8.180   0.345   5.276  0.00  0.00    -0.269 N 
ATOM      6  C   UNL     1       9.166  -0.441   4.799  0.00  0.00    +0.248 C 
ATOM      7  O   UNL     1       8.898  -1.519   4.306  0.00  0.00    -0.270 OA
ENDROOT
BRANCH   6   8
ATOM      8  C   UNL     1      10.572   0.008   4.876  0.00  0.00    +0.040 A 
ATOM      9  C   UNL     1      10.875   1.286   5.348  0.00  0.00    +0.013 A 
ATOM     10  C   UNL     1      12.189   1.700   5.418  0.00  0.00    +0.004 A 
ATOM     11  C   UNL     1      13.207   0.851   5.023  0.00  0.00    +0.038 A 
ATOM     12  C   UNL     1      12.915  -0.419   4.554  0.00  0.00    +0.124 A 
ATOM     13  C   UNL     1      11.603  -0.847   4.484  0.00  0.00    +0.051 A 
ATOM     14  F   UNL     1      13.915  -1.243   4.169  0.00  0.00    -0.205 F 
ENDBRANCH   6   8
BRANCH   4  15
ATOM     15  C   UNL     1       8.857   2.616   4.636  0.00  0.00    -0.014 A 
ATOM     16  C   UNL     1       8.964   2.114   3.352  0.00  0.00    +0.006 A 
ATOM     17  C   UNL     1       9.344   2.944   2.314  0.00  0.00    +0.003 A 
ATOM     18  C   UNL     1       9.618   4.276   2.558  0.00  0.00    +0.038 A 
ATOM     19  C   UNL     1       9.512   4.780   3.844  0.00  0.00    +0.124 A 
ATOM     20  C   UNL     1       9.125   3.949   4.882  0.00  0.00    +0.044 A 
ATOM     21  F   UNL     1       9.780   6.082   4.084  0.00  0.00    -0.205 F 
ENDBRANCH   4  15
BRANCH   1  23
ATOM     22  N   UNL     1       4.832  -0.142   3.828  0.00  0.00    -0.314 N 
ATOM     23  C   UNL     1       6.090   0.281   4.059  0.00  0.00    +0.234 C 
ATOM     24  O   UNL     1       6.658   0.973   3.240  0.00  0.00    -0.274 OA
ATOM     25  H   UNL     1       4.378  -0.695   4.483  0.00  0.00    +0.149 HD
BRANCH  22  26
ATOM     26  C   UNL     1       4.150   0.234   2.587  0.00  0.00    +0.102 C 
BRANCH  26  27
ATOM     27  C   UNL     1       2.745  -0.372   2.574  0.00  0.00    +0.000 C 
BRANCH  27  28
ATOM     28  C   UNL     1       2.032   0.020   1.278  0.00  0.00    -0.077 C 
BRANCH  28  35
ATOM     29  C   UNL     1      -0.072   1.442   0.080  0.00  0.00    -0.013 C 
ATOM     30  C   UNL     1      -0.042  -0.087   0.081  0.00  0.00    -0.072 C 
ATOM     31  C   UNL     1      -1.474  -0.625   0.106  0.00  0.00    -0.016 C 
ATOM     32  C   UNL     1      -1.439  -2.156   0.107  0.00  0.00    -0.003 C 
ATOM     33  C   UNL     1      -0.617  -2.638   1.306  0.00  0.00    -0.019 C 
ATOM     34  C   UNL     1       0.784  -2.025   1.236  0.00  0.00    -0.078 C 
ATOM     35  N   UNL     1       0.683  -0.561   1.266  0.00  0.00    +0.381 N 
ATOM     36  H   UNL     1       0.188  -0.276   2.098  0.00  0.00    -0.081 HD
ENDBRANCH  28  35
ENDBRANCH  27  28
ENDBRANCH  26  27
ENDBRANCH  22  26
ENDBRANCH   1  23
TORSDOF 7
