REMARK  Name = ZINC25783910
REMARK  4 active torsions:
REMARK  status: ('A' for Active; 'I' for Inactive)
REMARK    1  A    between atoms: C_1  and  S_2
REMARK    2  A    between atoms: S_2  and  C_3
REMARK    3  A    between atoms: C_6  and  C_9
REMARK    4  A    between atoms: C_26  and  C_28
REMARK                            x       y       z     vdW  Elec       q    Type
REMARK                         _______ _______ _______ _____ _____    ______ ____
ROOT
ATOM      1  C   UNL     1      -5.778  -1.603   0.091  0.00  0.00    +0.234 C 
ATOM      2  C   UNL     1      -6.222  -1.924   1.488  0.00  0.00    +0.027 C 
ATOM      3  C   UNL     1      -6.133  -3.182   1.966  0.00  0.00    +0.083 C 
ATOM      4  C   UNL     1      -5.593  -4.224   1.055  0.00  0.00    +0.042 A 
ATOM      5  C   UNL     1      -5.160  -5.452   1.534  0.00  0.00    +0.013 A 
ATOM      6  C   UNL     1      -4.663  -6.392   0.650  0.00  0.00    +0.001 A 
ATOM      7  C   UNL     1      -4.598  -6.109  -0.703  0.00  0.00    +0.004 A 
ATOM      8  C   UNL     1      -5.029  -4.888  -1.188  0.00  0.00    +0.046 A 
ATOM      9  C   UNL     1      -5.530  -3.938  -0.315  0.00  0.00    +0.131 A 
ATOM     10  O   UNL     1      -5.963  -2.736  -0.760  0.00  0.00    -0.479 OA
ATOM     11  N   UNL     1      -6.521  -3.491   3.228  0.00  0.00    -0.213 NA
ATOM     12  C   UNL     1      -7.015  -2.626   4.083  0.00  0.00    +0.237 C 
ATOM     13  N   UNL     1      -7.447  -2.761   5.356  0.00  0.00    -0.205 NA
ATOM     14  C   UNL     1      -7.863  -1.615   5.819  0.00  0.00    +0.203 C 
ATOM     15  N   UNL     1      -7.720  -0.659   4.860  0.00  0.00    -0.251 N 
ATOM     16  N   UNL     1      -7.176  -1.297   3.743  0.00  0.00    -0.208 N 
ATOM     17  C   UNL     1      -6.781  -0.854   2.401  0.00  0.00    +0.159 C 
ATOM     18  H   UNL     1      -7.952   0.280   4.937  0.00  0.00    +0.171 HD
ENDROOT
BRANCH  17  19
ATOM     19  C   UNL     1      -5.741   0.227   2.549  0.00  0.00    -0.021 A 
ATOM     20  C   UNL     1      -4.609  -0.003   3.308  0.00  0.00    +0.007 A 
ATOM     21  C   UNL     1      -3.656   0.989   3.445  0.00  0.00    +0.020 A 
ATOM     22  C   UNL     1      -3.834   2.210   2.821  0.00  0.00    +0.041 A 
ATOM     23  C   UNL     1      -4.968   2.439   2.061  0.00  0.00    +0.020 A 
ATOM     24  C   UNL     1      -5.918   1.445   1.921  0.00  0.00    +0.007 A 
ATOM     25 CL   UNL     1      -2.637   3.456   2.992  0.00  0.00    -0.084 Cl
ENDBRANCH  17  19
BRANCH   1  29
ATOM     26  C   UNL     1      -1.642  -0.527   0.135  0.00  0.00    +0.008 A 
ATOM     27  C   UNL     1      -2.019  -1.851   0.328  0.00  0.00    +0.015 A 
ATOM     28  C   UNL     1      -3.357  -2.195   0.313  0.00  0.00    +0.008 A 
ATOM     29  C   UNL     1      -4.320  -1.224   0.107  0.00  0.00    -0.003 A 
ATOM     30  C   UNL     1      -3.948   0.094  -0.086  0.00  0.00    +0.008 A 
ATOM     31  C   UNL     1      -2.613   0.447  -0.066  0.00  0.00    +0.015 A 
BRANCH  26  33
ATOM     32  C   UNL     1       0.922  -1.655   0.441  0.00  0.00    +0.090 C 
ATOM     33  S   UNL     1       0.063  -0.083   0.153  0.00  0.00    -0.129 S 
ENDBRANCH  26  33
ENDBRANCH   1  29
TORSDOF 3
