REMARK  Name = ZINC05594762
REMARK  3 active torsions:
REMARK  status: ('A' for Active; 'I' for Inactive)
REMARK    1  A    between atoms: C_4  and  C_8
REMARK    2  A    between atoms: N_9  and  N_10
REMARK    3  A    between atoms: N_10  and  C_11
REMARK                            x       y       z     vdW  Elec       q    Type
REMARK                         _______ _______ _______ _____ _____    ______ ____
ROOT
ATOM      1  N   UNL     1       0.237  -0.395  -0.720  0.00  0.00    -0.235 N 
ATOM      2  H   UNL     1       0.971  -0.673  -0.149  0.00  0.00    +0.174 HD
ENDROOT
BRANCH   1   3
ATOM      3  C   UNL     1       0.398   0.676  -1.581  0.00  0.00    +0.092 A 
ATOM      4  C   UNL     1       1.663   1.282  -1.735  0.00  0.00    +0.159 A 
ATOM      5  N   UNL     1       1.817   2.291  -2.546  0.00  0.00    -0.177 NA
ATOM      6  N   UNL     1       0.740   2.796  -3.281  0.00  0.00    -0.242 N 
ATOM      7  H   UNL     1       0.881   3.571  -3.898  0.00  0.00    +0.192 HD
ATOM      8  C   UNL     1      -0.485   2.249  -3.166  0.00  0.00    +0.285 A 
ATOM      9  O   UNL     1      -1.421   2.696  -3.811  0.00  0.00    -0.265 OA
ATOM     10  C   UNL     1      -0.679   1.159  -2.304  0.00  0.00    +0.130 A 
ATOM     11 CL   UNL     1      -2.246   0.431  -2.143  0.00  0.00    -0.076 Cl
ENDBRANCH   1   3
BRANCH   1  13
ATOM     12  C   UNL     1      -1.171  -2.016   0.206  0.00  0.00    +0.141 C 
ATOM     13  N   UNL     1      -0.986  -1.078  -0.672  0.00  0.00    -0.190 NA
BRANCH  12  17
ATOM     14  C   UNL     1      -4.804  -4.213   0.230  0.00  0.00    +0.003 A 
ATOM     15  C   UNL     1      -3.594  -4.884   0.214  0.00  0.00    +0.021 A 
ATOM     16  C   UNL     1      -2.409  -4.177   0.206  0.00  0.00    +0.051 A 
ATOM     17  C   UNL     1      -2.433  -2.779   0.214  0.00  0.00    +0.031 A 
ATOM     18  C   UNL     1      -3.659  -2.108   0.236  0.00  0.00    +0.051 A 
ATOM     19  C   UNL     1      -4.836  -2.830   0.238  0.00  0.00    +0.021 A 
ATOM     20 CL   UNL     1      -3.702  -0.373   0.253  0.00  0.00    -0.083 Cl
ATOM     21 CL   UNL     1      -0.892  -5.021   0.187  0.00  0.00    -0.083 Cl
ENDBRANCH  12  17
ENDBRANCH   1  13
TORSDOF 3
