REMARK  Name = ZINC36161385
REMARK  13 active torsions:
REMARK  status: ('A' for Active; 'I' for Inactive)
REMARK    1  A    between atoms: C_1  and  C_2
REMARK    2  A    between atoms: C_15  and  C_17
REMARK    3  A    between atoms: C_17  and  N_18
REMARK    4  A    between atoms: N_18  and  C_19
REMARK    5  A    between atoms: N_18  and  C_29
REMARK    6  A    between atoms: C_19  and  C_20
REMARK    7  A    between atoms: C_20  and  C_22
REMARK    8  A    between atoms: C_20  and  O_28
REMARK    9  A    between atoms: C_22  and  O_23
REMARK   10  A    between atoms: O_23  and  C_24
REMARK   11  A    between atoms: C_24  and  C_25
REMARK   12  A    between atoms: C_24  and  C_26
REMARK   13  A    between atoms: C_24  and  C_27
REMARK                            x       y       z     vdW  Elec       q    Type
REMARK                         _______ _______ _______ _____ _____    ______ ____
ROOT
ATOM      1  N   UNL     1       2.627  -8.317   2.180  0.00  0.00    +0.388 N 
ATOM      2  H   UNL     1       3.242  -7.630   2.590  0.00  0.00    -0.081 HD
ENDROOT
BRANCH   1   3
ATOM      3  C   UNL     1       1.369  -8.362   2.938  0.00  0.00    -0.068 C 
ATOM      4  C   UNL     1       0.446  -9.420   2.331  0.00  0.00    -0.015 C 
ATOM      5  C   UNL     1      -0.864  -9.467   3.120  0.00  0.00    -0.002 C 
ATOM      6  C   UNL     1      -1.546  -8.099   3.057  0.00  0.00    -0.000 C 
ATOM      7  C   UNL     1      -0.623  -7.040   3.664  0.00  0.00    -0.002 C 
ATOM      8  C   UNL     1       0.687  -6.994   2.875  0.00  0.00    -0.015 C 
ENDBRANCH   1   3
BRANCH   1   9
ATOM      9  C   UNL     1       2.346  -7.953   0.785  0.00  0.00    -0.003 C 
BRANCH   9  23
ATOM     10  C   UNL     1       1.889   1.992   0.934  0.00  0.00    +0.008 C 
ATOM     11  C   UNL     1       1.609   0.492   0.829  0.00  0.00    -0.009 C 
ATOM     12  C   UNL     1       2.068  -0.023  -0.539  0.00  0.00    +0.008 C 
ATOM     13  C   UNL     1       1.571  -1.453  -0.749  0.00  0.00    +0.037 C 
ATOM     14  C   UNL     1       1.993  -2.304   0.445  0.00  0.00    -0.023 A 
ATOM     15  C   UNL     1       2.348  -1.721   1.614  0.00  0.00    -0.004 A 
ATOM     16  S   UNL     1       2.757  -3.065   2.699  0.00  0.00    -0.073 S 
ATOM     17  C   UNL     1       2.453  -4.401   1.587  0.00  0.00    +0.116 A 
ATOM     18  C   UNL     1       2.041  -3.755   0.401  0.00  0.00    +0.075 A 
ATOM     19  C   UNL     1       1.714  -4.592  -0.719  0.00  0.00    +0.260 A 
ATOM     20  O   UNL     1       1.347  -4.133  -1.787  0.00  0.00    -0.267 OA
ATOM     21  N   UNL     1       1.838  -5.924  -0.511  0.00  0.00    -0.312 N 
ATOM     22  H   UNL     1       1.628  -6.527  -1.241  0.00  0.00    +0.170 HD
ATOM     23  C   UNL     1       2.244  -6.454   0.668  0.00  0.00    +0.094 A 
ATOM     24  N   UNL     1       2.551  -5.721   1.715  0.00  0.00    -0.229 NA
ATOM     25  C   UNL     1       2.383  -0.255   1.924  0.00  0.00    +0.046 C 
ENDBRANCH   9  23
ENDBRANCH   1   9
BRANCH   1  26
ATOM     26  C   UNL     1       3.271  -9.637   2.221  0.00  0.00    -0.044 C 
BRANCH  26  27
ATOM     27  C   UNL     1       3.697  -9.952   3.657  0.00  0.00    +0.124 C 
BRANCH  27  28
ATOM     28  O   UNL     1       4.622  -8.960   4.108  0.00  0.00    -0.391 OA
ATOM     29  H   UNL     1       5.428  -8.904   3.576  0.00  0.00    +0.210 HD
ENDBRANCH  27  28
BRANCH  27  30
ATOM     30  C   UNL     1       4.363 -11.328   3.701  0.00  0.00    +0.189 C 
BRANCH  30  31
ATOM     31  O   UNL     1       4.656 -11.673   5.056  0.00  0.00    -0.372 OA
BRANCH  31  32
ATOM     32  C   UNL     1       5.284 -12.947   5.210  0.00  0.00    +0.061 C 
ATOM     33  C   UNL     1       6.609 -12.959   4.445  0.00  0.00    +0.041 C 
ATOM     34  C   UNL     1       5.549 -13.210   6.693  0.00  0.00    +0.041 C 
ATOM     35  C   UNL     1       4.365 -14.038   4.655  0.00  0.00    +0.041 C 
ENDBRANCH  31  32
ENDBRANCH  30  31
ENDBRANCH  27  30
ENDBRANCH  26  27
ENDBRANCH   1  26
TORSDOF 9
