REMARK  Name = ZINC04631557
REMARK  5 active torsions:
REMARK  status: ('A' for Active; 'I' for Inactive)
REMARK    1  A    between atoms: C_1  and  C_2
REMARK    2  A    between atoms: C_2  and  C_3
REMARK    3  A    between atoms: C_10  and  N_23
REMARK    4  A    between atoms: C_11  and  C_21
REMARK    5  A    between atoms: C_12  and  C_14
REMARK                            x       y       z     vdW  Elec       q    Type
REMARK                         _______ _______ _______ _____ _____    ______ ____
ROOT
ATOM      1  C   UNL     1       0.731  -0.503   1.223  0.00  0.00    +0.070 A 
ATOM      2  C   UNL     1       2.094  -0.752   1.314  0.00  0.00    +0.050 A 
ATOM      3  C   UNL     1       2.361  -1.192   2.580  0.00  0.00    +0.222 A 
ATOM      4  N   UNL     1       1.200  -1.214   3.255  0.00  0.00    -0.246 N 
ATOM      5  H   UNL     1       1.082  -1.483   4.180  0.00  0.00    +0.192 HD
ATOM      6  N   UNL     1       0.189  -0.773   2.387  0.00  0.00    -0.176 NA
ATOM      7  O   UNL     1       3.609  -1.525   2.992  0.00  0.00    -0.423 OA
ATOM      8  C   UNL     1       4.558  -1.679   2.046  0.00  0.00    +0.200 C 
ATOM      9  C   UNL     1       4.416  -1.274   0.765  0.00  0.00    +0.098 C 
ATOM     10  C   UNL     1       3.164  -0.595   0.265  0.00  0.00    +0.104 C 
ENDROOT
BRANCH  10  11
ATOM     11  C   UNL     1       3.437   0.868   0.031  0.00  0.00    +0.001 A 
ATOM     12  C   UNL     1       3.881   1.664   1.070  0.00  0.00    +0.007 A 
ATOM     13  C   UNL     1       4.130   3.006   0.856  0.00  0.00    +0.000 A 
ATOM     14  C   UNL     1       3.937   3.555  -0.399  0.00  0.00    +0.003 A 
ATOM     15  C   UNL     1       3.493   2.761  -1.439  0.00  0.00    +0.038 A 
ATOM     16  C   UNL     1       3.248   1.415  -1.227  0.00  0.00    +0.127 A 
ATOM     17  F   UNL     1       2.819   0.637  -2.245  0.00  0.00    -0.205 F 
ENDBRANCH  10  11
BRANCH   8  18
ATOM     18  N   UNL     1       5.737  -2.282   2.406  0.00  0.00    -0.328 N 
ATOM     19  H   UNL     1       5.869  -2.584   3.318  0.00  0.00    +0.145 HD
ATOM     20  H   UNL     1       6.439  -2.406   1.748  0.00  0.00    +0.145 HD
ENDBRANCH   8  18
BRANCH   1  22
ATOM     21  C   UNL     1      -0.019   1.526   0.010  0.00  0.00    +0.010 C 
ATOM     22  C   UNL     1       0.002  -0.004   0.002  0.00  0.00    +0.054 C 
ENDBRANCH   1  22
BRANCH   9  23
ATOM     23  C   UNL     1       5.493  -1.495  -0.152  0.00  0.00    +0.101 C 
ATOM     24  N   UNL     1       6.348  -1.671  -0.880  0.00  0.00    -0.191 NA
ENDBRANCH   9  23
TORSDOF 4
