REMARK  Name = ZINC37259687
REMARK  6 active torsions:
REMARK  status: ('A' for Active; 'I' for Inactive)
REMARK    1  A    between atoms: C_3  and  N_12
REMARK    2  A    between atoms: C_4  and  N_11
REMARK    3  A    between atoms: C_6  and  S_7
REMARK    4  A    between atoms: S_7  and  N_10
REMARK    5  A    between atoms: N_12  and  C_13
REMARK    6  A    between atoms: C_13  and  C_14
REMARK                            x       y       z     vdW  Elec       q    Type
REMARK                         _______ _______ _______ _____ _____    ______ ____
ROOT
ATOM      1  C   UNL     1      -0.017   1.378   0.010  0.00  0.00    +0.030 A 
ATOM      2  C   UNL     1       1.169   2.090   0.002  0.00  0.00    +0.026 A 
ATOM      3  C   UNL     1       2.381   1.417  -0.013  0.00  0.00    +0.048 A 
ATOM      4  C   UNL     1       2.400   0.022  -0.021  0.00  0.00    +0.048 A 
ATOM      5  C   UNL     1       1.207  -0.683  -0.013  0.00  0.00    +0.053 A 
ATOM      6  C   UNL     1       0.002  -0.004   0.002  0.00  0.00    +0.107 A 
ENDROOT
BRANCH   6   7
ATOM      7  S   UNL     1      -1.513  -0.903   0.012  0.00  0.00    +0.056 S 
ATOM      8  O   UNL     1      -1.222  -2.184   0.553  0.00  0.00    -0.153 OA
ATOM      9  O   UNL     1      -2.492  -0.042   0.578  0.00  0.00    -0.153 OA
BRANCH   7  10
ATOM     10  N   UNL     1      -1.950  -1.145  -1.567  0.00  0.00    -0.204 NA
ATOM     11  H   UNL     1      -1.390  -0.804  -2.282  0.00  0.00    +0.144 HD
ATOM     12  H   UNL     1      -2.766  -1.626  -1.776  0.00  0.00    +0.144 HD
ENDBRANCH   7  10
ENDBRANCH   6   7
BRANCH   4  13
ATOM     13  N   UNL     1       3.621  -0.663  -0.037  0.00  0.00    -0.356 N 
ATOM     14  H   UNL     1       4.455  -0.169  -0.042  0.00  0.00    +0.142 HD
ATOM     15  H   UNL     1       3.632  -1.633  -0.042  0.00  0.00    +0.142 HD
ENDBRANCH   4  13
BRANCH   3  16
ATOM     16  N   UNL     1       3.583   2.136  -0.021  0.00  0.00    -0.342 N 
ATOM     17  H   UNL     1       4.430   1.663  -0.032  0.00  0.00    +0.146 HD
BRANCH  16  18
ATOM     18  C   UNL     1       3.561   3.600  -0.014  0.00  0.00    +0.105 C 
BRANCH  18  19
ATOM     19  C   UNL     1       4.995   4.132  -0.025  0.00  0.00    +0.006 C 
ATOM     20  C   UNL     1       5.698   3.732   1.274  0.00  0.00    +0.005 C 
ATOM     21  C   UNL     1       7.132   4.263   1.262  0.00  0.00    +0.000 C 
ATOM     22  C   UNL     1       7.110   5.789   1.145  0.00  0.00    +0.000 C 
ATOM     23  C   UNL     1       6.407   6.190  -0.154  0.00  0.00    +0.000 C 
ATOM     24  C   UNL     1       4.972   5.658  -0.143  0.00  0.00    +0.005 C 
ENDBRANCH  18  19
ENDBRANCH  16  18
ENDBRANCH   3  16
TORSDOF 6
