REMARK  Name = ZINC39227689
REMARK  5 active torsions:
REMARK  status: ('A' for Active; 'I' for Inactive)
REMARK    1  A    between atoms: C_1  and  C_2
REMARK    2  A    between atoms: C_2  and  C_3
REMARK    3  A    between atoms: C_2  and  N_4
REMARK    4  A    between atoms: C_15  and  C_20
REMARK    5  A    between atoms: C_24  and  C_26
REMARK                            x       y       z     vdW  Elec       q    Type
REMARK                         _______ _______ _______ _____ _____    ______ ____
ROOT
ATOM      1  N   UNL     1      -1.656  -2.836   0.085  0.00  0.00    +0.381 N 
ATOM      2  C   UNL     1      -2.172  -2.032  -1.029  0.00  0.00    -0.075 C 
ATOM      3  C   UNL     1      -3.700  -2.106  -1.051  0.00  0.00    +0.030 C 
ATOM      4  C   UNL     1      -4.132  -3.564  -1.226  0.00  0.00    +0.114 C 
ATOM      5  C   UNL     1      -3.526  -4.407  -0.102  0.00  0.00    +0.030 C 
ATOM      6  C   UNL     1      -2.005  -4.247  -0.114  0.00  0.00    -0.075 C 
ATOM      7  C   UNL     1      -5.663  -3.651  -1.160  0.00  0.00    +0.127 C 
ATOM      8  C   UNL     1      -6.208  -2.820  -2.308  0.00  0.00    +0.170 C 
ATOM      9  O   UNL     1      -7.190  -2.119  -2.178  0.00  0.00    -0.292 OA
ATOM     10  C   UNL     1      -5.483  -2.909  -3.588  0.00  0.00    +0.060 A 
ATOM     11  C   UNL     1      -6.037  -2.386  -4.755  0.00  0.00    +0.023 A 
ATOM     12  C   UNL     1      -5.330  -2.476  -5.948  0.00  0.00    -0.017 A 
ATOM     13  C   UNL     1      -4.074  -3.087  -5.970  0.00  0.00    +0.012 A 
ATOM     14  C   UNL     1      -3.528  -3.607  -4.817  0.00  0.00    +0.047 A 
ATOM     15  C   UNL     1      -4.222  -3.527  -3.616  0.00  0.00    +0.132 A 
ATOM     16  O   UNL     1      -3.682  -4.050  -2.490  0.00  0.00    -0.485 OA
ATOM     17  H   UNL     1      -2.062  -2.509   0.949  0.00  0.00    -0.081 HD
ENDROOT
BRANCH  12  18
ATOM     18  C   UNL     1      -5.909  -1.923  -7.198  0.00  0.00    -0.017 A 
ATOM     19  C   UNL     1      -7.160  -1.308  -7.176  0.00  0.00    +0.008 A 
ATOM     20  C   UNL     1      -7.701  -0.793  -8.338  0.00  0.00    +0.001 A 
ATOM     21  C   UNL     1      -7.008  -0.884  -9.528  0.00  0.00    +0.013 A 
ATOM     22  C   UNL     1      -5.754  -1.497  -9.564  0.00  0.00    +0.037 A 
ATOM     23  C   UNL     1      -5.202  -2.014  -8.393  0.00  0.00    +0.021 A 
BRANCH  22  24
ATOM     24  C   UNL     1      -5.012  -1.595 -10.839  0.00  0.00    +0.247 C 
ATOM     25  O   UNL     1      -3.855  -1.227 -10.898  0.00  0.00    -0.270 OA
ATOM     26  N   UNL     1      -5.619  -2.091 -11.935  0.00  0.00    -0.294 N 
ATOM     27  C   UNL     1      -7.042  -2.458 -11.907  0.00  0.00    +0.108 C 
ATOM     28  C   UNL     1      -7.191  -3.906 -12.382  0.00  0.00    +0.019 C 
ATOM     29  C   UNL     1      -6.525  -4.064 -13.751  0.00  0.00    +0.007 C 
ATOM     30  C   UNL     1      -5.037  -3.735 -13.634  0.00  0.00    +0.010 C 
ATOM     31  C   UNL     1      -4.873  -2.273 -13.191  0.00  0.00    +0.079 C 
ATOM     32  C   UNL     1      -5.468  -1.344 -14.252  0.00  0.00    +0.023 C 
ATOM     33  C   UNL     1      -4.755  -1.561 -15.587  0.00  0.00    +0.002 C 
ATOM     34  C   UNL     1      -4.944  -3.013 -16.032  0.00  0.00    +0.000 C 
ATOM     35  C   UNL     1      -4.346  -3.939 -14.979  0.00  0.00    +0.005 C 
ENDBRANCH  22  24
ENDBRANCH  12  18
BRANCH   1  37
ATOM     36  C   UNL     1       0.171  -1.227   0.359  0.00  0.00    -0.014 C 
ATOM     37  C   UNL     1      -0.195  -2.698   0.151  0.00  0.00    -0.075 C 
ATOM     38  C   UNL     1       0.344  -3.527   1.319  0.00  0.00    -0.014 C 
ENDBRANCH   1  37
TORSDOF 3
