REMARK  Name = ZINC26400250
REMARK  8 active torsions:
REMARK  status: ('A' for Active; 'I' for Inactive)
REMARK    1  A    between atoms: C_1  and  C_2
REMARK    2  A    between atoms: C_7  and  N_8
REMARK    3  A    between atoms: N_11  and  C_14
REMARK    4  A    between atoms: C_14  and  C_15
REMARK    5  A    between atoms: C_15  and  C_16
REMARK    6  A    between atoms: C_27  and  C_36
REMARK    7  A    between atoms: C_28  and  C_29
REMARK    8  A    between atoms: C_32  and  O_35
REMARK                            x       y       z     vdW  Elec       q    Type
REMARK                         _______ _______ _______ _____ _____    ______ ____
ROOT
ATOM      1  C   UNL     1       0.571  -0.265   4.112  0.00  0.00    +0.194 C 
ATOM      2  C   UNL     1      -0.189  -0.065   5.433  0.00  0.00    +0.167 C 
ATOM      3  N   UNL     1       0.666  -0.553   6.524  0.00  0.00    -0.333 N 
ATOM      4  C   UNL     1       2.028  -0.588   6.328  0.00  0.00    +0.092 A 
ATOM      5  C   UNL     1       2.659  -1.079   7.479  0.00  0.00    +0.007 A 
ATOM      6  C   UNL     1       4.055  -1.193   7.482  0.00  0.00    +0.010 A 
ATOM      7  C   UNL     1       4.712  -0.810   6.334  0.00  0.00    +0.004 A 
ATOM      8  C   UNL     1       4.067  -0.325   5.198  0.00  0.00    +0.048 A 
ATOM      9  C   UNL     1       2.699  -0.200   5.165  0.00  0.00    +0.145 A 
ATOM     10  O   UNL     1       1.909   0.250   4.163  0.00  0.00    -0.485 OA
ATOM     11  C   UNL     1       1.583  -1.347   8.408  0.00  0.00    -0.017 A 
ATOM     12  C   UNL     1       0.408  -1.013   7.782  0.00  0.00    +0.053 A 
ATOM     13  C   UNL     1       1.725  -1.892   9.806  0.00  0.00    +0.046 C 
ENDROOT
BRANCH  12  14
ATOM     14  C   UNL     1      -0.938  -1.135   8.381  0.00  0.00    -0.001 A 
ATOM     15  C   UNL     1      -1.857  -0.092   8.255  0.00  0.00    +0.013 A 
ATOM     16  C   UNL     1      -3.114  -0.212   8.809  0.00  0.00    +0.046 A 
ATOM     17  C   UNL     1      -3.461  -1.363   9.504  0.00  0.00    +0.117 A 
ATOM     18  C   UNL     1      -2.547  -2.401   9.637  0.00  0.00    +0.046 A 
ATOM     19  C   UNL     1      -1.291  -2.291   9.079  0.00  0.00    +0.013 A 
BRANCH  17  20
ATOM     20  O   UNL     1      -4.698  -1.476  10.055  0.00  0.00    -0.507 OA
ATOM     21  H   UNL     1      -4.974  -2.387  10.605  0.00  0.00    +0.292 HD
ENDBRANCH  17  20
ENDBRANCH  12  14
BRANCH   1  22
ATOM     22  C   UNL     1      -0.190   0.447   2.992  0.00  0.00    +0.061 C 
BRANCH  22  23
ATOM     23  C   UNL     1       0.463   0.123   1.647  0.00  0.00    +0.088 C 
BRANCH  23  27
ATOM     24  N   UNL     1      -0.633   2.771  -1.458  0.00  0.00    -0.314 N 
ATOM     25  C   UNL     1      -0.367   1.369  -1.810  0.00  0.00    +0.122 C 
ATOM     26  C   UNL     1       0.462   0.716  -0.702  0.00  0.00    +0.103 C 
ATOM     27  N   UNL     1      -0.268   0.807   0.571  0.00  0.00    -0.299 NA
ATOM     28  C   UNL     1      -0.534   2.209   0.923  0.00  0.00    +0.103 C 
ATOM     29  C   UNL     1      -1.363   2.862  -0.186  0.00  0.00    +0.122 C 
BRANCH  24  36
ATOM     30  C   UNL     1       0.638   4.971  -2.738  0.00  0.00    +0.047 C 
ATOM     31  C   UNL     1      -0.739   4.498  -3.128  0.00  0.00    -0.012 A 
ATOM     32  C   UNL     1      -1.437   5.132  -4.140  0.00  0.00    +0.008 A 
ATOM     33  C   UNL     1      -2.702   4.663  -4.466  0.00  0.00    +0.018 A 
ATOM     34  C   UNL     1      -3.223   3.585  -3.777  0.00  0.00    +0.084 A 
ATOM     35  N   UNL     1      -2.531   2.997  -2.820  0.00  0.00    -0.349 N 
ATOM     36  C   UNL     1      -1.324   3.418  -2.476  0.00  0.00    +0.102 A 
ATOM     37  H   UNL     1      -2.956   2.134  -2.286  0.00  0.00    +0.167 HD
ENDBRANCH  24  36
ENDBRANCH  23  27
ENDBRANCH  22  23
ENDBRANCH   1  22
TORSDOF 6
