REMARK  Name = ZINC38650645
REMARK  15 active torsions:
REMARK  status: ('A' for Active; 'I' for Inactive)
REMARK    1  A    between atoms: C_1  and  C_2
REMARK    2  A    between atoms: C_2  and  C_3
REMARK    3  A    between atoms: C_3  and  O_4
REMARK    4  A    between atoms: O_4  and  C_5
REMARK    5  A    between atoms: C_8  and  C_11
REMARK    6  A    between atoms: C_16  and  O_25
REMARK    7  A    between atoms: C_20  and  N_24
REMARK    8  A    between atoms: C_21  and  C_22
REMARK    9  A    between atoms: O_25  and  C_26
REMARK   10  A    between atoms: C_26  and  C_28
REMARK   11  A    between atoms: C_29  and  C_30
REMARK   12  A    between atoms: C_33  and  C_36
REMARK   13  A    between atoms: C_36  and  C_37
REMARK   14  A    between atoms: C_36  and  C_38
REMARK   15  A    between atoms: C_36  and  C_39
REMARK                            x       y       z     vdW  Elec       q    Type
REMARK                         _______ _______ _______ _____ _____    ______ ____
ROOT
ATOM      1  C   UNL     1       3.198  -4.375  -5.649  0.00  0.00    +0.098 C 
ATOM      2  C   UNL     1       2.207  -5.247  -6.374  0.00  0.00    +0.008 A 
ATOM      3  C   UNL     1       1.207  -4.658  -7.128  0.00  0.00    +0.012 A 
ATOM      4  C   UNL     1       0.289  -5.441  -7.799  0.00  0.00    +0.047 A 
ATOM      5  C   UNL     1       0.368  -6.824  -7.720  0.00  0.00    +0.135 A 
ATOM      6  C   UNL     1       1.368  -7.417  -6.966  0.00  0.00    +0.093 A 
ATOM      7  C   UNL     1       2.290  -6.628  -6.291  0.00  0.00    +0.138 A 
ATOM      8  O   UNL     1       3.263  -7.223  -5.558  0.00  0.00    -0.441 OA
ATOM      9  C   UNL     1       4.367  -6.534  -5.225  0.00  0.00    +0.199 C 
ATOM     10  C   UNL     1       4.399  -5.184  -5.247  0.00  0.00    +0.098 C 
ENDROOT
BRANCH   1  14
ATOM     11  C   UNL     1       1.357  -2.741  -2.156  0.00  0.00    +0.121 A 
ATOM     12  C   UNL     1       1.842  -1.898  -3.145  0.00  0.00    +0.046 A 
ATOM     13  C   UNL     1       2.437  -2.429  -4.273  0.00  0.00    +0.008 A 
ATOM     14  C   UNL     1       2.549  -3.799  -4.417  0.00  0.00    -0.034 A 
ATOM     15  C   UNL     1       2.067  -4.642  -3.433  0.00  0.00    +0.008 A 
ATOM     16  C   UNL     1       1.476  -4.116  -2.300  0.00  0.00    +0.046 A 
BRANCH  11  17
ATOM     17  O   UNL     1       0.772  -2.222  -1.045  0.00  0.00    -0.492 OA
BRANCH  17  18
ATOM     18  C   UNL     1       0.684  -0.798  -0.964  0.00  0.00    +0.229 C 
BRANCH  18  20
ATOM     19  C   UNL     1      -0.094   1.122   0.434  0.00  0.00    +0.007 C 
ATOM     20  C   UNL     1       0.001  -0.403   0.347  0.00  0.00    +0.038 C 
ENDBRANCH  18  20
ENDBRANCH  17  18
ENDBRANCH  11  17
ENDBRANCH   1  14
BRANCH   9  21
ATOM     21  N   UNL     1       5.494  -7.223  -4.849  0.00  0.00    -0.328 N 
ATOM     22  H   UNL     1       5.484  -8.193  -4.827  0.00  0.00    +0.145 HD
ATOM     23  H   UNL     1       6.299  -6.740  -4.606  0.00  0.00    +0.145 HD
ENDBRANCH   9  21
BRANCH  10  24
ATOM     24  C   UNL     1       5.608  -4.510  -4.880  0.00  0.00    +0.101 C 
ATOM     25  N   UNL     1       6.567  -3.975  -4.589  0.00  0.00    -0.191 NA
ENDBRANCH  10  24
BRANCH   5  26
ATOM     26  O   UNL     1      -0.535  -7.597  -8.380  0.00  0.00    -0.423 OA
BRANCH  26  27
ATOM     27  C   UNL     1      -0.480  -7.624  -9.727  0.00  0.00    +0.337 C 
ATOM     28  O   UNL     1       0.422  -7.054 -10.311  0.00  0.00    -0.245 OA
BRANCH  27  29
ATOM     29  C   UNL     1      -1.506  -8.338 -10.487  0.00  0.00    +0.092 C 
ATOM     30  C   UNL     1      -1.451  -8.365 -11.835  0.00  0.00    +0.015 C 
BRANCH  30  31
ATOM     31  C   UNL     1      -2.483  -9.083 -12.599  0.00  0.00    -0.025 A 
ATOM     32  C   UNL     1      -3.526  -9.734 -11.932  0.00  0.00    +0.008 A 
ATOM     33  C   UNL     1      -4.489 -10.405 -12.655  0.00  0.00    +0.005 A 
ATOM     34  C   UNL     1      -4.426 -10.435 -14.037  0.00  0.00    -0.042 A 
ATOM     35  C   UNL     1      -3.397  -9.794 -14.705  0.00  0.00    +0.005 A 
ATOM     36  C   UNL     1      -2.430  -9.113 -13.996  0.00  0.00    +0.008 A 
BRANCH  34  37
ATOM     37  C   UNL     1      -5.483 -11.171 -14.820  0.00  0.00    -0.013 C 
ATOM     38  C   UNL     1      -6.855 -10.561 -14.523  0.00  0.00    +0.015 C 
ATOM     39  C   UNL     1      -5.185 -11.053 -16.316  0.00  0.00    +0.015 C 
ATOM     40  C   UNL     1      -5.483 -12.647 -14.415  0.00  0.00    +0.015 C 
ENDBRANCH  34  37
ENDBRANCH  30  31
ENDBRANCH  27  29
ENDBRANCH  26  27
ENDBRANCH   5  26
TORSDOF 11
