REMARK  Name = ZINC62325384
REMARK  1 active torsions:
REMARK  status: ('A' for Active; 'I' for Inactive)
REMARK    1  A    between atoms: N_13  and  C_14
REMARK                            x       y       z     vdW  Elec       q    Type
REMARK                         _______ _______ _______ _____ _____    ______ ____
ROOT
ATOM      1  C   UNL     1      -0.017   1.377   0.010  0.00  0.00    +0.002 A 
ATOM      2  C   UNL     1       1.168   2.091   0.002  0.00  0.00    +0.002 A 
ATOM      3  C   UNL     1       2.380   1.422  -0.011  0.00  0.00    +0.031 A 
ATOM      4  C   UNL     1       2.401   0.045  -0.019  0.00  0.00    +0.134 A 
ATOM      5  C   UNL     1       1.216  -0.681  -0.014  0.00  0.00    +0.061 A 
ATOM      6  C   UNL     1       0.002  -0.004   0.002  0.00  0.00    +0.025 A 
ATOM      7  N   UNL     1       1.248  -2.073  -0.029  0.00  0.00    -0.285 N 
ATOM      8  C   UNL     1       2.331  -2.821   0.316  0.00  0.00    +0.205 C 
ATOM      9  N   UNL     1       3.555  -2.403   0.351  0.00  0.00    -0.097 NA
ATOM     10  S   UNL     1       3.930  -0.835  -0.033  0.00  0.00    +0.103 S 
ATOM     11  O   UNL     1       4.707  -0.324   1.042  0.00  0.00    -0.146 OA
ATOM     12  O   UNL     1       4.388  -0.840  -1.378  0.00  0.00    -0.146 OA
ATOM     13  N   UNL     1       2.105  -4.134   0.658  0.00  0.00    -0.313 N 
ATOM     14  H   UNL     1       0.444  -2.541  -0.305  0.00  0.00    +0.155 HD
ATOM     15  H   UNL     1       1.203  -4.490   0.646  0.00  0.00    +0.149 HD
ENDROOT
BRANCH  13  16
ATOM     16  C   UNL     1       3.227  -4.995   1.040  0.00  0.00    +0.073 C 
ATOM     17  C   UNL     1       3.908  -5.525  -0.238  0.00  0.00    +0.022 C 
ATOM     18  C   UNL     1       5.305  -5.960   0.110  0.00  0.00    +0.002 C 
ATOM     19  C   UNL     1       5.391  -7.464   0.435  0.00  0.00    +0.000 C 
ATOM     20  C   UNL     1       4.214  -7.957   1.298  0.00  0.00    +0.000 C 
ATOM     21  C   UNL     1       3.859  -6.989   2.395  0.00  0.00    +0.002 C 
ATOM     22  C   UNL     1       2.730  -6.068   1.889  0.00  0.00    +0.022 C 
ENDBRANCH  13  16
TORSDOF 1
