REMARK  Name = ZINC02233610
REMARK  3 active torsions:
REMARK  status: ('A' for Active; 'I' for Inactive)
REMARK    1  A    between atoms: C_7  and  C_9
REMARK    2  A    between atoms: C_9  and  S_10
REMARK    3  A    between atoms: S_10  and  C_11
REMARK                            x       y       z     vdW  Elec       q    Type
REMARK                         _______ _______ _______ _____ _____    ______ ____
ROOT
ATOM      1  C   UNL     1       4.625  -3.336   7.556  0.00  0.00    +0.115 A 
ATOM      2  C   UNL     1       4.141  -2.729   6.405  0.00  0.00    +0.072 A 
ATOM      3  C   UNL     1       4.973  -1.937   5.605  0.00  0.00    +0.092 A 
ATOM      4  C   UNL     1       4.345  -1.345   4.409  0.00  0.00    +0.035 A 
ATOM      5  C   UNL     1       4.961  -0.512   3.438  0.00  0.00    -0.029 A 
ATOM      6  C   UNL     1       4.229  -0.059   2.390  0.00  0.00    -0.005 A 
ATOM      7  C   UNL     1       2.874  -0.404   2.286  0.00  0.00    +0.103 A 
ATOM      8  C   UNL     1       2.988  -1.645   4.216  0.00  0.00    +0.089 A 
ATOM      9  S   UNL     1       2.568  -2.688   5.591  0.00  0.00    -0.066 S 
ATOM     10  N   UNL     1       2.125   0.070   1.217  0.00  0.00    -0.312 N 
ATOM     11  C   UNL     1       1.629  -1.039   0.389  0.00  0.00    +0.134 C 
ATOM     12  C   UNL     1       0.860  -0.471  -0.807  0.00  0.00    +0.178 C 
ATOM     13  O   UNL     1      -0.197   0.367  -0.333  0.00  0.00    -0.377 OA
ATOM     14  C   UNL     1       0.251   1.458   0.476  0.00  0.00    +0.178 C 
ATOM     15  C   UNL     1       1.013   0.909   1.685  0.00  0.00    +0.134 C 
ATOM     16  C   UNL     1       4.813   0.820   1.314  0.00  0.00    +0.039 C 
ATOM     17  C   UNL     1       6.120   1.453   1.787  0.00  0.00    +0.005 C 
ATOM     18  C   UNL     1       7.026   0.343   2.335  0.00  0.00    +0.005 C 
ATOM     19  C   UNL     1       6.414  -0.177   3.636  0.00  0.00    +0.036 C 
ATOM     20  N   UNL     1       6.253  -1.808   6.024  0.00  0.00    -0.234 NA
ATOM     21  C   UNL     1       6.676  -2.396   7.115  0.00  0.00    +0.223 A 
ATOM     22  N   UNL     1       5.904  -3.146   7.880  0.00  0.00    -0.228 NA
ATOM     23  N   UNL     1       2.231  -1.199   3.184  0.00  0.00    -0.337 N 
ATOM     24  H   UNL     1       1.239  -1.444   3.087  0.00  0.00    +0.168 HD
ENDROOT
BRANCH   1  25
ATOM     25  S   UNL     1       3.576  -4.334   8.560  0.00  0.00    -0.095 S 
BRANCH  25  26
ATOM     26  C   UNL     1       4.747  -4.818   9.853  0.00  0.00    +0.172 C 
BRANCH  26  33
ATOM     27  C   UNL     1       2.382  -8.190  13.815  0.00  0.00    +0.120 A 
ATOM     28  C   UNL     1       3.237  -8.568  14.797  0.00  0.00    +0.068 A 
ATOM     29  S   UNL     1       4.733  -7.745  14.270  0.00  0.00    -0.061 S 
ATOM     30  C   UNL     1       4.089  -7.002  12.838  0.00  0.00    +0.164 A 
ATOM     31  N   UNL     1       2.834  -7.405  12.857  0.00  0.00    -0.233 NA
ATOM     32  N   UNL     1       4.731  -6.186  11.913  0.00  0.00    -0.264 N 
ATOM     33  C   UNL     1       4.051  -5.702  10.856  0.00  0.00    +0.229 C 
ATOM     34  O   UNL     1       2.879  -5.978  10.710  0.00  0.00    -0.275 OA
ATOM     35  H   UNL     1       5.668  -5.966  12.029  0.00  0.00    +0.157 HD
ENDBRANCH  26  33
ENDBRANCH  25  26
ENDBRANCH   1  25
TORSDOF 3
