REMARK  Name = ZINC41585636
REMARK  6 active torsions:
REMARK  status: ('A' for Active; 'I' for Inactive)
REMARK    1  A    between atoms: C_1  and  C_2
REMARK    2  A    between atoms: C_6  and  O_33
REMARK    3  A    between atoms: C_7  and  C_19
REMARK    4  A    between atoms: C_12  and  C_13
REMARK    5  A    between atoms: C_19  and  N_20
REMARK    6  A    between atoms: N_23  and  C_26
REMARK                            x       y       z     vdW  Elec       q    Type
REMARK                         _______ _______ _______ _____ _____    ______ ____
ROOT
ATOM      1  C   UNL     1       0.010   1.502  -0.011  0.00  0.00    +0.045 C 
ATOM      2  C   UNL     1       0.020  -0.005  -0.011  0.00  0.00    -0.025 A 
ATOM      3  C   UNL     1      -1.193  -0.742  -0.016  0.00  0.00    +0.022 A 
ATOM      4  C   UNL     1      -2.419  -0.092  -0.223  0.00  0.00    +0.015 A 
ATOM      5  C   UNL     1      -3.573  -0.817  -0.265  0.00  0.00    +0.046 A 
ATOM      6  C   UNL     1      -3.546  -2.200  -0.096  0.00  0.00    +0.125 A 
ATOM      7  C   UNL     1      -2.347  -2.858   0.128  0.00  0.00    +0.051 A 
ATOM      8  C   UNL     1      -1.166  -2.135   0.180  0.00  0.00    +0.147 A 
ATOM      9  O   UNL     1       0.009  -2.759   0.439  0.00  0.00    -0.421 OA
ATOM     10  C   UNL     1       1.129  -2.171  -0.042  0.00  0.00    +0.345 A 
ATOM     11  O   UNL     1       2.045  -2.836  -0.490  0.00  0.00    -0.244 OA
ATOM     12  C   UNL     1       1.203  -0.702  -0.012  0.00  0.00    +0.070 A 
ENDROOT
BRANCH  12  13
ATOM     13  C   UNL     1       2.508   0.001   0.021  0.00  0.00    -0.011 A 
ATOM     14  C   UNL     1       2.894   0.811  -1.046  0.00  0.00    +0.009 A 
ATOM     15  C   UNL     1       4.110   1.462  -1.009  0.00  0.00    +0.001 A 
ATOM     16  C   UNL     1       4.945   1.313   0.083  0.00  0.00    +0.000 A 
ATOM     17  C   UNL     1       4.568   0.510   1.145  0.00  0.00    +0.001 A 
ATOM     18  C   UNL     1       3.352  -0.142   1.122  0.00  0.00    +0.009 A 
ENDBRANCH  12  13
BRANCH   6  19
ATOM     19  O   UNL     1      -4.703  -2.909  -0.151  0.00  0.00    -0.506 OA
ATOM     20  H   UNL     1      -4.933  -3.218  -1.038  0.00  0.00    +0.292 HD
ENDBRANCH   6  19
BRANCH   7  21
ATOM     21  C   UNL     1      -2.328  -4.353   0.314  0.00  0.00    +0.127 C 
BRANCH  21  22
ATOM     22  N   UNL     1      -2.159  -5.007  -0.991  0.00  0.00    -0.295 NA
ATOM     23  C   UNL     1      -3.324  -4.770  -1.853  0.00  0.00    +0.103 C 
ATOM     24  C   UNL     1      -3.034  -5.309  -3.258  0.00  0.00    +0.120 C 
ATOM     25  N   UNL     1      -2.622  -6.716  -3.142  0.00  0.00    -0.327 N 
ATOM     26  C   UNL     1      -1.550  -7.052  -2.193  0.00  0.00    +0.120 C 
ATOM     27  C   UNL     1      -1.899  -6.444  -0.830  0.00  0.00    +0.103 C 
BRANCH  25  28
ATOM     28  C   UNL     1      -3.234  -7.709  -3.914  0.00  0.00    +0.030 A 
ATOM     29  C   UNL     1      -4.320  -7.393  -4.720  0.00  0.00    +0.026 A 
ATOM     30  C   UNL     1      -4.922  -8.375  -5.482  0.00  0.00    +0.040 A 
ATOM     31  C   UNL     1      -4.445  -9.674  -5.441  0.00  0.00    +0.124 A 
ATOM     32  C   UNL     1      -3.363  -9.992  -4.638  0.00  0.00    +0.040 A 
ATOM     33  C   UNL     1      -2.754  -9.012  -3.879  0.00  0.00    +0.026 A 
ATOM     34  F   UNL     1      -5.036 -10.633  -6.187  0.00  0.00    -0.205 F 
ENDBRANCH  25  28
ENDBRANCH  21  22
ENDBRANCH   7  21
TORSDOF 5
