REMARK  Name = ZINC09610554
REMARK  8 active torsions:
REMARK  status: ('A' for Active; 'I' for Inactive)
REMARK    1  A    between atoms: C_1  and  C_2
REMARK    2  A    between atoms: C_6  and  N_9
REMARK    3  A    between atoms: C_7  and  C_8
REMARK    4  A    between atoms: C_10  and  C_12
REMARK    5  A    between atoms: C_12  and  C_14
REMARK    6  A    between atoms: C_12  and  N_20
REMARK    7  A    between atoms: N_20  and  S_21
REMARK    8  A    between atoms: S_21  and  C_24
REMARK                            x       y       z     vdW  Elec       q    Type
REMARK                         _______ _______ _______ _____ _____    ______ ____
ROOT
ATOM      1  C   UNL     1      -1.117  -1.990  -2.429  0.00  0.00    +0.192 C 
ENDROOT
BRANCH   1   2
ATOM      2  C   UNL     1      -0.158  -1.114  -3.193  0.00  0.00    -0.020 A 
ATOM      3  C   UNL     1      -0.584   0.100  -3.698  0.00  0.00    +0.006 A 
ATOM      4  C   UNL     1       0.297   0.906  -4.396  0.00  0.00    +0.000 A 
ATOM      5  C   UNL     1       1.601   0.493  -4.595  0.00  0.00    +0.000 A 
ATOM      6  C   UNL     1       2.026  -0.723  -4.094  0.00  0.00    +0.000 A 
ATOM      7  C   UNL     1       1.146  -1.527  -3.393  0.00  0.00    +0.006 A 
ENDBRANCH   1   2
BRANCH   1   9
ATOM      8  N   UNL     1      -1.444  -3.571  -4.303  0.00  0.00    -0.284 N 
ATOM      9  C   UNL     1      -1.995  -2.738  -3.398  0.00  0.00    +0.240 C 
ATOM     10  O   UNL     1      -3.198  -2.591  -3.364  0.00  0.00    -0.273 OA
ATOM     11  H   UNL     1      -0.479  -3.628  -4.384  0.00  0.00    +0.155 HD
BRANCH   8  17
ATOM     12  C   UNL     1      -2.095  -6.054  -8.496  0.00  0.00    +0.044 C 
ATOM     13  C   UNL     1      -2.604  -5.569  -7.163  0.00  0.00    -0.046 A 
ATOM     14  C   UNL     1      -3.883  -5.898  -6.750  0.00  0.00    +0.004 A 
ATOM     15  C   UNL     1      -4.353  -5.455  -5.528  0.00  0.00    +0.002 A 
ATOM     16  C   UNL     1      -3.547  -4.684  -4.714  0.00  0.00    +0.023 A 
ATOM     17  C   UNL     1      -2.263  -4.352  -5.125  0.00  0.00    +0.037 A 
ATOM     18  C   UNL     1      -1.795  -4.793  -6.356  0.00  0.00    -0.026 A 
ATOM     19  C   UNL     1      -0.404  -4.430  -6.809  0.00  0.00    +0.046 C 
ENDBRANCH   8  17
ENDBRANCH   1   9
BRANCH   1  20
ATOM     20  N   UNL     1      -1.949  -1.158  -1.557  0.00  0.00    -0.174 NA
ATOM     21  H   UNL     1      -2.753  -0.742  -1.906  0.00  0.00    +0.149 HD
BRANCH  20  22
ATOM     22  S   UNL     1      -1.519  -0.926   0.026  0.00  0.00    +0.059 S 
ATOM     23  O   UNL     1      -1.234  -2.212   0.561  0.00  0.00    -0.153 OA
ATOM     24  O   UNL     1      -2.497  -0.065   0.591  0.00  0.00    -0.153 OA
BRANCH  22  25
ATOM     25  C   UNL     1       0.000  -0.034   0.027  0.00  0.00    +0.106 A 
ATOM     26  C   UNL     1      -0.012   1.349   0.042  0.00  0.00    +0.030 A 
ATOM     27  C   UNL     1       1.176   2.053   0.043  0.00  0.00    +0.025 A 
ATOM     28  C   UNL     1       2.385   1.369   0.029  0.00  0.00    +0.037 A 
ATOM     29  C   UNL     1       2.394  -0.019   0.015  0.00  0.00    -0.024 A 
ATOM     30  C   UNL     1       1.202  -0.717   0.013  0.00  0.00    +0.034 A 
ATOM     31  C   UNL     1       3.706  -0.760   0.001  0.00  0.00    +0.046 C 
ATOM     32  C   UNL     1       4.735   0.038  -0.801  0.00  0.00    +0.101 C 
ATOM     33  C   UNL     1       4.734   1.474  -0.350  0.00  0.00    +0.218 C 
ATOM     34  O   UNL     1       5.775   2.096  -0.330  0.00  0.00    -0.275 OA
ATOM     35  N   UNL     1       3.592   2.075   0.030  0.00  0.00    -0.285 N 
ATOM     36  H   UNL     1       3.606   3.005   0.306  0.00  0.00    +0.155 HD
ENDBRANCH  22  25
ENDBRANCH  20  22
ENDBRANCH   1  20
TORSDOF 6
