REMARK  Name = ZINC12583786
REMARK  6 active torsions:
REMARK  status: ('A' for Active; 'I' for Inactive)
REMARK    1  A    between atoms: C_4  and  N_22
REMARK    2  A    between atoms: C_6  and  C_7
REMARK    3  A    between atoms: N_8  and  N_9
REMARK    4  A    between atoms: C_10  and  C_12
REMARK    5  A    between atoms: C_12  and  O_13
REMARK    6  A    between atoms: O_13  and  C_14
REMARK                            x       y       z     vdW  Elec       q    Type
REMARK                         _______ _______ _______ _____ _____    ______ ____
ROOT
ATOM      1  N   UNL     1       2.088   4.348   0.005  0.00  0.00    -0.204 N 
ATOM      2  C   UNL     1       1.030   3.512   0.011  0.00  0.00    +0.270 C 
ATOM      3  O   UNL     1      -0.097   3.961   0.024  0.00  0.00    -0.270 OA
ATOM      4  H   UNL     1       2.989   3.989  -0.005  0.00  0.00    +0.177 HD
ENDROOT
BRANCH   1   6
ATOM      5  C   UNL     1       2.904   6.538   0.009  0.00  0.00    +0.138 C 
ATOM      6  N   UNL     1       1.885   5.734   0.015  0.00  0.00    -0.188 NA
BRANCH   5  12
ATOM      7  C   UNL     1       1.394   8.517   0.029  0.00  0.00    +0.011 A 
ATOM      8  C   UNL     1       1.202   9.883   0.043  0.00  0.00    +0.023 A 
ATOM      9  C   UNL     1       2.291  10.739   0.037  0.00  0.00    +0.071 A 
ATOM     10  C   UNL     1       3.579  10.230   0.022  0.00  0.00    +0.145 A 
ATOM     11  C   UNL     1       3.785   8.866   0.013  0.00  0.00    +0.043 A 
ATOM     12  C   UNL     1       2.691   7.998   0.019  0.00  0.00    -0.003 A 
ATOM     13 CL   UNL     1       2.040  12.456   0.049  0.00  0.00    -0.081 Cl
BRANCH  10  14
ATOM     14  N   UNL     1       4.737  11.152   0.016  0.00  0.00    +0.058 N 
ATOM     15  O   UNL     1       5.870  10.706   0.003  0.00  0.00    -0.126 OA
ATOM     16  O   UNL     1       4.556  12.356   0.024  0.00  0.00    -0.126 OA
ENDBRANCH  10  14
ENDBRANCH   5  12
ENDBRANCH   1   6
BRANCH   2  17
ATOM     17  C   UNL     1       1.248   2.021   0.001  0.00  0.00    +0.326 C 
BRANCH  17  18
ATOM     18  O   UNL     1      -0.016   1.355   0.009  0.00  0.00    -0.482 OA
BRANCH  18  19
ATOM     19  C   UNL     1       0.002  -0.004   0.002  0.00  0.00    +0.135 A 
ATOM     20  C   UNL     1       1.212  -0.682  -0.013  0.00  0.00    +0.048 A 
ATOM     21  C   UNL     1       1.229  -2.063  -0.021  0.00  0.00    +0.019 A 
ATOM     22  C   UNL     1       0.040  -2.771  -0.013  0.00  0.00    +0.019 A 
ATOM     23  C   UNL     1      -1.168  -2.098   0.002  0.00  0.00    +0.034 A 
ATOM     24  C   UNL     1      -1.190  -0.715   0.015  0.00  0.00    +0.061 A 
ATOM     25 BR   UNL     1      -2.841   0.205   0.044  0.00  0.00    -0.046 Br
ATOM     26 BR   UNL     1       0.066  -4.662  -0.023  0.00  0.00    -0.050 Br
ENDBRANCH  18  19
ENDBRANCH  17  18
ENDBRANCH   2  17
TORSDOF 6
