REMARK  Name = ZINC67409022
REMARK  11 active torsions:
REMARK  status: ('A' for Active; 'I' for Inactive)
REMARK    1  A    between atoms: C_1  and  C_2
REMARK    2  A    between atoms: C_2  and  C_4
REMARK    3  A    between atoms: C_2  and  N_12
REMARK    4  A    between atoms: C_4  and  C_5
REMARK    5  A    between atoms: C_8  and  O_11
REMARK    6  A    between atoms: N_15  and  C_16
REMARK    7  A    between atoms: C_16  and  C_18
REMARK    8  A    between atoms: C_16  and  C_19
REMARK    9  A    between atoms: C_23  and  S_25
REMARK   10  A    between atoms: S_25  and  N_28
REMARK   11  A    between atoms: N_28  and  C_29
REMARK                            x       y       z     vdW  Elec       q    Type
REMARK                         _______ _______ _______ _____ _____    ______ ____
ROOT
ATOM      1  N   UNL     1       0.688  -0.476  -1.203  0.00  0.00    -0.297 N 
ATOM      2  C   UNL     1       0.006  -0.608  -2.358  0.00  0.00    +0.300 C 
ATOM      3  O   UNL     1      -1.178  -0.335  -2.400  0.00  0.00    -0.253 OA
ATOM      4  N   UNL     1       0.637  -1.043  -3.467  0.00  0.00    -0.293 N 
ATOM      5  H   UNL     1       1.632  -0.695  -1.170  0.00  0.00    +0.151 HD
ATOM      6  H   UNL     1       1.582  -1.261  -3.434  0.00  0.00    +0.151 HD
ENDROOT
BRANCH   1   8
ATOM      7  C   UNL     1      -0.019   1.526   0.010  0.00  0.00    +0.028 C 
ATOM      8  C   UNL     1       0.002  -0.004   0.002  0.00  0.00    +0.076 C 
BRANCH   8   9
ATOM      9  C   UNL     1       0.742  -0.511   1.242  0.00  0.00    +0.057 C 
BRANCH   9  10
ATOM     10  C   UNL     1       0.657  -2.014   1.298  0.00  0.00    -0.045 A 
ATOM     11  C   UNL     1      -0.397  -2.622   1.956  0.00  0.00    +0.007 A 
ATOM     12  C   UNL     1      -0.477  -4.000   2.009  0.00  0.00    +0.045 A 
ATOM     13  C   UNL     1       0.500  -4.774   1.401  0.00  0.00    +0.117 A 
ATOM     14  C   UNL     1       1.556  -4.163   0.741  0.00  0.00    +0.045 A 
ATOM     15  C   UNL     1       1.629  -2.784   0.686  0.00  0.00    +0.007 A 
BRANCH  13  16
ATOM     16  O   UNL     1       0.424  -6.130   1.453  0.00  0.00    -0.507 OA
ATOM     17  H   UNL     1      -0.066  -6.525   0.718  0.00  0.00    +0.292 HD
ENDBRANCH  13  16
ENDBRANCH   9  10
ENDBRANCH   8   9
ENDBRANCH   1   8
BRANCH   4  18
ATOM     18  C   UNL     1      -0.104  -1.186  -4.723  0.00  0.00    +0.102 C 
ATOM     19  C   UNL     1      -0.792  -2.552  -4.757  0.00  0.00    +0.033 C 
BRANCH  18  20
ATOM     20  C   UNL     1       0.850  -1.075  -5.885  0.00  0.00    -0.026 A 
ATOM     21  C   UNL     1       2.095  -1.671  -5.816  0.00  0.00    +0.005 A 
ATOM     22  C   UNL     1       2.970  -1.570  -6.881  0.00  0.00    +0.002 A 
ATOM     23  C   UNL     1       2.600  -0.873  -8.015  0.00  0.00    +0.028 A 
ATOM     24  C   UNL     1       1.354  -0.277  -8.085  0.00  0.00    +0.106 A 
ATOM     25  C   UNL     1       0.478  -0.382  -7.021  0.00  0.00    +0.034 A 
BRANCH  24  26
ATOM     26  S   UNL     1       0.882   0.612  -9.531  0.00  0.00    +0.058 S 
ATOM     27  O   UNL     1      -0.121   1.535  -9.131  0.00  0.00    -0.153 OA
ATOM     28  O   UNL     1       2.085   1.022 -10.166  0.00  0.00    -0.153 OA
BRANCH  26  29
ATOM     29  N   UNL     1       0.152  -0.467 -10.553  0.00  0.00    -0.193 NA
ATOM     30  C   UNL     1      -1.113  -1.099 -10.168  0.00  0.00    +0.127 C 
ATOM     31  H   UNL     1       0.561  -0.681 -11.406  0.00  0.00    +0.148 HD
ENDBRANCH  26  29
ENDBRANCH  24  26
ENDBRANCH  18  20
ENDBRANCH   4  18
TORSDOF 8
