REMARK  Name = ZINC30968546
REMARK  10 active torsions:
REMARK  status: ('A' for Active; 'I' for Inactive)
REMARK    1  A    between atoms: C_1  and  C_2
REMARK    2  A    between atoms: C_2  and  N_3
REMARK    3  A    between atoms: N_3  and  C_4
REMARK    4  A    between atoms: C_4  and  C_5
REMARK    5  A    between atoms: N_11  and  C_14
REMARK    6  A    between atoms: C_14  and  C_15
REMARK    7  A    between atoms: N_17  and  C_18
REMARK    8  A    between atoms: C_18  and  C_19
REMARK    9  A    between atoms: C_19  and  C_21
REMARK   10  A    between atoms: C_19  and  N_28
REMARK                            x       y       z     vdW  Elec       q    Type
REMARK                         _______ _______ _______ _____ _____    ______ ____
ROOT
ATOM      1  C   UNL     1       3.029  -2.468  -7.317  0.00  0.00    +0.227 C 
ATOM      2  O   UNL     1       1.949  -2.960  -7.569  0.00  0.00    -0.274 OA
ATOM      3  N   UNL     1       3.854  -2.107  -8.319  0.00  0.00    -0.315 N 
ATOM      4  H   UNL     1       4.718  -1.713  -8.117  0.00  0.00    +0.149 HD
ENDROOT
BRANCH   1   5
ATOM      5  C   UNL     1       3.446  -2.261  -5.884  0.00  0.00    +0.180 C 
BRANCH   5  12
ATOM      6  N   UNL     1      -1.526  -1.941  -2.077  0.00  0.00    -0.286 N 
ATOM      7  C   UNL     1      -0.236  -2.287  -1.899  0.00  0.00    +0.305 C 
ATOM      8  O   UNL     1       0.271  -2.194  -0.797  0.00  0.00    -0.252 OA
ATOM      9  N   UNL     1       0.493  -2.735  -2.940  0.00  0.00    -0.283 N 
ATOM     10  C   UNL     1       1.769  -3.433  -2.724  0.00  0.00    +0.124 C 
ATOM     11  C   UNL     1       2.841  -2.769  -3.595  0.00  0.00    +0.104 C 
ATOM     12  N   UNL     1       2.381  -2.733  -4.990  0.00  0.00    -0.291 NA
ATOM     13  C   UNL     1       1.172  -1.910  -5.131  0.00  0.00    +0.104 C 
ATOM     14  C   UNL     1       0.029  -2.544  -4.323  0.00  0.00    +0.124 C 
BRANCH   6  16
ATOM     15  C   UNL     1      -2.925  -2.293  -0.103  0.00  0.00    +0.024 C 
ATOM     16  C   UNL     1      -2.256  -1.257  -1.008  0.00  0.00    +0.106 C 
ENDBRANCH   6  16
BRANCH   6  17
ATOM     17  C   UNL     1      -2.199  -2.251  -3.342  0.00  0.00    +0.106 C 
ATOM     18  C   UNL     1      -2.427  -0.958  -4.128  0.00  0.00    +0.024 C 
ENDBRANCH   6  17
ENDBRANCH   5  12
ENDBRANCH   1   5
BRANCH   3  19
ATOM     19  C   UNL     1       3.448  -2.308  -9.712  0.00  0.00    +0.093 C 
BRANCH  19  20
ATOM     20  C   UNL     1       4.503  -1.707 -10.643  0.00  0.00    -0.019 C 
BRANCH  20  21
ATOM     21  C   UNL     1       4.526  -0.209 -10.475  0.00  0.00    -0.041 A 
ATOM     22  C   UNL     1       5.502   0.384  -9.696  0.00  0.00    +0.003 A 
ATOM     23  C   UNL     1       5.523   1.757  -9.542  0.00  0.00    +0.000 A 
ATOM     24  C   UNL     1       4.569   2.538 -10.167  0.00  0.00    +0.001 A 
ATOM     25  C   UNL     1       3.593   1.946 -10.947  0.00  0.00    +0.020 A 
ATOM     26  C   UNL     1       3.575   0.572 -11.105  0.00  0.00    +0.043 A 
ATOM     27 CL   UNL     1       2.353  -0.172 -12.089  0.00  0.00    -0.083 Cl
ENDBRANCH  20  21
BRANCH  20  28
ATOM     28  N   UNL     1       5.823  -2.258 -10.307  0.00  0.00    +0.385 N 
ATOM     29  C   UNL     1       5.838  -3.726 -10.533  0.00  0.00    -0.078 C 
ATOM     30  C   UNL     1       7.345  -4.045 -10.693  0.00  0.00    -0.020 C 
ATOM     31  C   UNL     1       7.876  -2.820 -11.474  0.00  0.00    -0.020 C 
ATOM     32  C   UNL     1       6.853  -1.700 -11.211  0.00  0.00    -0.078 C 
ATOM     33  H   UNL     1       6.053  -2.050  -9.347  0.00  0.00    -0.081 HD
ENDBRANCH  20  28
ENDBRANCH  19  20
ENDBRANCH   3  19
TORSDOF 8
