REMARK  Name = ZINC12946089
REMARK  10 active torsions:
REMARK  status: ('A' for Active; 'I' for Inactive)
REMARK    1  A    between atoms: C_1  and  N_2
REMARK    2  A    between atoms: C_6  and  C_7
REMARK    3  A    between atoms: C_12  and  C_13
REMARK    4  A    between atoms: C_12  and  N_66
REMARK    5  A    between atoms: N_15  and  C_16
REMARK    6  A    between atoms: C_16  and  C_17
REMARK    7  A    between atoms: C_17  and  C_19
REMARK    8  A    between atoms: C_17  and  C_27
REMARK    9  A    between atoms: C_22  and  O_25
REMARK   10  A    between atoms: O_25  and  C_26
REMARK                            x       y       z     vdW  Elec       q    Type
REMARK                         _______ _______ _______ _____ _____    ______ ____
ROOT
ATOM      1  C   UNL     1      -4.335  -0.389   5.734  0.00  0.00    +0.068 C 
ENDROOT
BRANCH   1   2
ATOM      2  C   UNL     1      -3.629  -1.707   5.924  0.00  0.00    -0.013 A 
ATOM      3  C   UNL     1      -2.565  -1.937   6.710  0.00  0.00    +0.088 A 
ATOM      4  N   UNL     1      -2.203  -3.254   6.630  0.00  0.00    -0.360 N 
ATOM      5  H   UNL     1      -1.464  -3.659   7.111  0.00  0.00    +0.165 HD
ATOM      6  C   UNL     1      -3.040  -3.918   5.762  0.00  0.00    +0.047 A 
ATOM      7  C   UNL     1      -3.970  -2.978   5.282  0.00  0.00    +0.003 A 
ATOM      8  C   UNL     1      -4.954  -3.373   4.373  0.00  0.00    +0.010 A 
ATOM      9  C   UNL     1      -5.008  -4.673   3.954  0.00  0.00    +0.001 A 
ATOM     10  C   UNL     1      -4.092  -5.604   4.425  0.00  0.00    +0.002 A 
ATOM     11  C   UNL     1      -3.113  -5.236   5.322  0.00  0.00    +0.026 A 
ENDBRANCH   1   2
BRANCH   1  12
ATOM     12  C   UNL     1      -4.873   0.088   7.059  0.00  0.00    -0.038 A 
ATOM     13  C   UNL     1      -4.008   0.315   8.114  0.00  0.00    +0.008 A 
ATOM     14  C   UNL     1      -4.498   0.758   9.327  0.00  0.00    +0.046 A 
ATOM     15  C   UNL     1      -5.860   0.964   9.490  0.00  0.00    +0.120 A 
ATOM     16  C   UNL     1      -6.726   0.730   8.432  0.00  0.00    +0.046 A 
ATOM     17  C   UNL     1      -6.231   0.293   7.219  0.00  0.00    +0.008 A 
BRANCH  15  18
ATOM     18  O   UNL     1      -6.345   1.393  10.685  0.00  0.00    -0.495 OA
ATOM     19  C   UNL     1      -5.395   1.614  11.730  0.00  0.00    +0.277 C 
ENDBRANCH  15  18
ENDBRANCH   1  12
BRANCH   1  20
ATOM     20  C   UNL     1      -3.349   0.643   5.183  0.00  0.00    +0.117 C 
BRANCH  20  23
ATOM     21  C   UNL     1      -2.042   1.000   3.157  0.00  0.00    +0.197 C 
ATOM     22  O   UNL     1      -1.613   2.022   3.650  0.00  0.00    -0.278 OA
ATOM     23  N   UNL     1      -2.917   0.238   3.843  0.00  0.00    -0.316 N 
ATOM     24  H   UNL     1      -3.261  -0.579   3.449  0.00  0.00    +0.149 HD
BRANCH  21  25
ATOM     25  C   UNL     1      -1.598   0.584   1.779  0.00  0.00    +0.019 C 
BRANCH  25  30
ATOM     26  C   UNL     1      -0.013   1.086   0.008  0.00  0.00    -0.020 C 
ATOM     27  C   UNL     1       1.428   1.630  -0.003  0.00  0.00    -0.011 C 
ATOM     28  C   UNL     1       1.569   2.424   1.316  0.00  0.00    -0.020 C 
ATOM     29  C   UNL     1       0.457   1.816   2.207  0.00  0.00    -0.077 C 
ATOM     30  N   UNL     1      -0.627   1.582   1.240  0.00  0.00    +0.391 N 
ATOM     31  H   UNL     1      -1.119   2.463   1.052  0.00  0.00    -0.080 HD
BRANCH  26  37
ATOM     32  C   UNL     1       0.804   0.724  -2.961  0.00  0.00    +0.148 C 
ATOM     33  N   UNL     1      -0.393   1.429  -2.497  0.00  0.00    -0.355 N 
ATOM     34  C   UNL     1      -1.322   2.028  -3.296  0.00  0.00    +0.085 A 
ATOM     35  C   UNL     1      -2.272   2.569  -2.506  0.00  0.00    +0.019 A 
ATOM     36  C   UNL     1      -1.919   2.289  -1.171  0.00  0.00    +0.021 A 
ATOM     37  C   UNL     1      -0.763   1.595  -1.195  0.00  0.00    +0.005 A 
ENDBRANCH  26  37
ENDBRANCH  25  30
ENDBRANCH  21  25
ENDBRANCH  20  23
ENDBRANCH   1  20
TORSDOF 8
