REMARK  Name = ZINC63083767
REMARK  5 active torsions:
REMARK  status: ('A' for Active; 'I' for Inactive)
REMARK    1  A    between atoms: C_1  and  N_2
REMARK    2  A    between atoms: C_10  and  C_12
REMARK    3  A    between atoms: C_15  and  C_17
REMARK    4  A    between atoms: C_17  and  C_19
REMARK    5  A    between atoms: C_24  and  O_25
REMARK                            x       y       z     vdW  Elec       q    Type
REMARK                         _______ _______ _______ _____ _____    ______ ____
ROOT
ATOM      1  C   UNL     1      -1.254  -0.677   1.960  0.00  0.00    +0.061 C 
ATOM      2  N   UNL     1      -1.972   0.398   2.012  0.00  0.00    -0.260 NA
ATOM      3  C   UNL     1      -2.996   0.324   2.870  0.00  0.00    +0.118 C 
ATOM      4  C   UNL     1      -3.047  -0.876   3.498  0.00  0.00    +0.024 C 
ATOM      5  C   UNL     1      -1.876  -1.660   2.933  0.00  0.00    +0.095 C 
ENDROOT
BRANCH   1  15
ATOM      6  C   UNL     1      -0.099   1.425  -0.083  0.00  0.00    +0.131 C 
ATOM      7  N   UNL     1      -0.084  -0.040  -0.084  0.00  0.00    -0.308 N 
ATOM      8  C   UNL     1      -0.103  -0.870  -1.213  0.00  0.00    +0.052 A 
ATOM      9  C   UNL     1      -0.139  -0.552  -2.566  0.00  0.00    +0.025 A 
ATOM     10  C   UNL     1      -0.153  -1.557  -3.514  0.00  0.00    +0.002 A 
ATOM     11  C   UNL     1      -0.130  -2.883  -3.121  0.00  0.00    +0.002 A 
ATOM     12  C   UNL     1      -0.094  -3.208  -1.779  0.00  0.00    +0.025 A 
ATOM     13  C   UNL     1      -0.080  -2.204  -0.818  0.00  0.00    +0.050 A 
ATOM     14  N   UNL     1      -0.045  -2.284   0.581  0.00  0.00    -0.320 N 
ATOM     15  C   UNL     1      -0.040  -0.910   1.098  0.00  0.00    +0.205 C 
ATOM     16  H   UNL     1      -0.024  -3.096   1.110  0.00  0.00    +0.148 HD
ENDBRANCH   1  15
BRANCH   4  17
ATOM     17  C   UNL     1      -3.990  -1.306   4.467  0.00  0.00    +0.194 C 
ATOM     18  O   UNL     1      -4.825  -0.528   4.892  0.00  0.00    -0.287 OA
BRANCH  17  19
ATOM     19  C   UNL     1      -3.960  -2.698   4.959  0.00  0.00    +0.063 A 
ATOM     20  C   UNL     1      -2.927  -3.556   4.576  0.00  0.00    +0.015 A 
ATOM     21  C   UNL     1      -2.904  -4.854   5.039  0.00  0.00    +0.001 A 
ATOM     22  C   UNL     1      -3.902  -5.312   5.884  0.00  0.00    +0.004 A 
ATOM     23  C   UNL     1      -4.929  -4.474   6.271  0.00  0.00    +0.046 A 
ATOM     24  C   UNL     1      -4.965  -3.163   5.818  0.00  0.00    +0.128 A 
BRANCH  24  25
ATOM     25  O   UNL     1      -5.971  -2.337   6.202  0.00  0.00    -0.506 OA
ATOM     26  H   UNL     1      -6.739  -2.355   5.615  0.00  0.00    +0.292 HD
ENDBRANCH  24  25
ENDBRANCH  17  19
ENDBRANCH   4  17
TORSDOF 4
