REMARK  Name = ZINC37176105
REMARK  4 active torsions:
REMARK  status: ('A' for Active; 'I' for Inactive)
REMARK    1  A    between atoms: C_1  and  C_2
REMARK    2  A    between atoms: C_7  and  C_12
REMARK    3  A    between atoms: C_12  and  C_14
REMARK    4  A    between atoms: C_12  and  N_23
REMARK                            x       y       z     vdW  Elec       q    Type
REMARK                         _______ _______ _______ _____ _____    ______ ____
ROOT
ATOM      1  C   UNL     1      -2.468  -5.106   2.288  0.00  0.00    -0.013 C 
ENDROOT
BRANCH   1   7
ATOM      2  C   UNL     1      -0.019   1.526   0.010  0.00  0.00    +0.052 C 
ATOM      3  C   UNL     1       0.002  -0.004   0.002  0.00  0.00    +0.175 C 
ATOM      4  C   UNL     1      -1.435  -0.572   0.076  0.00  0.00    +0.083 C 
ATOM      5  C   UNL     1      -1.242  -1.802   0.942  0.00  0.00    -0.002 A 
ATOM      6  C   UNL     1      -2.037  -2.901   1.177  0.00  0.00    +0.009 A 
ATOM      7  C   UNL     1      -1.600  -3.902   2.027  0.00  0.00    -0.057 A 
ATOM      8  C   UNL     1      -0.364  -3.793   2.637  0.00  0.00    +0.006 A 
ATOM      9  C   UNL     1       0.433  -2.692   2.405  0.00  0.00    +0.046 A 
ATOM     10  C   UNL     1      -0.001  -1.678   1.554  0.00  0.00    +0.124 A 
ATOM     11  O   UNL     1       0.612  -0.512   1.201  0.00  0.00    -0.488 OA
ENDBRANCH   1   7
BRANCH   1  12
ATOM     12  C   UNL     1      -1.994  -6.260   1.443  0.00  0.00    -0.054 A 
ATOM     13  C   UNL     1      -0.904  -7.008   1.847  0.00  0.00    +0.006 A 
ATOM     14  C   UNL     1      -0.465  -8.068   1.075  0.00  0.00    +0.050 A 
ATOM     15  C   UNL     1      -1.117  -8.383  -0.106  0.00  0.00    +0.166 A 
ATOM     16  C   UNL     1      -2.216  -7.629  -0.513  0.00  0.00    +0.166 A 
ATOM     17  C   UNL     1      -2.653  -6.572   0.268  0.00  0.00    +0.051 A 
ATOM     18  O   UNL     1      -2.677  -8.133  -1.694  0.00  0.00    -0.453 OA
ATOM     19  C   UNL     1      -1.604  -8.942  -2.212  0.00  0.00    +0.466 C 
ATOM     20  O   UNL     1      -0.890  -9.359  -1.033  0.00  0.00    -0.453 OA
ENDBRANCH   1  12
BRANCH   1  21
ATOM     21  N   UNL     1      -2.385  -5.472   3.708  0.00  0.00    +0.385 N 
ATOM     22  H   UNL     1      -2.966  -6.278   3.882  0.00  0.00    -0.089 HD
ATOM     23  H   UNL     1      -1.428  -5.690   3.943  0.00  0.00    -0.089 HD
ATOM     24  H   UNL     1      -2.702  -4.699   4.274  0.00  0.00    -0.089 HD
ENDBRANCH   1  21
TORSDOF 3
