REMARK  Name = ZINC22025636
REMARK  11 active torsions:
REMARK  status: ('A' for Active; 'I' for Inactive)
REMARK    1  A    between atoms: C_1  and  C_2
REMARK    2  A    between atoms: C_2  and  N_3
REMARK    3  A    between atoms: N_3  and  C_4
REMARK    4  A    between atoms: N_3  and  C_6
REMARK    5  A    between atoms: C_4  and  C_5
REMARK    6  A    between atoms: C_9  and  C_12
REMARK    7  A    between atoms: C_15  and  S_17
REMARK    8  A    between atoms: S_17  and  C_18
REMARK    9  A    between atoms: C_18  and  C_20
REMARK   10  A    between atoms: C_18  and  C_21
REMARK   11  A    between atoms: N_26  and  C_27
REMARK                            x       y       z     vdW  Elec       q    Type
REMARK                         _______ _______ _______ _____ _____    ______ ____
ROOT
ATOM      1  C   UNL     1      -8.606   0.679   2.110  0.00  0.00    +0.139 C 
ATOM      2  C   UNL     1      -9.476   1.544   1.195  0.00  0.00    +0.029 C 
ENDROOT
BRANCH   1   3
ATOM      3  C   UNL     1      -7.192   1.201   2.099  0.00  0.00    +0.234 C 
ATOM      4  O   UNL     1      -6.796   1.898   3.008  0.00  0.00    -0.274 OA
ATOM      5  N   UNL     1      -6.368   0.892   1.079  0.00  0.00    -0.239 N 
ATOM      6  C   UNL     1      -5.103   1.358   1.069  0.00  0.00    +0.306 C 
ATOM      7  O   UNL     1      -4.707   2.057   1.980  0.00  0.00    -0.252 OA
ATOM      8  N   UNL     1      -4.279   1.049   0.049  0.00  0.00    -0.294 N 
ATOM      9  H   UNL     1      -6.727   0.259   0.254  0.00  0.00    +0.159 HD
ATOM     10  H   UNL     1      -4.638   0.417  -0.776  0.00  0.00    +0.151 HD
BRANCH   8  11
ATOM     11  C   UNL     1      -2.904   1.556   0.038  0.00  0.00    +0.037 C 
ATOM     12  C   UNL     1      -2.188   1.063  -1.221  0.00  0.00    +0.029 C 
ATOM     13  C   UNL     1      -0.753   1.593  -1.232  0.00  0.00    -0.008 C 
ATOM     14  C   UNL     1      -0.013   1.086   0.008  0.00  0.00    +0.007 C 
ATOM     15  C   UNL     1      -0.729   1.579   1.267  0.00  0.00    -0.008 C 
ATOM     16  C   UNL     1      -2.164   1.050   1.278  0.00  0.00    +0.029 C 
ATOM     17  C   UNL     1      -0.750   3.109   1.275  0.00  0.00    +0.007 C 
ATOM     18  C   UNL     1      -1.490   3.616   0.036  0.00  0.00    -0.008 C 
ATOM     19  C   UNL     1      -0.773   3.123  -1.223  0.00  0.00    +0.007 C 
ATOM     20  C   UNL     1      -2.925   3.086   0.047  0.00  0.00    +0.029 C 
ENDBRANCH   8  11
ENDBRANCH   1   3
BRANCH   1  21
ATOM     21  S   UNL     1      -9.258   0.739   3.797  0.00  0.00    -0.053 S 
BRANCH  21  25
ATOM     22  C   UNL     1     -12.776  -0.896   3.867  0.00  0.00    +0.249 A 
ATOM     23  N   UNL     1     -12.448  -1.017   2.604  0.00  0.00    -0.106 NA
ATOM     24  N   UNL     1     -11.284  -0.505   2.413  0.00  0.00    -0.101 NA
ATOM     25  C   UNL     1     -10.817  -0.045   3.550  0.00  0.00    +0.278 A 
ATOM     26  O   UNL     1     -11.750  -0.279   4.494  0.00  0.00    -0.411 OA
BRANCH  22  30
ATOM     27  C   UNL     1     -16.396  -2.206   5.663  0.00  0.00    +0.030 A 
ATOM     28  C   UNL     1     -16.186  -2.402   4.303  0.00  0.00    +0.024 A 
ATOM     29  C   UNL     1     -15.014  -1.978   3.717  0.00  0.00    +0.015 A 
ATOM     30  C   UNL     1     -14.035  -1.351   4.492  0.00  0.00    +0.039 A 
ATOM     31  C   UNL     1     -14.247  -1.160   5.859  0.00  0.00    +0.015 A 
ATOM     32  C   UNL     1     -15.424  -1.582   6.438  0.00  0.00    +0.024 A 
BRANCH  27  33
ATOM     33  N   UNL     1     -17.586  -2.636   6.253  0.00  0.00    -0.330 N 
BRANCH  33  35
ATOM     34  C   UNL     1     -18.488  -1.077   7.908  0.00  0.00    +0.024 C 
ATOM     35  C   UNL     1     -17.809  -2.430   7.687  0.00  0.00    +0.102 C 
ENDBRANCH  33  35
BRANCH  33  36
ATOM     36  C   UNL     1     -18.611  -3.294   5.440  0.00  0.00    +0.102 C 
ATOM     37  C   UNL     1     -18.366  -4.804   5.434  0.00  0.00    +0.024 C 
ENDBRANCH  33  36
ENDBRANCH  27  33
ENDBRANCH  22  30
ENDBRANCH  21  25
ENDBRANCH   1  21
TORSDOF 8
