REMARK  Name = ZINC35483423
REMARK  13 active torsions:
REMARK  status: ('A' for Active; 'I' for Inactive)
REMARK    1  A    between atoms: C_1  and  C_2
REMARK    2  A    between atoms: C_2  and  C_3
REMARK    3  A    between atoms: C_3  and  C_4
REMARK    4  A    between atoms: C_4  and  N_5
REMARK    5  A    between atoms: N_5  and  C_6
REMARK    6  A    between atoms: N_5  and  C_10
REMARK    7  A    between atoms: C_6  and  C_7
REMARK    8  A    between atoms: C_7  and  C_8
REMARK    9  A    between atoms: C_8  and  C_9
REMARK   10  A    between atoms: C_10  and  C_11
REMARK   11  A    between atoms: C_11  and  C_12
REMARK   12  A    between atoms: C_12  and  N_13
REMARK   13  A    between atoms: C_14  and  C_29
REMARK                            x       y       z     vdW  Elec       q    Type
REMARK                         _______ _______ _______ _____ _____    ______ ____
ROOT
ATOM      1  N   UNL     1      -2.042  -5.995  -3.175  0.00  0.00    -0.284 N 
ATOM      2  C   UNL     1      -2.938  -6.324  -2.055  0.00  0.00    +0.145 C 
ATOM      3  C   UNL     1      -4.290  -6.519  -2.658  0.00  0.00    +0.072 A 
ATOM      4  C   UNL     1      -5.578  -6.870  -2.049  0.00  0.00    +0.199 A 
ATOM      5  O   UNL     1      -5.762  -6.894  -0.845  0.00  0.00    -0.287 OA
ATOM      6  C   UNL     1      -6.635  -7.192  -3.041  0.00  0.00    +0.064 A 
ATOM      7  C   UNL     1      -7.851  -7.734  -2.626  0.00  0.00    +0.015 A 
ATOM      8  C   UNL     1      -8.813  -8.030  -3.551  0.00  0.00    +0.001 A 
ATOM      9  C   UNL     1      -8.582  -7.793  -4.899  0.00  0.00    +0.004 A 
ATOM     10  C   UNL     1      -7.388  -7.256  -5.326  0.00  0.00    +0.047 A 
ATOM     11  C   UNL     1      -6.391  -6.944  -4.401  0.00  0.00    +0.139 A 
ATOM     12  O   UNL     1      -5.230  -6.408  -4.842  0.00  0.00    -0.450 OA
ATOM     13  C   UNL     1      -4.179  -6.314  -4.003  0.00  0.00    +0.199 A 
ATOM     14  C   UNL     1      -2.775  -5.986  -4.307  0.00  0.00    +0.283 C 
ATOM     15  O   UNL     1      -2.341  -5.746  -5.416  0.00  0.00    -0.267 OA
ENDROOT
BRANCH   2  16
ATOM     16  C   UNL     1      -2.968  -5.190  -1.063  0.00  0.00    -0.021 A 
ATOM     17  C   UNL     1      -2.990  -3.881  -1.509  0.00  0.00    +0.006 A 
ATOM     18  C   UNL     1      -3.017  -2.841  -0.600  0.00  0.00    +0.001 A 
ATOM     19  C   UNL     1      -3.023  -3.108   0.756  0.00  0.00    +0.015 A 
ATOM     20  C   UNL     1      -3.001  -4.416   1.204  0.00  0.00    +0.018 A 
ATOM     21  C   UNL     1      -2.979  -5.458   0.293  0.00  0.00    +0.021 A 
ATOM     22 BR   UNL     1      -3.007  -4.782   3.059  0.00  0.00    -0.050 Br
ENDBRANCH   2  16
BRANCH   1  23
ATOM     23  C   UNL     1      -0.607  -5.718  -3.078  0.00  0.00    +0.107 C 
BRANCH  23  24
ATOM     24  C   UNL     1      -0.390  -4.221  -2.851  0.00  0.00    +0.000 C 
BRANCH  24  25
ATOM     25  C   UNL     1       1.109  -3.932  -2.749  0.00  0.00    -0.077 C 
BRANCH  25  26
ATOM     26  N   UNL     1       1.317  -2.494  -2.531  0.00  0.00    +0.380 N 
ATOM     27  H   UNL     1       0.856  -1.973  -3.261  0.00  0.00    -0.082 HD
BRANCH  26  28
ATOM     28  C   UNL     1       0.758  -2.111  -1.228  0.00  0.00    -0.079 C 
BRANCH  28  29
ATOM     29  C   UNL     1       0.846  -0.592  -1.062  0.00  0.00    -0.019 C 
BRANCH  29  31
ATOM     30  C   UNL     1       0.233   1.339   0.400  0.00  0.00    +0.004 C 
ATOM     31  C   UNL     1       0.145  -0.179   0.234  0.00  0.00    -0.005 C 
ENDBRANCH  29  31
ENDBRANCH  28  29
ENDBRANCH  26  28
BRANCH  26  32
ATOM     32  C   UNL     1       2.756  -2.199  -2.552  0.00  0.00    -0.079 C 
BRANCH  32  33
ATOM     33  C   UNL     1       3.310  -2.463  -3.954  0.00  0.00    -0.019 C 
BRANCH  33  34
ATOM     34  C   UNL     1       4.776  -2.030  -4.013  0.00  0.00    -0.005 C 
ATOM     35  C   UNL     1       5.330  -2.294  -5.414  0.00  0.00    +0.004 C 
ENDBRANCH  33  34
ENDBRANCH  32  33
ENDBRANCH  26  32
ENDBRANCH  25  26
ENDBRANCH  24  25
ENDBRANCH  23  24
ENDBRANCH   1  23
TORSDOF 11
