REMARK  Name = ZINC46762770
REMARK  10 active torsions:
REMARK  status: ('A' for Active; 'I' for Inactive)
REMARK    1  A    between atoms: C_1  and  C_2
REMARK    2  A    between atoms: C_5  and  C_27
REMARK    3  A    between atoms: N_8  and  C_10
REMARK    4  A    between atoms: C_10  and  C_11
REMARK    5  A    between atoms: C_11  and  C_12
REMARK    6  A    between atoms: C_12  and  C_13
REMARK    7  A    between atoms: C_13  and  N_14
REMARK    8  A    between atoms: N_17  and  N_18
REMARK    9  A    between atoms: N_18  and  C_19
REMARK   10  A    between atoms: C_19  and  C_26
REMARK                            x       y       z     vdW  Elec       q    Type
REMARK                         _______ _______ _______ _____ _____    ______ ____
ROOT
ATOM      1  N   UNL     1       6.033  -2.576   4.436  0.00  0.00    -0.298 N 
ATOM      2  C   UNL     1       7.352  -2.312   4.518  0.00  0.00    +0.313 C 
ATOM      3  O   UNL     1       7.900  -1.674   3.640  0.00  0.00    -0.252 OA
ATOM      4  N   UNL     1       8.063  -2.753   5.575  0.00  0.00    -0.234 N 
ATOM      5  H   UNL     1       5.596  -3.085   5.136  0.00  0.00    +0.150 HD
ATOM      6  H   UNL     1       9.012  -2.563   5.634  0.00  0.00    +0.171 HD
ENDROOT
BRANCH   4   7
ATOM      7  N   UNL     1       7.447  -3.469   6.561  0.00  0.00    -0.232 NA
ATOM      8  H   UNL     1       6.669  -2.956   6.949  0.00  0.00    +0.145 HD
BRANCH   7   9
ATOM      9  C   UNL     1       8.402  -3.849   7.611  0.00  0.00    +0.054 C 
ATOM     10  C   UNL     1       9.554  -4.620   6.968  0.00  0.00    +0.047 C 
ATOM     11  C   UNL     1      10.175  -5.613   7.991  0.00  0.00    +0.168 C 
ATOM     12  S   UNL     1       8.634  -6.205   8.818  0.00  0.00    -0.029 S 
ATOM     13  O   UNL     1       8.911  -6.474  10.186  0.00  0.00    -0.174 OA
ATOM     14  O   UNL     1       8.027  -7.208   8.014  0.00  0.00    -0.174 OA
ATOM     15  C   UNL     1       7.654  -4.652   8.693  0.00  0.00    +0.189 C 
ATOM     16  C   UNL     1       8.963  -2.575   8.246  0.00  0.00    +0.031 C 
ENDBRANCH   7   9
ENDBRANCH   4   7
BRANCH   1  17
ATOM     17  C   UNL     1       5.260  -2.096   3.288  0.00  0.00    +0.105 C 
BRANCH  17  18
ATOM     18  C   UNL     1       3.800  -2.529   3.438  0.00  0.00    +0.017 C 
BRANCH  18  19
ATOM     19  C   UNL     1       2.993  -2.028   2.239  0.00  0.00    -0.017 C 
BRANCH  19  20
ATOM     20  C   UNL     1       1.534  -2.461   2.390  0.00  0.00    -0.079 C 
BRANCH  20  26
ATOM     21  C   UNL     1      -0.019   1.526   0.010  0.00  0.00    +0.005 C 
ATOM     22  C   UNL     1       0.002  -0.004   0.002  0.00  0.00    -0.031 C 
ATOM     23  C   UNL     1      -1.434  -0.535   0.015  0.00  0.00    +0.003 C 
ATOM     24  C   UNL     1      -1.402  -2.064   0.086  0.00  0.00    -0.031 C 
ATOM     25  C   UNL     1      -0.613  -2.496   1.324  0.00  0.00    -0.076 C 
ATOM     26  N   UNL     1       0.758  -1.980   1.239  0.00  0.00    +0.380 N 
ATOM     27  C   UNL     1       0.740  -0.512   1.242  0.00  0.00    -0.076 C 
ATOM     28  C   UNL     1      -2.832  -2.602   0.177  0.00  0.00    +0.005 C 
ATOM     29  H   UNL     1       1.188  -2.307   0.386  0.00  0.00    -0.082 HD
ENDBRANCH  20  26
ENDBRANCH  19  20
ENDBRANCH  18  19
ENDBRANCH  17  18
ENDBRANCH   1  17
TORSDOF 7
