REMARK  Name = ZINC16633395
REMARK  10 active torsions:
REMARK  status: ('A' for Active; 'I' for Inactive)
REMARK    1  A    between atoms: C_1  and  C_2
REMARK    2  A    between atoms: C_2  and  C_4
REMARK    3  A    between atoms: C_2  and  N_32
REMARK    4  A    between atoms: C_7  and  C_10
REMARK    5  A    between atoms: C_10  and  C_12
REMARK    6  A    between atoms: C_12  and  S_13
REMARK    7  A    between atoms: S_13  and  C_14
REMARK    8  A    between atoms: N_24  and  C_25
REMARK    9  A    between atoms: C_25  and  C_26
REMARK   10  A    between atoms: C_33  and  C_35
REMARK                            x       y       z     vdW  Elec       q    Type
REMARK                         _______ _______ _______ _____ _____    ______ ____
ROOT
ATOM      1  S   UNL     1      -1.577   2.180   0.021  0.00  0.00    -0.080 S 
ENDROOT
BRANCH   1   2
ATOM      2  C   UNL     1      -0.016   1.361   0.009  0.00  0.00    +0.173 A 
ATOM      3  N   UNL     1       1.072   2.091   0.003  0.00  0.00    -0.223 NA
ATOM      4  C   UNL     1       2.298   1.531  -0.012  0.00  0.00    +0.079 A 
ATOM      5  C   UNL     1       3.459   2.310  -0.018  0.00  0.00    +0.028 A 
ATOM      6  C   UNL     1       4.682   1.700  -0.033  0.00  0.00    +0.002 A 
ATOM      7  C   UNL     1       4.790   0.316  -0.042  0.00  0.00    +0.001 A 
ATOM      8  C   UNL     1       3.673  -0.473  -0.036  0.00  0.00    +0.015 A 
ATOM      9  C   UNL     1       2.412   0.122  -0.020  0.00  0.00    +0.065 A 
ATOM     10  C   UNL     1       1.178  -0.674  -0.013  0.00  0.00    +0.262 A 
ATOM     11  O   UNL     1       1.211  -1.891  -0.019  0.00  0.00    -0.267 OA
ATOM     12  N   UNL     1       0.002  -0.004   0.002  0.00  0.00    -0.285 N 
BRANCH  12  13
ATOM     13  C   UNL     1      -1.260  -0.749   0.011  0.00  0.00    +0.159 C 
BRANCH  13  14
ATOM     14  C   UNL     1      -1.713  -1.000  -1.429  0.00  0.00    +0.138 C 
ATOM     15  C   UNL     1      -3.083  -1.725  -1.442  0.00  0.00    +0.035 C 
ATOM     16  C   UNL     1      -3.625  -1.304  -2.836  0.00  0.00    +0.031 C 
ATOM     17  C   UNL     1      -3.063   0.126  -2.987  0.00  0.00    +0.160 C 
ATOM     18  O   UNL     1      -1.942   0.246  -2.105  0.00  0.00    -0.375 OA
ENDBRANCH  13  14
ENDBRANCH  12  13
ENDBRANCH   1   2
BRANCH   1  19
ATOM     19  C   UNL     1      -1.027   3.905   0.028  0.00  0.00    +0.157 C 
BRANCH  19  20
ATOM     20  C   UNL     1      -2.228   4.815   0.039  0.00  0.00    +0.173 C 
ATOM     21  O   UNL     1      -3.345   4.344   0.041  0.00  0.00    -0.291 OA
BRANCH  20  25
ATOM     22  C   UNL     1      -1.699   9.024   0.060  0.00  0.00    -0.027 A 
ATOM     23  C   UNL     1      -2.976   8.490   0.062  0.00  0.00    +0.006 A 
ATOM     24  C   UNL     1      -3.156   7.123   0.055  0.00  0.00    +0.012 A 
ATOM     25  C   UNL     1      -2.044   6.275   0.046  0.00  0.00    +0.018 A 
ATOM     26  C   UNL     1      -0.757   6.822   0.049  0.00  0.00    +0.012 A 
ATOM     27  C   UNL     1      -0.593   8.191   0.051  0.00  0.00    +0.006 A 
BRANCH  22  29
ATOM     28  C   UNL     1      -1.205  11.002  -1.351  0.00  0.00    +0.033 C 
ATOM     29  C   UNL     1      -1.511  10.519   0.068  0.00  0.00    +0.100 C 
BRANCH  29  30
ATOM     30  N   UNL     1      -0.396  10.866   0.953  0.00  0.00    -0.309 N 
ATOM     31  C   UNL     1      -0.341  12.088   1.519  0.00  0.00    +0.210 C 
ATOM     32  O   UNL     1      -1.214  12.900   1.296  0.00  0.00    -0.276 OA
ATOM     33  C   UNL     1       0.805  12.445   2.429  0.00  0.00    +0.109 C 
ATOM     34  H   UNL     1       0.302  10.217   1.131  0.00  0.00    +0.149 HD
ENDBRANCH  29  30
ENDBRANCH  22  29
ENDBRANCH  20  25
ENDBRANCH  19  20
ENDBRANCH   1  19
TORSDOF 8
