REMARK  Name = ZINC36553010
REMARK  16 active torsions:
REMARK  status: ('A' for Active; 'I' for Inactive)
REMARK    1  A    between atoms: C_1  and  C_2
REMARK    2  A    between atoms: C_2  and  C_3
REMARK    3  A    between atoms: C_2  and  C_4
REMARK    4  A    between atoms: C_2  and  C_5
REMARK    5  A    between atoms: C_5  and  C_6
REMARK    6  A    between atoms: C_6  and  C_7
REMARK    7  A    between atoms: C_6  and  C_8
REMARK    8  A    between atoms: C_6  and  N_9
REMARK    9  A    between atoms: C_10  and  C_12
REMARK   10  A    between atoms: C_12  and  C_14
REMARK   11  A    between atoms: C_12  and  N_23
REMARK   12  A    between atoms: C_17  and  N_20
REMARK   13  A    between atoms: N_20  and  C_21
REMARK   14  A    between atoms: N_20  and  C_22
REMARK   15  A    between atoms: N_23  and  C_24
REMARK   16  A    between atoms: C_31  and  C_33
REMARK                            x       y       z     vdW  Elec       q    Type
REMARK                         _______ _______ _______ _____ _____    ______ ____
ROOT
ATOM      1  C   UNL     1       5.892  -0.686  -3.864  0.00  0.00    +0.197 C 
ENDROOT
BRANCH   1   2
ATOM      2  C   UNL     1       5.900  -2.079  -4.438  0.00  0.00    -0.018 A 
ATOM      3  C   UNL     1       6.753  -3.035  -3.917  0.00  0.00    +0.008 A 
ATOM      4  C   UNL     1       6.763  -4.313  -4.441  0.00  0.00    +0.023 A 
ATOM      5  C   UNL     1       5.915  -4.638  -5.492  0.00  0.00    +0.029 A 
ATOM      6  C   UNL     1       5.058  -3.675  -6.012  0.00  0.00    +0.023 A 
ATOM      7  C   UNL     1       5.050  -2.401  -5.480  0.00  0.00    +0.008 A 
BRANCH   5   8
ATOM      8  N   UNL     1       5.922  -5.929  -6.024  0.00  0.00    -0.336 N 
ATOM      9  C   UNL     1       6.826  -6.942  -5.475  0.00  0.00    +0.129 C 
ATOM     10  C   UNL     1       5.026  -6.270  -7.132  0.00  0.00    +0.129 C 
ENDBRANCH   5   8
ENDBRANCH   1   2
BRANCH   1  12
ATOM     11  N   UNL     1       3.446  -0.642  -3.500  0.00  0.00    -0.308 N 
ATOM     12  C   UNL     1       4.683  -0.514  -2.981  0.00  0.00    +0.239 C 
ATOM     13  O   UNL     1       4.823  -0.259  -1.803  0.00  0.00    -0.273 OA
ATOM     14  H   UNL     1       3.332  -0.937  -4.417  0.00  0.00    +0.149 HD
BRANCH  11  15
ATOM     15  C   UNL     1       2.271  -0.336  -2.679  0.00  0.00    +0.030 C 
ATOM     16  C   UNL     1       2.381   1.094  -2.146  0.00  0.00    +0.031 C 
ATOM     17  C   UNL     1       2.201  -1.314  -1.504  0.00  0.00    +0.031 C 
BRANCH  15  18
ATOM     18  C   UNL     1       1.006  -0.468  -3.529  0.00  0.00    +0.031 C 
BRANCH  18  20
ATOM     19  C   UNL     1       1.890  -0.852  -5.834  0.00  0.00    +0.010 C 
ATOM     20  C   UNL     1       1.243   0.171  -4.898  0.00  0.00    -0.036 C 
ATOM     21  C   UNL     1       2.170   1.379  -4.744  0.00  0.00    +0.010 C 
ATOM     22  C   UNL     1      -0.094   0.627  -5.486  0.00  0.00    +0.010 C 
ENDBRANCH  18  20
ENDBRANCH  15  18
ENDBRANCH  11  15
ENDBRANCH   1  12
BRANCH   1  23
ATOM     23  N   UNL     1       7.107  -0.477  -3.073  0.00  0.00    -0.254 N 
ATOM     24  C   UNL     1       8.027   0.422  -3.477  0.00  0.00    +0.241 C 
ATOM     25  O   UNL     1       9.085   0.513  -2.890  0.00  0.00    -0.273 OA
BRANCH  23  26
ATOM     26  C   UNL     1       7.314  -1.210  -1.899  0.00  0.00    +0.039 A 
ATOM     27  C   UNL     1       6.361  -2.127  -1.475  0.00  0.00    +0.023 A 
ATOM     28  C   UNL     1       6.566  -2.849  -0.316  0.00  0.00    +0.003 A 
ATOM     29  C   UNL     1       7.720  -2.659   0.423  0.00  0.00    +0.020 A 
ATOM     30  C   UNL     1       8.671  -1.747   0.004  0.00  0.00    +0.043 A 
ATOM     31  C   UNL     1       8.474  -1.026  -1.159  0.00  0.00    +0.043 A 
ATOM     32 CL   UNL     1      10.118  -1.512   0.935  0.00  0.00    -0.083 Cl
ENDBRANCH  23  26
BRANCH  24  33
ATOM     33  C   UNL     1       7.742   1.314  -4.658  0.00  0.00    +0.160 C 
ATOM     34  C   UNL     1       8.122   0.598  -5.973  0.00  0.00    +0.041 C 
ATOM     35  C   UNL     1       9.568   1.099  -6.197  0.00  0.00    +0.098 C 
ATOM     36  C   UNL     1       9.624   2.416  -5.455  0.00  0.00    +0.214 C 
ATOM     37  O   UNL     1      10.479   3.263  -5.607  0.00  0.00    -0.276 OA
ATOM     38  N   UNL     1       8.585   2.513  -4.604  0.00  0.00    -0.304 N 
ATOM     39  H   UNL     1       8.416   3.276  -4.030  0.00  0.00    +0.149 HD
ENDBRANCH  24  33
ENDBRANCH   1  23
TORSDOF 9
