REMARK  Name = ZINC16020149
REMARK  6 active torsions:
REMARK  status: ('A' for Active; 'I' for Inactive)
REMARK    1  A    between atoms: C_1  and  C_2
REMARK    2  A    between atoms: C_16  and  C_19
REMARK    3  A    between atoms: C_19  and  C_21
REMARK    4  A    between atoms: C_19  and  O_22
REMARK    5  A    between atoms: N_25  and  C_28
REMARK    6  A    between atoms: C_28  and  C_29
REMARK                            x       y       z     vdW  Elec       q    Type
REMARK                         _______ _______ _______ _____ _____    ______ ____
ROOT
ATOM      1  C   UNL     1      -1.835   1.413   0.221  0.00  0.00    +0.045 C 
ATOM      2  C   UNL     1      -1.429  -0.034   0.109  0.00  0.00    -0.029 A 
ATOM      3  C   UNL     1      -1.500  -0.676  -1.110  0.00  0.00    +0.005 A 
ATOM      4  C   UNL     1      -1.130  -2.003  -1.222  0.00  0.00    +0.001 A 
ATOM      5  C   UNL     1      -0.686  -2.691  -0.106  0.00  0.00    +0.008 A 
ATOM      6  C   UNL     1      -0.613  -2.054   1.112  0.00  0.00    +0.004 A 
ATOM      7  C   UNL     1      -0.978  -0.717   1.236  0.00  0.00    +0.042 A 
ATOM      8  N   UNL     1      -0.815  -0.292   2.556  0.00  0.00    -0.283 N 
ATOM      9  C   UNL     1      -0.348  -1.274   3.352  0.00  0.00    +0.243 C 
ATOM     10  O   UNL     1      -0.112  -1.193   4.539  0.00  0.00    -0.273 OA
ATOM     11  C   UNL     1      -0.188  -2.492   2.485  0.00  0.00    +0.136 C 
ATOM     12  C   UNL     1      -1.035  -3.668   2.987  0.00  0.00    +0.123 C 
ATOM     13  C   UNL     1      -0.167  -4.925   2.701  0.00  0.00    +0.109 C 
ATOM     14  C   UNL     1       1.109  -4.380   2.025  0.00  0.00    +0.096 C 
ATOM     15  N   UNL     1       1.208  -2.966   2.494  0.00  0.00    -0.293 NA
ATOM     16  C   UNL     1       0.164  -5.444   4.082  0.00  0.00    +0.228 C 
ATOM     17  O   UNL     1       0.842  -6.420   4.319  0.00  0.00    -0.275 OA
ATOM     18  N   UNL     1      -0.407  -4.657   5.001  0.00  0.00    -0.237 N 
ATOM     19  C   UNL     1      -1.120  -3.623   4.497  0.00  0.00    +0.229 C 
ATOM     20  O   UNL     1      -1.727  -2.793   5.139  0.00  0.00    -0.275 OA
ATOM     21  H   UNL     1      -1.014   0.606   2.865  0.00  0.00    +0.155 HD
ATOM     22  H   UNL     1       1.779  -2.421   1.865  0.00  0.00    +0.124 HD
ENDROOT
BRANCH  14  23
ATOM     23  C   UNL     1       2.336  -5.168   2.490  0.00  0.00    +0.129 C 
ATOM     24  C   UNL     1       2.243  -6.607   1.977  0.00  0.00    +0.039 C 
BRANCH  23  25
ATOM     25  O   UNL     1       3.519  -4.555   1.976  0.00  0.00    -0.390 OA
ATOM     26  H   UNL     1       3.554  -4.516   1.010  0.00  0.00    +0.210 HD
ENDBRANCH  23  25
ENDBRANCH  14  23
BRANCH  18  27
ATOM     27  C   UNL     1      -0.279  -4.897   6.440  0.00  0.00    +0.153 C 
BRANCH  27  28
ATOM     28  C   UNL     1      -1.488  -5.648   6.934  0.00  0.00    -0.011 A 
ATOM     29  C   UNL     1      -2.551  -4.960   7.487  0.00  0.00    +0.006 A 
ATOM     30  C   UNL     1      -3.660  -5.649   7.940  0.00  0.00    +0.000 A 
ATOM     31  C   UNL     1      -3.707  -7.027   7.841  0.00  0.00    +0.001 A 
ATOM     32  C   UNL     1      -2.645  -7.716   7.288  0.00  0.00    +0.020 A 
ATOM     33  C   UNL     1      -1.536  -7.027   6.829  0.00  0.00    +0.046 A 
ATOM     34 CL   UNL     1      -0.204  -7.892   6.128  0.00  0.00    -0.083 Cl
ENDBRANCH  27  28
ENDBRANCH  18  27
TORSDOF 4
