REMARK  Name = ZINC38555951
REMARK  5 active torsions:
REMARK  status: ('A' for Active; 'I' for Inactive)
REMARK    1  A    between atoms: C_1  and  C_2
REMARK    2  A    between atoms: C_5  and  N_9
REMARK    3  A    between atoms: C_7  and  C_8
REMARK    4  A    between atoms: C_10  and  O_34
REMARK    5  A    between atoms: C_12  and  C_19
REMARK                            x       y       z     vdW  Elec       q    Type
REMARK                         _______ _______ _______ _____ _____    ______ ____
ROOT
ATOM      1  N   UNL     1       0.302  -4.280  -0.006  0.00  0.00    -0.228 N 
ATOM      2  C   UNL     1      -0.044  -4.886  -1.294  0.00  0.00    +0.225 C 
ATOM      3  C   UNL     1       0.633  -6.254  -1.414  0.00  0.00    +0.145 C 
ATOM      4  C   UNL     1       0.420  -7.025  -0.135  0.00  0.00    +0.229 C 
ATOM      5  O   UNL     1       0.285  -8.229  -0.169  0.00  0.00    -0.275 OA
ATOM      6  N   UNL     1       0.382  -6.376   1.043  0.00  0.00    -0.239 N 
ATOM      7  C   UNL     1       0.446  -5.035   1.095  0.00  0.00    +0.315 C 
ATOM      8  O   UNL     1       0.635  -4.492   2.166  0.00  0.00    -0.252 OA
ATOM      9  H   UNL     1       0.310  -6.884   1.866  0.00  0.00    +0.159 HD
ENDROOT
BRANCH   3  10
ATOM     10  C   UNL     1       2.131  -6.063  -1.655  0.00  0.00    +0.117 C 
ATOM     11  C   UNL     1       2.783  -7.406  -1.886  0.00  0.00    +0.038 A 
ATOM     12  H   UNL     1       1.487  -8.415  -3.167  0.00  0.00    +0.166 HD
ATOM     13  C   UNL     1       3.960  -7.761  -1.323  0.00  0.00    -0.016 A 
ATOM     14  C   UNL     1       4.261  -9.103  -1.769  0.00  0.00    +0.003 A 
ATOM     15  C   UNL     1       5.327  -9.972  -1.517  0.00  0.00    +0.010 A 
ATOM     16  C   UNL     1       5.282 -11.203  -2.125  0.00  0.00    +0.001 A 
ATOM     17  C   UNL     1       4.235 -11.578  -2.950  0.00  0.00    +0.002 A 
ATOM     18  C   UNL     1       3.167 -10.738  -3.217  0.00  0.00    +0.026 A 
ATOM     19  C   UNL     1       3.186  -9.482  -2.615  0.00  0.00    +0.047 A 
ATOM     20  N   UNL     1       2.314  -8.432  -2.661  0.00  0.00    -0.356 N 
ATOM     21  C   UNL     1       4.751  -6.858  -0.410  0.00  0.00    +0.052 C 
ATOM     22  C   UNL     1       4.214  -5.429  -0.575  0.00  0.00    +0.086 C 
ATOM     23  N   UNL     1       2.747  -5.439  -0.473  0.00  0.00    -0.307 NA
ATOM     24  H   UNL     1       2.386  -4.508  -0.326  0.00  0.00    +0.123 HD
ENDBRANCH   3  10
BRANCH   1  29
ATOM     25  C   UNL     1       1.064   1.331   0.332  0.00  0.00    +0.044 C 
ATOM     26  C   UNL     1       0.862  -0.160   0.242  0.00  0.00    -0.047 A 
ATOM     27  C   UNL     1      -0.370  -0.668  -0.127  0.00  0.00    +0.005 A 
ATOM     28  C   UNL     1      -0.559  -2.033  -0.210  0.00  0.00    +0.024 A 
ATOM     29  C   UNL     1       0.490  -2.896   0.077  0.00  0.00    +0.041 A 
ATOM     30  C   UNL     1       1.726  -2.383   0.447  0.00  0.00    +0.027 A 
ATOM     31  C   UNL     1       1.910  -1.016   0.523  0.00  0.00    -0.046 A 
ATOM     32  C   UNL     1       3.253  -0.458   0.918  0.00  0.00    +0.044 C 
ENDBRANCH   1  29
BRANCH   2  33
ATOM     33  O   UNL     1       0.405  -4.039  -2.354  0.00  0.00    -0.373 OA
ATOM     34  H   UNL     1      -0.053  -3.188  -2.397  0.00  0.00    +0.212 HD
ENDBRANCH   2  33
TORSDOF 3
