REMARK  Name = ZINC09505552
REMARK  11 active torsions:
REMARK  status: ('A' for Active; 'I' for Inactive)
REMARK    1  A    between atoms: C_1  and  C_2
REMARK    2  A    between atoms: C_2  and  O_3
REMARK    3  A    between atoms: O_3  and  C_4
REMARK    4  A    between atoms: N_13  and  C_14
REMARK    5  A    between atoms: C_14  and  C_15
REMARK    6  A    between atoms: C_15  and  N_61
REMARK    7  A    between atoms: C_16  and  N_61
REMARK    8  A    between atoms: C_17  and  N_61
REMARK    9  A    between atoms: C_18  and  C_20
REMARK   10  A    between atoms: N_25  and  S_26
REMARK   11  A    between atoms: S_26  and  C_29
REMARK                            x       y       z     vdW  Elec       q    Type
REMARK                         _______ _______ _______ _____ _____    ______ ____
ROOT
ATOM      1  C   UNL     1      -3.116   7.444   0.054  0.00  0.00    +0.147 A 
ATOM      2  C   UNL     1      -4.321   7.905  -0.423  0.00  0.00    +0.048 A 
ATOM      3  C   UNL     1      -5.403   7.055  -0.597  0.00  0.00    +0.005 A 
ATOM      4  C   UNL     1      -5.270   5.715  -0.283  0.00  0.00    +0.017 A 
ATOM      5  C   UNL     1      -4.072   5.244   0.195  0.00  0.00    +0.044 A 
ATOM      6  C   UNL     1      -2.946   6.075   0.386  0.00  0.00    +0.122 A 
ATOM      7  N   UNL     1      -1.840   5.463   0.862  0.00  0.00    -0.221 NA
ATOM      8  C   UNL     1      -1.805   4.180   1.133  0.00  0.00    +0.168 A 
ATOM      9  S   UNL     1      -3.459   3.656   0.704  0.00  0.00    -0.052 S 
ATOM     10  N   UNL     1      -0.752   3.423   1.621  0.00  0.00    -0.251 N 
ATOM     11  C   UNL     1       0.435   4.007   1.881  0.00  0.00    +0.240 C 
ATOM     12  O   UNL     1       0.557   5.208   1.766  0.00  0.00    -0.273 OA
ENDROOT
BRANCH  11  13
ATOM     13  C   UNL     1       1.609   3.168   2.314  0.00  0.00    +0.166 C 
ATOM     14  C   UNL     1       2.126   2.334   1.123  0.00  0.00    +0.031 C 
ATOM     15  C   UNL     1       3.665   2.372   1.314  0.00  0.00    +0.019 C 
ATOM     16  C   UNL     1       3.873   3.802   1.874  0.00  0.00    +0.110 C 
ATOM     17  N   UNL     1       2.710   4.037   2.753  0.00  0.00    -0.164 NA
BRANCH  17  18
ATOM     18  S   UNL     1       2.652   5.102   4.020  0.00  0.00    +0.068 S 
ATOM     19  O   UNL     1       3.641   6.091   3.765  0.00  0.00    -0.152 OA
ATOM     20  O   UNL     1       1.283   5.427   4.216  0.00  0.00    -0.152 OA
BRANCH  18  21
ATOM     21  C   UNL     1       3.174   4.229   5.459  0.00  0.00    +0.143 A 
ATOM     22  C   UNL     1       4.424   4.082   5.962  0.00  0.00    +0.036 A 
ATOM     23  C   UNL     1       4.598   3.347   7.120  0.00  0.00    +0.010 A 
ATOM     24  C   UNL     1       3.515   2.786   7.712  0.00  0.00    +0.047 A 
ATOM     25  S   UNL     1       2.194   3.301   6.628  0.00  0.00    -0.077 S 
ENDBRANCH  18  21
ENDBRANCH  17  18
ENDBRANCH  11  13
BRANCH   1  26
ATOM     26  O   UNL     1      -2.079   8.308   0.211  0.00  0.00    -0.490 OA
BRANCH  26  28
ATOM     27  C   UNL     1      -1.041  10.488   0.101  0.00  0.00    +0.048 C 
ATOM     28  C   UNL     1      -2.313   9.673  -0.140  0.00  0.00    +0.226 C 
ENDBRANCH  26  28
ENDBRANCH   1  26
BRANCH  10  29
ATOM     29  C   UNL     1      -0.928   1.987   1.855  0.00  0.00    +0.097 C 
BRANCH  29  30
ATOM     30  C   UNL     1      -0.664   1.223   0.556  0.00  0.00    -0.060 C 
BRANCH  30  33
ATOM     31  C   UNL     1      -2.064  -0.643   1.205  0.00  0.00    -0.097 C 
ATOM     32  C   UNL     1      -0.231  -0.985  -0.340  0.00  0.00    -0.097 C 
ATOM     33  N   UNL     1      -0.693  -0.227   0.842  0.00  0.00    +0.377 N 
ATOM     34  H   UNL     1      -0.065  -0.424   1.631  0.00  0.00    -0.083 HD
ENDBRANCH  30  33
ENDBRANCH  29  30
ENDBRANCH  10  29
TORSDOF 8
