REMARK  Name = ZINC66001269
REMARK  4 active torsions:
REMARK  status: ('A' for Active; 'I' for Inactive)
REMARK    1  A    between atoms: C_6  and  C_7
REMARK    2  A    between atoms: N_9  and  S_13
REMARK    3  A    between atoms: S_13  and  C_16
REMARK    4  A    between atoms: C_19  and  N_21
REMARK                            x       y       z     vdW  Elec       q    Type
REMARK                         _______ _______ _______ _____ _____    ______ ____
ROOT
ATOM      1  C   UNL     1      -1.293  -0.775   0.011  0.00  0.00    +0.164 C 
ATOM      2  C   UNL     1      -1.651  -1.158   1.451  0.00  0.00    +0.146 C 
ATOM      3  N   UNL     1      -2.810  -2.064   1.416  0.00  0.00    -0.171 NA
ATOM      4  C   UNL     1      -2.750  -3.229   0.519  0.00  0.00    +0.137 C 
ATOM      5  C   UNL     1      -2.339  -2.745  -0.876  0.00  0.00    +0.178 C 
ATOM      6  O   UNL     1      -1.146  -1.964  -0.770  0.00  0.00    -0.369 OA
ENDROOT
BRANCH   1  12
ATOM      7  C   UNL     1      -0.017   1.378   0.010  0.00  0.00    +0.007 A 
ATOM      8  C   UNL     1       1.171   2.086   0.002  0.00  0.00    +0.020 A 
ATOM      9  C   UNL     1       2.378   1.410  -0.013  0.00  0.00    +0.041 A 
ATOM     10  C   UNL     1       2.396   0.027  -0.021  0.00  0.00    +0.020 A 
ATOM     11  C   UNL     1       1.208  -0.679  -0.013  0.00  0.00    +0.007 A 
ATOM     12  C   UNL     1       0.002  -0.004   0.002  0.00  0.00    -0.018 A 
ATOM     13 CL   UNL     1       3.870   2.298  -0.023  0.00  0.00    -0.084 Cl
ENDBRANCH   1  12
BRANCH   3  14
ATOM     14  S   UNL     1      -4.142  -1.781   2.358  0.00  0.00    +0.067 S 
ATOM     15  O   UNL     1      -4.789  -3.034   2.534  0.00  0.00    -0.152 OA
ATOM     16  O   UNL     1      -3.704  -0.990   3.454  0.00  0.00    -0.152 OA
BRANCH  14  17
ATOM     17  C   UNL     1      -5.241  -0.774   1.418  0.00  0.00    +0.145 A 
ATOM     18  C   UNL     1      -6.235  -1.151   0.577  0.00  0.00    +0.038 A 
ATOM     19  C   UNL     1      -6.978  -0.175  -0.061  0.00  0.00    +0.042 A 
ATOM     20  C   UNL     1      -6.691   1.128   0.172  0.00  0.00    +0.165 A 
ATOM     21  S   UNL     1      -5.338   1.006   1.331  0.00  0.00    -0.045 S 
BRANCH  20  22
ATOM     22  N   UNL     1      -7.334   2.339  -0.385  0.00  0.00    +0.063 N 
ATOM     23  O   UNL     1      -8.253   2.232  -1.164  0.00  0.00    -0.126 OA
ATOM     24  O   UNL     1      -6.942   3.436  -0.061  0.00  0.00    -0.126 OA
ENDBRANCH  20  22
ENDBRANCH  14  17
ENDBRANCH   3  14
TORSDOF 4
