REMARK  Name = ZINC10249423
REMARK  7 active torsions:
REMARK  status: ('A' for Active; 'I' for Inactive)
REMARK    1  A    between atoms: C_1  and  C_2
REMARK    2  A    between atoms: C_5  and  N_9
REMARK    3  A    between atoms: C_13  and  S_14
REMARK    4  A    between atoms: S_14  and  C_15
REMARK    5  A    between atoms: C_15  and  C_17
REMARK    6  A    between atoms: C_15  and  C_18
REMARK    7  A    between atoms: N_20  and  C_21
REMARK                            x       y       z     vdW  Elec       q    Type
REMARK                         _______ _______ _______ _____ _____    ______ ____
ROOT
ATOM      1  C   UNL     1      -2.132   7.259  -0.950  0.00  0.00    +0.137 C 
ATOM      2  C   UNL     1      -3.235   7.749  -0.009  0.00  0.00    +0.029 C 
ENDROOT
BRANCH   1   3
ATOM      3  C   UNL     1      -2.112   5.752  -0.958  0.00  0.00    +0.227 C 
ATOM      4  O   UNL     1      -2.637   5.143  -1.866  0.00  0.00    -0.275 OA
ATOM      5  N   UNL     1      -1.510   5.081   0.044  0.00  0.00    -0.309 N 
ATOM      6  H   UNL     1      -1.089   5.567   0.770  0.00  0.00    +0.149 HD
BRANCH   5   7
ATOM      7  C   UNL     1      -1.490   3.616   0.036  0.00  0.00    +0.035 C 
ATOM      8  C   UNL     1      -0.773   3.123  -1.223  0.00  0.00    +0.029 C 
ATOM      9  C   UNL     1      -0.753   1.593  -1.232  0.00  0.00    -0.008 C 
ATOM     10  C   UNL     1      -0.013   1.086   0.008  0.00  0.00    +0.007 C 
ATOM     11  C   UNL     1      -0.729   1.579   1.267  0.00  0.00    -0.008 C 
ATOM     12  C   UNL     1      -0.750   3.109   1.275  0.00  0.00    +0.029 C 
ATOM     13  C   UNL     1      -2.164   1.050   1.278  0.00  0.00    +0.007 C 
ATOM     14  C   UNL     1      -2.904   1.556   0.038  0.00  0.00    -0.008 C 
ATOM     15  C   UNL     1      -2.188   1.063  -1.221  0.00  0.00    +0.007 C 
ATOM     16  C   UNL     1      -2.925   3.086   0.047  0.00  0.00    +0.029 C 
ENDBRANCH   5   7
ENDBRANCH   1   3
BRANCH   1  17
ATOM     17  S   UNL     1      -2.453   7.867  -2.624  0.00  0.00    -0.073 S 
BRANCH  17  22
ATOM     18  N   UNL     1      -2.405  10.585  -3.300  0.00  0.00    -0.277 N 
ATOM     19  C   UNL     1      -2.184  11.762  -2.636  0.00  0.00    +0.230 A 
ATOM     20  N   UNL     1      -1.935  11.464  -1.392  0.00  0.00    -0.137 NA
ATOM     21  N   UNL     1      -1.987  10.191  -1.222  0.00  0.00    -0.122 NA
ATOM     22  C   UNL     1      -2.275   9.600  -2.359  0.00  0.00    +0.197 A 
BRANCH  18  27
ATOM     23  C   UNL     1      -3.612   9.928  -8.808  0.00  0.00    +0.045 C 
ATOM     24  C   UNL     1      -3.292  10.102  -7.346  0.00  0.00    -0.032 A 
ATOM     25  C   UNL     1      -2.282   9.356  -6.767  0.00  0.00    +0.007 A 
ATOM     26  C   UNL     1      -1.983   9.518  -5.428  0.00  0.00    +0.026 A 
ATOM     27  C   UNL     1      -2.704  10.422  -4.661  0.00  0.00    +0.051 A 
ATOM     28  C   UNL     1      -3.717  11.170  -5.243  0.00  0.00    +0.046 A 
ATOM     29  C   UNL     1      -4.009  11.008  -6.585  0.00  0.00    +0.046 A 
ATOM     30 CL   UNL     1      -5.276  11.943  -7.316  0.00  0.00    -0.083 Cl
ENDBRANCH  18  27
ENDBRANCH  17  22
ENDBRANCH   1  17
TORSDOF 5
