REMARK  Name = ZINC35671686
REMARK  4 active torsions:
REMARK  status: ('A' for Active; 'I' for Inactive)
REMARK    1  A    between atoms: C_6  and  C_7
REMARK    2  A    between atoms: C_7  and  C_9
REMARK    3  A    between atoms: C_7  and  N_25
REMARK    4  A    between atoms: C_9  and  N_10
REMARK                            x       y       z     vdW  Elec       q    Type
REMARK                         _______ _______ _______ _____ _____    ______ ____
ROOT
ATOM      1  N   UNL     1      -1.772   0.033   2.179  0.00  0.00    -0.300 N 
ATOM      2  C   UNL     1      -0.658   0.511   2.797  0.00  0.00    +0.202 A 
ATOM      3  N   UNL     1      -0.671   1.537   3.585  0.00  0.00    -0.235 NA
ATOM      4  C   UNL     1      -1.827   2.229   3.858  0.00  0.00    +0.107 A 
ATOM      5  C   UNL     1      -1.975   3.356   4.694  0.00  0.00    +0.081 A 
ATOM      6  C   UNL     1      -3.242   3.878   4.814  0.00  0.00    +0.070 A 
ATOM      7  S   UNL     1      -4.260   2.859   3.795  0.00  0.00    -0.073 S 
ATOM      8  C   UNL     1      -2.992   1.752   3.228  0.00  0.00    +0.105 A 
ATOM      9  C   UNL     1      -2.960   0.651   2.381  0.00  0.00    +0.268 A 
ATOM     10  O   UNL     1      -3.976   0.250   1.836  0.00  0.00    -0.266 OA
ATOM     11  S   UNL     1      -3.662   5.266   5.800  0.00  0.00    -0.107 S 
ATOM     12  C   UNL     1      -2.334   5.230   7.050  0.00  0.00    +0.171 C 
ATOM     13  C   UNL     1      -1.044   4.839   6.387  0.00  0.00    +0.227 C 
ATOM     14  O   UNL     1      -0.036   5.376   6.795  0.00  0.00    -0.275 OA
ATOM     15  N   UNL     1      -0.896   3.963   5.396  0.00  0.00    -0.282 N 
ATOM     16  H   UNL     1       0.006   3.723   5.135  0.00  0.00    +0.155 HD
ENDROOT
BRANCH   1  17
ATOM     17  C   UNL     1      -1.686  -1.135   1.300  0.00  0.00    +0.115 C 
BRANCH  17  18
ATOM     18  C   UNL     1      -1.540  -0.671  -0.151  0.00  0.00    -0.017 C 
BRANCH  18  24
ATOM     19  C   UNL     1      -0.195   1.433  -0.323  0.00  0.00    +0.003 A 
ATOM     20  C   UNL     1       1.009   2.095  -0.475  0.00  0.00    +0.020 A 
ATOM     21  C   UNL     1       2.181   1.375  -0.624  0.00  0.00    +0.041 A 
ATOM     22  C   UNL     1       2.147  -0.009  -0.619  0.00  0.00    +0.020 A 
ATOM     23  C   UNL     1       0.943  -0.670  -0.467  0.00  0.00    +0.003 A 
ATOM     24  C   UNL     1      -0.227   0.051  -0.318  0.00  0.00    -0.059 A 
ATOM     25 CL   UNL     1       3.693   2.206  -0.817  0.00  0.00    -0.084 Cl
ENDBRANCH  18  24
BRANCH  18  26
ATOM     26  N   UNL     1      -1.575  -1.837  -1.044  0.00  0.00    +0.385 N 
ATOM     27  C   UNL     1      -2.893  -2.515  -0.950  0.00  0.00    -0.078 C 
ATOM     28  C   UNL     1      -2.981  -3.305  -2.280  0.00  0.00    -0.020 C 
ATOM     29  C   UNL     1      -2.324  -2.344  -3.297  0.00  0.00    -0.020 C 
ATOM     30  C   UNL     1      -1.442  -1.405  -2.452  0.00  0.00    -0.078 C 
ATOM     31  H   UNL     1      -0.834  -2.480  -0.806  0.00  0.00    -0.081 HD
ENDBRANCH  18  26
ENDBRANCH  17  18
ENDBRANCH   1  17
TORSDOF 4
