REMARK  Name = ZINC67286555
REMARK  10 active torsions:
REMARK  status: ('A' for Active; 'I' for Inactive)
REMARK    1  A    between atoms: C_1  and  C_2
REMARK    2  A    between atoms: C_2  and  C_3
REMARK    3  A    between atoms: C_2  and  C_4
REMARK    4  A    between atoms: C_4  and  C_6
REMARK    5  A    between atoms: C_4  and  N_21
REMARK    6  A    between atoms: N_8  and  C_9
REMARK    7  A    between atoms: C_9  and  C_10
REMARK    8  A    between atoms: C_10  and  C_11
REMARK    9  A    between atoms: C_14  and  S_17
REMARK   10  A    between atoms: S_17  and  N_20
REMARK                            x       y       z     vdW  Elec       q    Type
REMARK                         _______ _______ _______ _____ _____    ______ ____
ROOT
ATOM      1  C   UNL     1      -2.010   0.003  -1.187  0.00  0.00    +0.200 C 
ATOM      2  O   UNL     1      -2.369  -0.771  -2.049  0.00  0.00    -0.278 OA
ATOM      3  N   UNL     1      -2.188   1.329  -1.354  0.00  0.00    -0.316 N 
ATOM      4  H   UNL     1      -1.833   1.952  -0.701  0.00  0.00    +0.149 HD
ENDROOT
BRANCH   1   5
ATOM      5  C   UNL     1      -1.364  -0.518   0.071  0.00  0.00    +0.022 C 
BRANCH   5   6
ATOM      6  N   UNL     1      -1.743  -1.923   0.270  0.00  0.00    +0.387 N 
ATOM      7  C   UNL     1      -3.204  -2.026   0.368  0.00  0.00    -0.078 C 
ATOM      8  C   UNL     1      -3.608  -3.496   0.494  0.00  0.00    -0.019 C 
ATOM      9  C   UNL     1      -2.968  -4.090   1.752  0.00  0.00    -0.004 C 
ATOM     10  C   UNL     1      -1.449  -3.911   1.673  0.00  0.00    -0.019 C 
ATOM     11  C   UNL     1      -1.124  -2.425   1.503  0.00  0.00    -0.078 C 
ATOM     12  H   UNL     1      -1.421  -2.471  -0.513  0.00  0.00    -0.081 HD
ENDBRANCH   5   6
BRANCH   5  14
ATOM     13  C   UNL     1       0.614  -1.127  -1.328  0.00  0.00    +0.006 C 
ATOM     14  C   UNL     1       0.157  -0.412  -0.055  0.00  0.00    -0.022 C 
ATOM     15  C   UNL     1       0.562   1.062  -0.123  0.00  0.00    +0.006 C 
ENDBRANCH   5  14
ENDBRANCH   1   5
BRANCH   3  16
ATOM     16  C   UNL     1      -2.917   1.828  -2.522  0.00  0.00    +0.109 C 
BRANCH  16  17
ATOM     17  C   UNL     1      -2.977   3.356  -2.471  0.00  0.00    +0.054 C 
BRANCH  17  18
ATOM     18  C   UNL     1      -3.727   3.870  -3.673  0.00  0.00    -0.046 A 
ATOM     19  C   UNL     1      -3.046   4.160  -4.841  0.00  0.00    +0.005 A 
ATOM     20  C   UNL     1      -3.734   4.632  -5.943  0.00  0.00    +0.029 A 
ATOM     21  C   UNL     1      -5.103   4.812  -5.878  0.00  0.00    +0.105 A 
ATOM     22  C   UNL     1      -5.784   4.521  -4.711  0.00  0.00    +0.029 A 
ATOM     23  C   UNL     1      -5.096   4.045  -3.610  0.00  0.00    +0.005 A 
BRANCH  21  24
ATOM     24  S   UNL     1      -5.980   5.414  -7.283  0.00  0.00    +0.056 S 
ATOM     25  O   UNL     1      -7.172   6.012  -6.792  0.00  0.00    -0.153 OA
ATOM     26  O   UNL     1      -5.040   6.128  -8.073  0.00  0.00    -0.153 OA
BRANCH  24  27
ATOM     27  N   UNL     1      -6.443   4.096  -8.172  0.00  0.00    -0.204 NA
ATOM     28  H   UNL     1      -7.255   4.130  -8.703  0.00  0.00    +0.144 HD
ATOM     29  H   UNL     1      -5.903   3.291  -8.163  0.00  0.00    +0.144 HD
ENDBRANCH  24  27
ENDBRANCH  21  24
ENDBRANCH  17  18
ENDBRANCH  16  17
ENDBRANCH   3  16
TORSDOF 8
