REMARK  Name = ZINC20114630
REMARK  13 active torsions:
REMARK  status: ('A' for Active; 'I' for Inactive)
REMARK    1  A    between atoms: C_1  and  C_2
REMARK    2  A    between atoms: C_6  and  O_8
REMARK    3  A    between atoms: O_8  and  C_9
REMARK    4  A    between atoms: C_9  and  C_10
REMARK    5  A    between atoms: C_10  and  O_11
REMARK    6  A    between atoms: O_11  and  C_12
REMARK    7  A    between atoms: C_13  and  O_34
REMARK    8  A    between atoms: C_15  and  C_20
REMARK    9  A    between atoms: C_17  and  O_18
REMARK   10  A    between atoms: O_18  and  C_19
REMARK   11  A    between atoms: C_31  and  S_32
REMARK   12  A    between atoms: S_32  and  C_33
REMARK   13  A    between atoms: O_34  and  C_35
REMARK                            x       y       z     vdW  Elec       q    Type
REMARK                         _______ _______ _______ _____ _____    ______ ____
ROOT
ATOM      1  C   UNL     1      -0.817  -5.652   5.512  0.00  0.00    +0.204 A 
ATOM      2  C   UNL     1      -1.319  -6.891   5.905  0.00  0.00    +0.166 A 
ATOM      3  C   UNL     1      -1.625  -7.124   7.231  0.00  0.00    +0.057 A 
ATOM      4  C   UNL     1      -1.431  -6.112   8.182  0.00  0.00    -0.017 A 
ATOM      5  C   UNL     1      -0.926  -4.867   7.781  0.00  0.00    +0.057 A 
ATOM      6  C   UNL     1      -0.617  -4.644   6.454  0.00  0.00    +0.166 A 
ENDROOT
BRANCH   4   7
ATOM      7  C   UNL     1      -1.755  -6.354   9.590  0.00  0.00    +0.024 C 
ATOM      8  C   UNL     1      -2.850  -7.120   9.922  0.00  0.00    +0.079 C 
ATOM      9  C   UNL     1      -3.116  -7.545  11.326  0.00  0.00    +0.137 C 
ATOM     10  N   UNL     1      -2.800  -6.825  12.368  0.00  0.00    -0.284 NA
ATOM     11  N   UNL     1      -3.745  -8.804  11.415  0.00  0.00    -0.211 N 
ATOM     12  C   UNL     1      -4.463  -9.258  10.326  0.00  0.00    +0.183 C 
ATOM     13  N   UNL     1      -4.549  -8.680   9.149  0.00  0.00    -0.152 NA
ATOM     14  C   UNL     1      -3.834  -7.564   8.903  0.00  0.00    +0.273 C 
ATOM     15  O   UNL     1      -3.988  -6.935   7.869  0.00  0.00    -0.268 OA
ATOM     16  S   UNL     1      -5.140 -10.678  10.877  0.00  0.00    +0.048 S 
ATOM     17  N   UNL     1      -4.444 -10.743  12.400  0.00  0.00    -0.185 NA
ATOM     18  C   UNL     1      -3.737  -9.648  12.477  0.00  0.00    +0.175 C 
ATOM     19  H   UNL     1      -2.369  -5.964  12.250  0.00  0.00    +0.188 HD
BRANCH  18  20
ATOM     20  S   UNL     1      -2.799  -9.277  13.922  0.00  0.00    -0.093 S 
ATOM     21  C   UNL     1      -3.115 -10.682  15.024  0.00  0.00    +0.093 C 
ENDBRANCH  18  20
ENDBRANCH   4   7
BRANCH   6  22
ATOM     22  O   UNL     1      -0.122  -3.439   6.065  0.00  0.00    -0.491 OA
ATOM     23  C   UNL     1       0.057  -2.452   7.083  0.00  0.00    +0.277 C 
ENDBRANCH   6  22
BRANCH   2  24
ATOM     24  O   UNL     1      -1.507  -7.871   4.982  0.00  0.00    -0.491 OA
ATOM     25  C   UNL     1      -2.024  -9.117   5.455  0.00  0.00    +0.277 C 
ENDBRANCH   2  24
BRANCH   1  26
ATOM     26  O   UNL     1      -0.516  -5.427   4.206  0.00  0.00    -0.482 OA
BRANCH  26  27
ATOM     27  C   UNL     1       0.812  -5.741   3.783  0.00  0.00    +0.270 C 
BRANCH  27  28
ATOM     28  C   UNL     1       0.961  -5.424   2.293  0.00  0.00    +0.270 C 
BRANCH  28  29
ATOM     29  O   UNL     1       0.824  -4.016   2.090  0.00  0.00    -0.489 OA
BRANCH  29  35
ATOM     30  C   UNL     1       0.781  -0.278  -1.048  0.00  0.00    +0.044 C 
ATOM     31  C   UNL     1       0.916  -1.750  -0.755  0.00  0.00    -0.047 A 
ATOM     32  C   UNL     1       1.148  -2.642  -1.786  0.00  0.00    +0.003 A 
ATOM     33  C   UNL     1       1.272  -3.993  -1.520  0.00  0.00    +0.004 A 
ATOM     34  C   UNL     1       1.164  -4.456  -0.223  0.00  0.00    +0.045 A 
ATOM     35  C   UNL     1       0.931  -3.563   0.814  0.00  0.00    +0.121 A 
ATOM     36  C   UNL     1       0.813  -2.207   0.545  0.00  0.00    +0.049 A 
ENDBRANCH  29  35
ENDBRANCH  28  29
ENDBRANCH  27  28
ENDBRANCH  26  27
ENDBRANCH   1  26
TORSDOF 9
