REMARK  Name = ZINC39686230
REMARK  10 active torsions:
REMARK  status: ('A' for Active; 'I' for Inactive)
REMARK    1  A    between atoms: C_1  and  C_2
REMARK    2  A    between atoms: C_2  and  C_4
REMARK    3  A    between atoms: C_2  and  O_32
REMARK    4  A    between atoms: C_8  and  C_17
REMARK    5  A    between atoms: N_19  and  C_20
REMARK    6  A    between atoms: C_26  and  C_28
REMARK    7  A    between atoms: C_28  and  C_29
REMARK    8  A    between atoms: C_29  and  C_30
REMARK    9  A    between atoms: C_29  and  C_31
REMARK   10  A    between atoms: O_32  and  C_33
REMARK                            x       y       z     vdW  Elec       q    Type
REMARK                         _______ _______ _______ _____ _____    ______ ____
ROOT
ATOM      1  C   UNL     1      -1.289  -0.673   0.068  0.00  0.00    +0.256 C 
ATOM      2  O   UNL     1      -1.581  -1.108  -1.025  0.00  0.00    -0.272 OA
ATOM      3  N   UNL     1      -2.217  -0.623   1.044  0.00  0.00    -0.297 N 
ATOM      4  C   UNL     1      -2.032  -0.202   2.453  0.00  0.00    +0.121 C 
ATOM      5  C   UNL     1      -3.308   0.601   2.791  0.00  0.00    +0.100 C 
ATOM      6  C   UNL     1      -4.368   0.088   1.803  0.00  0.00    -0.004 C 
ATOM      7  C   UNL     1      -3.655  -0.970   0.949  0.00  0.00    +0.115 C 
ATOM      8  C   UNL     1      -4.861   1.228   0.917  0.00  0.00    -0.010 C 
ATOM      9  C   UNL     1      -5.956   0.705  -0.017  0.00  0.00    -0.082 C 
ATOM     10  N   UNL     1      -7.064   0.163   0.779  0.00  0.00    +0.379 N 
ATOM     11  C   UNL     1      -6.602  -0.992   1.558  0.00  0.00    -0.082 C 
ATOM     12  C   UNL     1      -5.535  -0.541   2.559  0.00  0.00    -0.010 C 
ATOM     13  H   UNL     1      -7.405   0.875   1.406  0.00  0.00    -0.086 HD
ATOM     14  H   UNL     1      -7.809  -0.125   0.163  0.00  0.00    -0.086 HD
ENDROOT
BRANCH   5  15
ATOM     15  C   UNL     1      -3.068   2.075   2.588  0.00  0.00    +0.218 C 
ATOM     16  O   UNL     1      -2.403   2.458   1.649  0.00  0.00    -0.275 OA
ATOM     17  N   UNL     1      -3.593   2.968   3.451  0.00  0.00    -0.312 N 
ATOM     18  H   UNL     1      -4.125   2.662   4.202  0.00  0.00    +0.149 HD
BRANCH  17  19
ATOM     19  C   UNL     1      -3.361   4.401   3.254  0.00  0.00    +0.076 C 
ATOM     20  C   UNL     1      -4.397   4.956   2.274  0.00  0.00    +0.041 C 
ATOM     21  C   UNL     1      -4.130   6.447   2.044  0.00  0.00    +0.109 C 
ATOM     22  N   UNL     1      -4.103   7.129   3.345  0.00  0.00    -0.301 N 
ATOM     23  C   UNL     1      -3.206   6.620   4.391  0.00  0.00    +0.109 C 
ATOM     24  C   UNL     1      -3.484   5.127   4.595  0.00  0.00    +0.041 C 
ATOM     25  C   UNL     1      -4.886   8.202   3.574  0.00  0.00    +0.216 C 
ATOM     26  O   UNL     1      -5.622   8.613   2.702  0.00  0.00    -0.276 OA
BRANCH  25  27
ATOM     27  C   UNL     1      -4.847   8.891   4.914  0.00  0.00    +0.099 C 
BRANCH  27  28
ATOM     28  C   UNL     1      -5.823  10.069   4.910  0.00  0.00    -0.008 C 
ATOM     29  C   UNL     1      -7.254   9.546   4.765  0.00  0.00    +0.008 C 
ATOM     30  C   UNL     1      -5.694  10.843   6.223  0.00  0.00    +0.008 C 
ENDBRANCH  27  28
ENDBRANCH  25  27
ENDBRANCH  17  19
ENDBRANCH   5  15
BRANCH   1  32
ATOM     31  C   UNL     1       0.104   1.333   0.499  0.00  0.00    +0.062 C 
ATOM     32  C   UNL     1       0.113  -0.188   0.336  0.00  0.00    +0.256 C 
BRANCH  32  33
ATOM     33  O   UNL     1       0.958  -0.544  -0.760  0.00  0.00    -0.480 OA
BRANCH  33  34
ATOM     34  C   UNL     1       2.285  -0.675  -0.499  0.00  0.00    +0.122 A 
ATOM     35  C   UNL     1       2.780  -0.359   0.758  0.00  0.00    +0.045 A 
ATOM     36  C   UNL     1       4.130  -0.493   1.021  0.00  0.00    +0.004 A 
ATOM     37  C   UNL     1       4.987  -0.941   0.033  0.00  0.00    +0.000 A 
ATOM     38  C   UNL     1       4.496  -1.256  -1.221  0.00  0.00    +0.004 A 
ATOM     39  C   UNL     1       3.146  -1.129  -1.487  0.00  0.00    +0.045 A 
ENDBRANCH  33  34
ENDBRANCH  32  33
ENDBRANCH   1  32
TORSDOF 7
