REMARK  Name = ZINC44854870
REMARK  11 active torsions:
REMARK  status: ('A' for Active; 'I' for Inactive)
REMARK    1  A    between atoms: C_1  and  C_2
REMARK    2  A    between atoms: C_2  and  C_4
REMARK    3  A    between atoms: C_2  and  N_16
REMARK    4  A    between atoms: C_7  and  N_10
REMARK    5  A    between atoms: C_17  and  C_19
REMARK    6  A    between atoms: N_22  and  S_34
REMARK    7  A    between atoms: C_25  and  C_30
REMARK    8  A    between atoms: C_30  and  C_31
REMARK    9  A    between atoms: C_30  and  C_32
REMARK   10  A    between atoms: C_30  and  C_33
REMARK   11  A    between atoms: S_34  and  C_37
REMARK                            x       y       z     vdW  Elec       q    Type
REMARK                         _______ _______ _______ _____ _____    ______ ____
ROOT
ATOM      1  N   UNL     1       0.700  -0.505   1.189  0.00  0.00    -0.306 N 
ATOM      2  C   UNL     1       0.034  -0.649   2.352  0.00  0.00    +0.256 C 
ATOM      3  O   UNL     1      -1.143  -0.364   2.415  0.00  0.00    -0.272 OA
ATOM      4  H   UNL     1       1.641  -0.733   1.138  0.00  0.00    +0.149 HD
ENDROOT
BRANCH   2   5
ATOM      5  C   UNL     1       0.751  -1.164   3.572  0.00  0.00    +0.277 C 
ATOM      6  C   UNL     1       1.824  -0.154   4.003  0.00  0.00    +0.185 C 
ATOM      7  N   UNL     1       2.463  -0.675   5.224  0.00  0.00    -0.200 N 
ATOM      8  C   UNL     1       1.633  -1.249   6.200  0.00  0.00    +0.093 A 
ATOM      9  C   UNL     1       2.124  -1.493   7.473  0.00  0.00    +0.032 A 
ATOM     10  C   UNL     1       1.304  -2.061   8.430  0.00  0.00    -0.040 A 
ATOM     11  C   UNL     1      -0.004  -2.385   8.118  0.00  0.00    +0.008 A 
ATOM     12  C   UNL     1      -0.499  -2.142   6.851  0.00  0.00    +0.048 A 
ATOM     13  C   UNL     1       0.316  -1.572   5.884  0.00  0.00    +0.144 A 
ATOM     14  O   UNL     1      -0.182  -1.333   4.642  0.00  0.00    -0.476 OA
BRANCH  10  15
ATOM     15  C   UNL     1       1.835  -2.327   9.815  0.00  0.00    -0.013 C 
ATOM     16  C   UNL     1       2.287  -1.010  10.450  0.00  0.00    +0.015 C 
ATOM     17  C   UNL     1       0.734  -2.954  10.672  0.00  0.00    +0.015 C 
ATOM     18  C   UNL     1       3.024  -3.286   9.730  0.00  0.00    +0.015 C 
ENDBRANCH  10  15
BRANCH   7  19
ATOM     19  S   UNL     1       4.103  -0.589   5.437  0.00  0.00    +0.043 S 
ATOM     20  O   UNL     1       4.410  -1.659   6.320  0.00  0.00    -0.155 OA
ATOM     21  O   UNL     1       4.638  -0.559   4.121  0.00  0.00    -0.155 OA
ATOM     22  C   UNL     1       4.382   1.002   6.262  0.00  0.00    +0.218 C 
ENDBRANCH   7  19
ENDBRANCH   2   5
BRANCH   1  24
ATOM     23  C   UNL     1      -0.002   1.526   0.020  0.00  0.00    +0.033 C 
ATOM     24  C   UNL     1       0.002  -0.004   0.002  0.00  0.00    +0.100 C 
BRANCH  24  25
ATOM     25  C   UNL     1       0.708  -0.490  -1.238  0.00  0.00    -0.027 A 
ATOM     26  C   UNL     1       2.089  -0.525  -1.276  0.00  0.00    +0.007 A 
ATOM     27  C   UNL     1       2.739  -0.970  -2.411  0.00  0.00    +0.023 A 
ATOM     28  C   UNL     1       2.003  -1.382  -3.514  0.00  0.00    +0.030 A 
ATOM     29  C   UNL     1       0.615  -1.346  -3.472  0.00  0.00    +0.023 A 
ATOM     30  C   UNL     1      -0.029  -0.905  -2.333  0.00  0.00    +0.007 A 
BRANCH  28  31
ATOM     31  N   UNL     1       2.656  -1.832  -4.664  0.00  0.00    -0.330 N 
ATOM     32  C   UNL     1       1.893  -2.384  -5.792  0.00  0.00    +0.105 C 
ATOM     33  C   UNL     1       2.287  -1.632  -7.067  0.00  0.00    +0.019 C 
ATOM     34  C   UNL     1       3.805  -1.697  -7.245  0.00  0.00    +0.003 C 
ATOM     35  C   UNL     1       4.489  -1.019  -6.055  0.00  0.00    +0.019 C 
ATOM     36  C   UNL     1       4.120  -1.758  -4.770  0.00  0.00    +0.105 C 
ENDBRANCH  28  31
ENDBRANCH  24  25
ENDBRANCH   1  24
TORSDOF 6
