REMARK  Name = ZINC46955155
REMARK  9 active torsions:
REMARK  status: ('A' for Active; 'I' for Inactive)
REMARK    1  A    between atoms: C_1  and  C_2
REMARK    2  A    between atoms: N_6  and  C_8
REMARK    3  A    between atoms: C_8  and  C_9
REMARK    4  A    between atoms: C_8  and  C_10
REMARK    5  A    between atoms: C_10  and  N_11
REMARK    6  A    between atoms: C_12  and  C_14
REMARK    7  A    between atoms: C_14  and  N_15
REMARK    8  A    between atoms: N_18  and  C_19
REMARK    9  A    between atoms: C_19  and  C_20
REMARK                            x       y       z     vdW  Elec       q    Type
REMARK                         _______ _______ _______ _____ _____    ______ ____
ROOT
ATOM      1  N   UNL     1       3.070  -0.566   2.172  0.00  0.00    -0.316 N 
ATOM      2  C   UNL     1       4.250   0.042   1.936  0.00  0.00    +0.230 C 
ATOM      3  O   UNL     1       5.252  -0.622   1.773  0.00  0.00    -0.274 OA
ATOM      4  H   UNL     1       2.268  -0.035   2.302  0.00  0.00    +0.149 HD
ENDROOT
BRANCH   1   5
ATOM      5  C   UNL     1       2.998  -2.028   2.232  0.00  0.00    +0.089 C 
BRANCH   5   6
ATOM      6  C   UNL     1       1.538  -2.461   2.374  0.00  0.00    -0.054 C 
ATOM      7  C   UNL     1       1.452  -3.988   2.319  0.00  0.00    -0.012 C 
BRANCH   6  13
ATOM      8  C   UNL     1      -2.990  -1.831   0.622  0.00  0.00    +0.005 C 
ATOM      9  C   UNL     1      -1.509  -1.518   0.397  0.00  0.00    -0.031 C 
ATOM     10  C   UNL     1      -1.074  -2.058  -0.969  0.00  0.00    -0.001 C 
ATOM     11  C   UNL     1       0.426  -1.810  -1.151  0.00  0.00    -0.018 C 
ATOM     12  C   UNL     1       1.190  -2.464   0.003  0.00  0.00    -0.078 C 
ATOM     13  N   UNL     1       0.748  -1.886   1.277  0.00  0.00    +0.383 N 
ATOM     14  C   UNL     1      -0.674  -2.183   1.492  0.00  0.00    -0.075 C 
ATOM     15  H   UNL     1       0.882  -0.887   1.257  0.00  0.00    -0.081 HD
ENDBRANCH   6  13
ENDBRANCH   5   6
ENDBRANCH   1   5
BRANCH   2  16
ATOM     16  C   UNL     1       4.323   1.546   1.874  0.00  0.00    +0.201 C 
BRANCH  16  17
ATOM     17  N   UNL     1       5.704   1.956   1.607  0.00  0.00    -0.291 N 
ATOM     18  C   UNL     1       6.011   3.265   1.508  0.00  0.00    +0.300 C 
ATOM     19  O   UNL     1       5.141   4.105   1.641  0.00  0.00    -0.253 OA
ATOM     20  N   UNL     1       7.281   3.643   1.263  0.00  0.00    -0.295 N 
ATOM     21  H   UNL     1       6.397   1.286   1.501  0.00  0.00    +0.151 HD
ATOM     22  H   UNL     1       7.974   2.973   1.157  0.00  0.00    +0.151 HD
BRANCH  20  23
ATOM     23  C   UNL     1       7.614   5.066   1.156  0.00  0.00    +0.141 C 
BRANCH  23  24
ATOM     24  C   UNL     1       9.088   5.217   0.880  0.00  0.00    -0.030 A 
ATOM     25  C   UNL     1       9.981   5.318   1.931  0.00  0.00    +0.008 A 
ATOM     26  C   UNL     1      11.332   5.456   1.679  0.00  0.00    +0.038 A 
ATOM     27  C   UNL     1      11.793   5.493   0.374  0.00  0.00    +0.123 A 
ATOM     28  C   UNL     1      10.898   5.391  -0.678  0.00  0.00    +0.038 A 
ATOM     29  C   UNL     1       9.547   5.248  -0.423  0.00  0.00    +0.008 A 
ATOM     30  F   UNL     1      13.114   5.628   0.127  0.00  0.00    -0.205 F 
ENDBRANCH  23  24
ENDBRANCH  20  23
ENDBRANCH  16  17
ENDBRANCH   2  16
TORSDOF 7
