REMARK  Name = ZINC40547760
REMARK  7 active torsions:
REMARK  status: ('A' for Active; 'I' for Inactive)
REMARK    1  A    between atoms: C_1  and  C_2
REMARK    2  A    between atoms: C_2  and  C_3
REMARK    3  A    between atoms: C_2  and  C_4
REMARK    4  A    between atoms: C_7  and  C_10
REMARK    5  A    between atoms: C_13  and  C_29
REMARK    6  A    between atoms: N_20  and  C_21
REMARK    7  A    between atoms: C_34  and  O_35
REMARK                            x       y       z     vdW  Elec       q    Type
REMARK                         _______ _______ _______ _____ _____    ______ ____
ROOT
ATOM      1  C   UNL     1      -5.377  -2.009   0.024  0.00  0.00    +0.142 C 
ATOM      2  C   UNL     1      -5.406  -3.479   0.342  0.00  0.00    +0.035 A 
ATOM      3  C   UNL     1      -5.107  -4.494   1.258  0.00  0.00    +0.102 A 
ATOM      4  N   UNL     1      -5.490  -5.635   0.721  0.00  0.00    -0.173 NA
ATOM      5  N   UNL     1      -6.001  -5.442  -0.443  0.00  0.00    -0.272 N 
ATOM      6  H   UNL     1      -6.350  -6.139  -1.021  0.00  0.00    +0.189 HD
ATOM      7  C   UNL     1      -5.980  -4.110  -0.745  0.00  0.00    +0.126 A 
ATOM      8  C   UNL     1      -6.320  -3.095  -1.748  0.00  0.00    +0.266 C 
ATOM      9  O   UNL     1      -6.840  -3.327  -2.822  0.00  0.00    -0.268 OA
ATOM     10  N   UNL     1      -5.974  -1.869  -1.311  0.00  0.00    -0.280 N 
ENDROOT
BRANCH  10  11
ATOM     11  C   UNL     1      -6.159  -0.612  -2.040  0.00  0.00    +0.100 C 
ATOM     12  C   UNL     1      -5.396  -0.678  -3.373  0.00  0.00    +0.047 C 
ATOM     13  C   UNL     1      -5.858   0.518  -4.255  0.00  0.00    +0.168 C 
ATOM     14  S   UNL     1      -7.667   0.515  -3.907  0.00  0.00    -0.029 S 
ATOM     15  O   UNL     1      -8.325  -0.278  -4.886  0.00  0.00    -0.174 OA
ATOM     16  O   UNL     1      -8.098   1.851  -3.684  0.00  0.00    -0.174 OA
ATOM     17  C   UNL     1      -7.668  -0.391  -2.307  0.00  0.00    +0.188 C 
ENDBRANCH  10  11
BRANCH   1  21
ATOM     18  C   UNL     1      -1.348  -0.591  -0.012  0.00  0.00    -0.045 A 
ATOM     19  C   UNL     1      -1.786  -1.454  -0.999  0.00  0.00    +0.004 A 
ATOM     20  C   UNL     1      -3.089  -1.913  -0.987  0.00  0.00    +0.006 A 
ATOM     21  C   UNL     1      -3.955  -1.510   0.012  0.00  0.00    -0.022 A 
ATOM     22  C   UNL     1      -3.518  -0.647   0.999  0.00  0.00    +0.006 A 
ATOM     23  C   UNL     1      -2.213  -0.191   0.990  0.00  0.00    +0.004 A 
BRANCH  18  25
ATOM     24  C   UNL     1       1.033  -1.278   0.065  0.00  0.00    +0.012 C 
ATOM     25  C   UNL     1       0.073  -0.090  -0.024  0.00  0.00    +0.013 C 
ATOM     26  C   UNL     1       0.332   0.679  -1.322  0.00  0.00    +0.012 C 
ENDBRANCH  18  25
ENDBRANCH   1  21
BRANCH   3  27
ATOM     27  C   UNL     1      -4.475  -4.318   2.589  0.00  0.00    +0.044 A 
ATOM     28  C   UNL     1      -4.239  -3.039   3.087  0.00  0.00    +0.014 A 
ATOM     29  C   UNL     1      -3.651  -2.880   4.326  0.00  0.00    +0.001 A 
ATOM     30  C   UNL     1      -3.294  -3.987   5.075  0.00  0.00    +0.004 A 
ATOM     31  C   UNL     1      -3.523  -5.261   4.589  0.00  0.00    +0.046 A 
ATOM     32  C   UNL     1      -4.119  -5.434   3.350  0.00  0.00    +0.126 A 
BRANCH  32  33
ATOM     33  O   UNL     1      -4.351  -6.686   2.875  0.00  0.00    -0.506 OA
ATOM     34  H   UNL     1      -3.620  -7.052   2.358  0.00  0.00    +0.292 HD
ENDBRANCH  32  33
ENDBRANCH   3  27
TORSDOF 5
