REMARK  Name = ZINC14023296
REMARK  9 active torsions:
REMARK  status: ('A' for Active; 'I' for Inactive)
REMARK    1  A    between atoms: C_1  and  C_2
REMARK    2  A    between atoms: C_2  and  N_62
REMARK    3  A    between atoms: C_8  and  N_14
REMARK    4  A    between atoms: C_9  and  C_10
REMARK    5  A    between atoms: C_10  and  O_12
REMARK    6  A    between atoms: O_12  and  C_13
REMARK    7  A    between atoms: C_15  and  C_17
REMARK    8  A    between atoms: N_22  and  S_24
REMARK    9  A    between atoms: S_24  and  C_27
REMARK                            x       y       z     vdW  Elec       q    Type
REMARK                         _______ _______ _______ _____ _____    ______ ____
ROOT
ATOM      1  N   UNL     1      -2.090  -0.348   3.968  0.00  0.00    -0.279 N 
ATOM      2  C   UNL     1      -2.213  -0.938   5.173  0.00  0.00    +0.222 C 
ATOM      3  O   UNL     1      -2.885  -0.416   6.037  0.00  0.00    -0.275 OA
ATOM      4  H   UNL     1      -1.552  -0.765   3.276  0.00  0.00    +0.155 HD
ENDROOT
BRANCH   1  10
ATOM      5  C   UNL     1      -4.802   4.705   1.583  0.00  0.00    -0.074 C 
ATOM      6  C   UNL     1      -3.596   3.789   1.355  0.00  0.00    +0.018 C 
ATOM      7  C   UNL     1      -3.482   2.845   2.546  0.00  0.00    -0.025 A 
ATOM      8  C   UNL     1      -4.130   3.127   3.699  0.00  0.00    -0.021 A 
ATOM      9  S   UNL     1      -3.736   1.783   4.779  0.00  0.00    -0.079 S 
ATOM     10  C   UNL     1      -2.731   0.855   3.715  0.00  0.00    +0.086 A 
ATOM     11  C   UNL     1      -2.724   1.608   2.547  0.00  0.00    +0.091 A 
ATOM     12  C   UNL     1      -4.980   4.329   3.970  0.00  0.00    -0.035 C 
ATOM     13  N   UNL     1      -4.695   5.333   2.916  0.00  0.00    +0.383 N 
ATOM     14  H   UNL     1      -3.740   5.688   3.043  0.00  0.00    -0.081 HD
BRANCH  13  16
ATOM     15  C   UNL     1      -7.071   5.988   2.733  0.00  0.00    -0.017 C 
ATOM     16  C   UNL     1      -5.645   6.461   3.022  0.00  0.00    -0.082 C 
ENDBRANCH  13  16
BRANCH  11  17
ATOM     17  C   UNL     1      -1.976   1.173   1.366  0.00  0.00    +0.342 C 
ATOM     18  O   UNL     1      -2.512   0.469   0.532  0.00  0.00    -0.245 OA
BRANCH  17  19
ATOM     19  O   UNL     1      -0.692   1.554   1.203  0.00  0.00    -0.464 OA
ATOM     20  C   UNL     1      -0.013   1.086   0.008  0.00  0.00    +0.280 C 
ENDBRANCH  17  19
ENDBRANCH  11  17
ENDBRANCH   1  10
BRANCH   2  21
ATOM     21  C   UNL     1      -1.516  -2.245   5.448  0.00  0.00    +0.091 C 
ATOM     22  C   UNL     1      -2.018  -3.307   4.468  0.00  0.00    +0.015 C 
ATOM     23  C   UNL     1      -1.287  -4.627   4.724  0.00  0.00    +0.018 C 
ATOM     24  C   UNL     1      -1.586  -5.104   6.149  0.00  0.00    +0.109 C 
ATOM     25  N   UNL     1      -1.240  -4.029   7.089  0.00  0.00    -0.176 NA
ATOM     26  C   UNL     1      -1.818  -2.695   6.881  0.00  0.00    +0.122 C 
BRANCH  25  27
ATOM     27  S   UNL     1      -0.219  -4.317   8.361  0.00  0.00    +0.061 S 
ATOM     28  O   UNL     1       0.576  -5.437   7.997  0.00  0.00    -0.153 OA
ATOM     29  O   UNL     1       0.348  -3.064   8.718  0.00  0.00    -0.153 OA
BRANCH  27  30
ATOM     30  C   UNL     1      -1.214  -4.827   9.723  0.00  0.00    +0.106 A 
ATOM     31  C   UNL     1      -1.709  -3.886  10.607  0.00  0.00    +0.031 A 
ATOM     32  C   UNL     1      -2.493  -4.285  11.673  0.00  0.00    +0.040 A 
ATOM     33  C   UNL     1      -2.774  -5.627  11.861  0.00  0.00    +0.124 A 
ATOM     34  C   UNL     1      -2.273  -6.569  10.978  0.00  0.00    +0.040 A 
ATOM     35  C   UNL     1      -1.494  -6.168   9.910  0.00  0.00    +0.031 A 
ATOM     36  F   UNL     1      -3.537  -6.018  12.906  0.00  0.00    -0.205 F 
ENDBRANCH  27  30
ENDBRANCH  25  27
ENDBRANCH   2  21
TORSDOF 7
