REMARK  Name = ZINC13134566
REMARK  13 active torsions:
REMARK  status: ('A' for Active; 'I' for Inactive)
REMARK    1  A    between atoms: C_1  and  C_2
REMARK    2  A    between atoms: C_4  and  C_38
REMARK    3  A    between atoms: C_5  and  N_9
REMARK    4  A    between atoms: C_6  and  C_8
REMARK    5  A    between atoms: C_10  and  C_12
REMARK    6  A    between atoms: C_12  and  C_13
REMARK    7  A    between atoms: C_13  and  C_14
REMARK    8  A    between atoms: C_14  and  O_15
REMARK    9  A    between atoms: O_15  and  C_16
REMARK   10  A    between atoms: C_16  and  C_18
REMARK   11  A    between atoms: C_22  and  S_24
REMARK   12  A    between atoms: S_24  and  N_27
REMARK   13  A    between atoms: C_35  and  C_37
REMARK                            x       y       z     vdW  Elec       q    Type
REMARK                         _______ _______ _______ _____ _____    ______ ____
ROOT
ATOM      1  C   UNL     1       0.294   4.098  -3.001  0.00  0.00    +0.339 C 
ATOM      2  O   UNL     1      -0.902   4.117  -3.211  0.00  0.00    -0.245 OA
ENDROOT
BRANCH   1   3
ATOM      3  C   UNL     1       1.234   4.573  -4.037  0.00  0.00    +0.061 A 
ATOM      4  C   UNL     1       2.610   4.558  -3.797  0.00  0.00    +0.015 A 
ATOM      5  C   UNL     1       3.481   4.997  -4.771  0.00  0.00    +0.003 A 
ATOM      6  C   UNL     1       2.995   5.463  -5.980  0.00  0.00    +0.029 A 
ATOM      7  C   UNL     1       1.633   5.486  -6.223  0.00  0.00    +0.110 A 
ATOM      8  C   UNL     1       0.750   5.044  -5.259  0.00  0.00    +0.043 A 
BRANCH   7   9
ATOM      9  S   UNL     1       1.025   6.081  -7.766  0.00  0.00    +0.075 S 
ATOM     10  O   UNL     1       2.080   5.927  -8.705  0.00  0.00    -0.150 OA
ATOM     11  O   UNL     1      -0.254   5.491  -7.953  0.00  0.00    -0.150 OA
BRANCH   9  12
ATOM     12  N   UNL     1       0.775   7.710  -7.598  0.00  0.00    -0.200 N 
ATOM     13  C   UNL     1       1.726   8.696  -7.863  0.00  0.00    +0.055 A 
ATOM     14  C   UNL     1       3.043   8.559  -8.307  0.00  0.00    +0.025 A 
ATOM     15  C   UNL     1       3.827   9.675  -8.510  0.00  0.00    +0.002 A 
ATOM     16  C   UNL     1       3.316  10.938  -8.275  0.00  0.00    +0.000 A 
ATOM     17  C   UNL     1       2.014  11.081  -7.834  0.00  0.00    +0.005 A 
ATOM     18  C   UNL     1       1.223   9.967  -7.630  0.00  0.00    -0.023 A 
ATOM     19  C   UNL     1      -0.208   9.839  -7.161  0.00  0.00    +0.061 C 
ATOM     20  C   UNL     1      -0.479   8.325  -7.156  0.00  0.00    +0.099 C 
ATOM     21  C   UNL     1      -0.832   7.856  -5.743  0.00  0.00    +0.030 C 
ENDBRANCH   9  12
ENDBRANCH   7   9
ENDBRANCH   1   3
BRANCH   1  22
ATOM     22  O   UNL     1       0.764   3.644  -1.823  0.00  0.00    -0.461 OA
BRANCH  22  23
ATOM     23  C   UNL     1      -0.216   3.193  -0.851  0.00  0.00    +0.233 C 
BRANCH  23  24
ATOM     24  C   UNL     1       0.501   2.717   0.414  0.00  0.00    +0.050 C 
BRANCH  24  25
ATOM     25  C   UNL     1      -0.533   2.243   1.437  0.00  0.00    +0.099 C 
BRANCH  25  27
ATOM     26  N   UNL     1      -0.540   1.308   3.728  0.00  0.00    -0.285 N 
ATOM     27  C   UNL     1       0.173   1.774   2.683  0.00  0.00    +0.217 C 
ATOM     28  O   UNL     1       1.384   1.815   2.747  0.00  0.00    -0.275 OA
ATOM     29  H   UNL     1      -1.510   1.324   3.698  0.00  0.00    +0.155 HD
BRANCH  26  34
ATOM     30  C   UNL     1       2.123  -0.744   8.297  0.00  0.00    +0.044 C 
ATOM     31  C   UNL     1       1.416  -0.199   7.083  0.00  0.00    -0.050 A 
ATOM     32  C   UNL     1       0.445   0.775   7.230  0.00  0.00    +0.008 A 
ATOM     33  C   UNL     1      -0.205   1.277   6.120  0.00  0.00    -0.029 A 
ATOM     34  C   UNL     1       0.117   0.803   4.855  0.00  0.00    +0.039 A 
ATOM     35  C   UNL     1       1.089  -0.179   4.711  0.00  0.00    -0.029 A 
ATOM     36  C   UNL     1       1.739  -0.673   5.825  0.00  0.00    +0.008 A 
ATOM     37  C   UNL     1       1.438  -0.700   3.341  0.00  0.00    +0.045 C 
ATOM     38  C   UNL     1      -1.263   2.338   6.280  0.00  0.00    +0.045 C 
ENDBRANCH  26  34
ENDBRANCH  25  27
ENDBRANCH  24  25
ENDBRANCH  23  24
ENDBRANCH  22  23
ENDBRANCH   1  22
TORSDOF 9
