REMARK  Name = ZINC59310641
REMARK  7 active torsions:
REMARK  status: ('A' for Active; 'I' for Inactive)
REMARK    1  A    between atoms: C_1  and  C_2
REMARK    2  A    between atoms: C_2  and  C_22
REMARK    3  A    between atoms: N_3  and  N_4
REMARK    4  A    between atoms: C_7  and  S_10
REMARK    5  A    between atoms: S_10  and  C_11
REMARK    6  A    between atoms: C_11  and  C_12
REMARK    7  A    between atoms: N_14  and  C_15
REMARK                            x       y       z     vdW  Elec       q    Type
REMARK                         _______ _______ _______ _____ _____    ______ ____
ROOT
ATOM      1  N   UNL     1       0.049   0.045   2.325  0.00  0.00    -0.205 N 
ATOM      2  C   UNL     1       0.067  -0.653   3.519  0.00  0.00    +0.232 A 
ATOM      3  N   UNL     1       0.082  -1.963   3.649  0.00  0.00    -0.186 NA
ATOM      4  C   UNL     1       0.097  -2.286   4.947  0.00  0.00    +0.211 A 
ATOM      5  N   UNL     1       0.090  -1.185   5.660  0.00  0.00    -0.144 NA
ATOM      6  N   UNL     1       0.077  -0.111   4.755  0.00  0.00    -0.245 N 
ATOM      7  H   UNL     1       0.043   1.015   2.330  0.00  0.00    +0.177 HD
ATOM      8  H   UNL     1       0.073   0.834   4.975  0.00  0.00    +0.192 HD
ENDROOT
BRANCH   1  11
ATOM      9  C   UNL     1       0.014   1.504   0.011  0.00  0.00    +0.063 C 
ATOM     10  C   UNL     1       0.023  -0.003   0.002  0.00  0.00    +0.040 C 
ATOM     11  N   UNL     1       0.040  -0.649   1.107  0.00  0.00    -0.189 NA
BRANCH  10  12
ATOM     12  C   UNL     1       0.013  -0.749  -1.307  0.00  0.00    +0.011 C 
ATOM     13  C   UNL     1       1.251  -0.367  -2.121  0.00  0.00    +0.016 C 
ATOM     14  C   UNL     1       1.241  -1.125  -3.450  0.00  0.00    -0.010 C 
ATOM     15  C   UNL     1       1.254  -2.631  -3.179  0.00  0.00    +0.007 C 
ATOM     16  C   UNL     1       0.016  -3.013  -2.365  0.00  0.00    -0.010 C 
ATOM     17  C   UNL     1       0.026  -2.255  -1.036  0.00  0.00    +0.016 C 
ATOM     18  C   UNL     1      -1.244  -2.646  -3.151  0.00  0.00    +0.007 C 
ATOM     19  C   UNL     1      -1.257  -1.141  -3.422  0.00  0.00    -0.010 C 
ATOM     20  C   UNL     1      -0.019  -0.759  -4.236  0.00  0.00    +0.007 C 
ATOM     21  C   UNL     1      -1.247  -0.383  -2.093  0.00  0.00    +0.016 C 
ENDBRANCH  10  12
ENDBRANCH   1  11
BRANCH   4  22
ATOM     22  S   UNL     1       0.119  -3.924   5.594  0.00  0.00    -0.075 S 
BRANCH  22  23
ATOM     23  C   UNL     1       0.132  -3.686   7.393  0.00  0.00    +0.173 C 
BRANCH  23  24
ATOM     24  C   UNL     1       0.152  -5.028   8.077  0.00  0.00    +0.227 C 
ATOM     25  O   UNL     1       0.158  -6.045   7.417  0.00  0.00    -0.275 OA
ATOM     26  N   UNL     1       0.165  -5.098   9.423  0.00  0.00    -0.285 N 
ATOM     27  H   UNL     1       0.228  -4.286   9.950  0.00  0.00    +0.155 HD
BRANCH  26  28
ATOM     28  C   UNL     1       0.086  -6.342  10.060  0.00  0.00    +0.033 A 
ATOM     29  C   UNL     1      -0.605  -6.467  11.258  0.00  0.00    +0.025 A 
ATOM     30  C   UNL     1      -0.682  -7.695  11.885  0.00  0.00    +0.022 A 
ATOM     31  C   UNL     1      -0.071  -8.801  11.320  0.00  0.00    +0.041 A 
ATOM     32  C   UNL     1       0.619  -8.679  10.126  0.00  0.00    +0.022 A 
ATOM     33  C   UNL     1       0.693  -7.454   9.492  0.00  0.00    +0.025 A 
ATOM     34 CL   UNL     1      -0.168 -10.343  12.110  0.00  0.00    -0.084 Cl
ENDBRANCH  26  28
ENDBRANCH  23  24
ENDBRANCH  22  23
ENDBRANCH   4  22
TORSDOF 6
