REMARK  Name = ZINC36271934
REMARK  6 active torsions:
REMARK  status: ('A' for Active; 'I' for Inactive)
REMARK    1  A    between atoms: C_1  and  C_2
REMARK    2  A    between atoms: C_7  and  C_30
REMARK    3  A    between atoms: N_9  and  C_10
REMARK    4  A    between atoms: C_10  and  C_11
REMARK    5  A    between atoms: C_12  and  C_21
REMARK    6  A    between atoms: C_17  and  N_20
REMARK                            x       y       z     vdW  Elec       q    Type
REMARK                         _______ _______ _______ _____ _____    ______ ____
ROOT
ATOM      1  C   UNL     1       1.528  -0.113   3.701  0.00  0.00    +0.035 A 
ATOM      2  C   UNL     1       1.551  -1.350   4.271  0.00  0.00    +0.091 A 
ATOM      3  N   UNL     1       2.231  -1.270   5.425  0.00  0.00    -0.228 NA
ATOM      4  C   UNL     1       2.639  -0.021   5.602  0.00  0.00    +0.138 A 
ATOM      5  N   UNL     1       2.217   0.725   4.533  0.00  0.00    -0.303 N 
ATOM      6  C   UNL     1       2.510   2.059   4.460  0.00  0.00    +0.115 A 
ATOM      7  C   UNL     1       3.225   2.662   5.440  0.00  0.00    +0.041 A 
ATOM      8  C   UNL     1       3.675   1.916   6.548  0.00  0.00    +0.028 A 
ATOM      9  C   UNL     1       3.380   0.592   6.633  0.00  0.00    +0.048 A 
ENDROOT
BRANCH   2  10
ATOM     10  C   UNL     1       0.929  -2.576   3.712  0.00  0.00    +0.006 A 
ATOM     11  C   UNL     1      -0.345  -2.519   3.151  0.00  0.00    +0.014 A 
ATOM     12  C   UNL     1      -0.923  -3.659   2.631  0.00  0.00    +0.050 A 
ATOM     13  C   UNL     1      -0.239  -4.865   2.665  0.00  0.00    +0.166 A 
ATOM     14  C   UNL     1       1.036  -4.928   3.224  0.00  0.00    +0.167 A 
ATOM     15  C   UNL     1       1.621  -3.785   3.741  0.00  0.00    +0.059 A 
ATOM     16  O   UNL     1       1.489  -6.213   3.135  0.00  0.00    -0.453 OA
ATOM     17  C   UNL     1       0.319  -7.016   2.889  0.00  0.00    +0.466 C 
ATOM     18  O   UNL     1      -0.584  -6.111   2.226  0.00  0.00    -0.453 OA
ENDBRANCH   2  10
BRANCH   7  19
ATOM     19  N   UNL     1       3.519   4.029   5.352  0.00  0.00    -0.357 N 
ATOM     20  H   UNL     1       3.210   4.543   4.589  0.00  0.00    +0.142 HD
ATOM     21  H   UNL     1       4.031   4.462   6.053  0.00  0.00    +0.142 HD
ENDBRANCH   7  19
BRANCH   1  22
ATOM     22  C   UNL     1       0.872   0.261   2.397  0.00  0.00    -0.021 C 
BRANCH  22  29
ATOM     23  C   UNL     1      -1.179  -0.363   0.584  0.00  0.00    -0.013 C 
ATOM     24  C   UNL     1      -1.187   0.945   1.378  0.00  0.00    -0.071 C 
ATOM     25  C   UNL     1      -2.632   1.371   1.644  0.00  0.00    -0.016 C 
ATOM     26  C   UNL     1      -2.635   2.680   2.439  0.00  0.00    -0.003 C 
ATOM     27  C   UNL     1      -1.841   2.482   3.733  0.00  0.00    -0.016 C 
ATOM     28  C   UNL     1      -0.425   2.014   3.390  0.00  0.00    -0.071 C 
ATOM     29  N   UNL     1      -0.490   0.746   2.655  0.00  0.00    +0.387 N 
ATOM     30  C   UNL     1       0.264   3.070   2.525  0.00  0.00    -0.013 C 
ATOM     31  H   UNL     1      -0.989   0.063   3.206  0.00  0.00    -0.081 HD
ENDBRANCH  22  29
ENDBRANCH   1  22
TORSDOF 4
