REMARK  Name = ZINC65453867
REMARK  9 active torsions:
REMARK  status: ('A' for Active; 'I' for Inactive)
REMARK    1  A    between atoms: C_1  and  C_2
REMARK    2  A    between atoms: C_3  and  C_29
REMARK    3  A    between atoms: C_9  and  C_12
REMARK    4  A    between atoms: C_12  and  N_13
REMARK    5  A    between atoms: N_16  and  C_17
REMARK    6  A    between atoms: C_21  and  N_23
REMARK    7  A    between atoms: C_24  and  C_26
REMARK    8  A    between atoms: C_26  and  C_27
REMARK    9  A    between atoms: C_26  and  C_28
REMARK                            x       y       z     vdW  Elec       q    Type
REMARK                         _______ _______ _______ _____ _____    ______ ____
ROOT
ATOM      1  N   UNL     1      -1.332  -1.433   5.397  0.00  0.00    -0.295 N 
ATOM      2  C   UNL     1      -1.566  -1.228   6.708  0.00  0.00    +0.304 C 
ATOM      3  O   UNL     1      -0.634  -1.103   7.480  0.00  0.00    -0.252 OA
ATOM      4  N   UNL     1      -2.832  -1.161   7.164  0.00  0.00    -0.269 N 
ATOM      5  H   UNL     1      -2.075  -1.533   4.781  0.00  0.00    +0.151 HD
ATOM      6  H   UNL     1      -3.575  -1.193   6.541  0.00  0.00    +0.156 HD
ENDROOT
BRANCH   4   7
ATOM      7  C   UNL     1      -3.076  -1.045   8.538  0.00  0.00    +0.037 A 
ATOM      8  C   UNL     1      -4.179  -1.672   9.103  0.00  0.00    +0.023 A 
ATOM      9  C   UNL     1      -4.421  -1.558  10.459  0.00  0.00    +0.004 A 
ATOM     10  C   UNL     1      -3.567  -0.820  11.256  0.00  0.00    +0.023 A 
ATOM     11  C   UNL     1      -2.462  -0.191  10.696  0.00  0.00    +0.035 A 
ATOM     12  C   UNL     1      -2.213  -0.308   9.336  0.00  0.00    +0.046 A 
BRANCH  11  13
ATOM     13  N   UNL     1      -1.598   0.557  11.504  0.00  0.00    -0.285 N 
ATOM     14  C   UNL     1      -1.348   0.164  12.769  0.00  0.00    +0.220 C 
ATOM     15  O   UNL     1      -1.936  -0.790  13.234  0.00  0.00    -0.275 OA
ATOM     16  H   UNL     1      -1.178   1.358  11.154  0.00  0.00    +0.155 HD
BRANCH  14  17
ATOM     17  C   UNL     1      -0.339   0.908  13.604  0.00  0.00    +0.069 C 
ATOM     18  C   UNL     1      -0.775   2.367  13.750  0.00  0.00    +0.017 C 
ATOM     19  C   UNL     1      -0.247   0.262  14.988  0.00  0.00    +0.017 C 
ENDBRANCH  14  17
ENDBRANCH  11  13
ENDBRANCH   4   7
BRANCH   1  20
ATOM     20  C   UNL     1       0.045  -1.506   4.901  0.00  0.00    +0.141 C 
BRANCH  20  29
ATOM     21  C   UNL     1      -0.010   1.501   0.025  0.00  0.00    +0.046 C 
ATOM     22  C   UNL     1      -0.007  -0.006   0.010  0.00  0.00    -0.022 A 
ATOM     23  C   UNL     1      -0.010  -0.794  -1.076  0.00  0.00    +0.017 A 
ATOM     24  N   UNL     1      -0.006  -2.110  -0.699  0.00  0.00    -0.358 N 
ATOM     25  H   UNL     1      -0.007  -2.864  -1.309  0.00  0.00    +0.166 HD
ATOM     26  C   UNL     1       0.001  -2.203   0.674  0.00  0.00    +0.047 A 
ATOM     27  C   UNL     1       0.007  -0.889   1.179  0.00  0.00    +0.003 A 
ATOM     28  C   UNL     1       0.020  -0.673   2.558  0.00  0.00    +0.015 A 
ATOM     29  C   UNL     1       0.031  -1.740   3.412  0.00  0.00    -0.030 A 
ATOM     30  C   UNL     1       0.029  -3.038   2.919  0.00  0.00    +0.007 A 
ATOM     31  C   UNL     1       0.007  -3.274   1.562  0.00  0.00    +0.026 A 
ATOM     32  C   UNL     1      -0.019  -0.303  -2.501  0.00  0.00    +0.063 C 
ENDBRANCH  20  29
ENDBRANCH   1  20
TORSDOF 5
