REMARK  Name = ZINC33021038
REMARK  4 active torsions:
REMARK  status: ('A' for Active; 'I' for Inactive)
REMARK    1  A    between atoms: C_6  and  S_7
REMARK    2  A    between atoms: S_7  and  N_10
REMARK    3  A    between atoms: C_14  and  C_17
REMARK    4  A    between atoms: N_19  and  C_20
REMARK                            x       y       z     vdW  Elec       q    Type
REMARK                         _______ _______ _______ _____ _____    ______ ____
ROOT
ATOM      1  N   UNL     1      -3.894   7.303  -1.343  0.00  0.00    -0.176 NA
ATOM      2  C   UNL     1      -4.474   7.384  -2.690  0.00  0.00    +0.109 C 
ATOM      3  C   UNL     1      -5.496   6.249  -2.851  0.00  0.00    +0.018 C 
ATOM      4  C   UNL     1      -6.523   6.330  -1.719  0.00  0.00    +0.015 C 
ATOM      5  C   UNL     1      -5.816   6.154  -0.373  0.00  0.00    +0.091 C 
ATOM      6  C   UNL     1      -4.798   7.282  -0.184  0.00  0.00    +0.122 C 
ENDROOT
BRANCH   5   7
ATOM      7  C   UNL     1      -6.832   6.201   0.739  0.00  0.00    +0.218 C 
ATOM      8  O   UNL     1      -6.751   7.053   1.598  0.00  0.00    -0.275 OA
ATOM      9  N   UNL     1      -7.830   5.297   0.778  0.00  0.00    -0.312 N 
ATOM     10  H   UNL     1      -7.904   4.524  -0.001  0.00  0.00    +0.149 HD
BRANCH   9  11
ATOM     11  C   UNL     1      -8.818   5.344   1.859  0.00  0.00    +0.073 C 
ATOM     12  C   UNL     1      -8.280   4.585   3.074  0.00  0.00    +0.022 C 
ATOM     13  C   UNL     1      -9.101   4.956   4.311  0.00  0.00    +0.002 C 
ATOM     14  C   UNL     1      -9.328   6.469   4.338  0.00  0.00    +0.000 C 
ATOM     15  C   UNL     1     -10.814   6.766   4.129  0.00  0.00    +0.000 C 
ATOM     16  C   UNL     1     -11.168   6.578   2.653  0.00  0.00    +0.000 C 
ATOM     17  C   UNL     1     -11.257   5.084   2.336  0.00  0.00    +0.002 C 
ATOM     18  C   UNL     1     -10.121   4.694   1.388  0.00  0.00    +0.022 C 
ENDBRANCH   9  11
ENDBRANCH   5   7
BRANCH   1  19
ATOM     19  S   UNL     1      -2.252   7.242  -1.133  0.00  0.00    +0.061 S 
ATOM     20  O   UNL     1      -1.992   7.731   0.176  0.00  0.00    -0.153 OA
ATOM     21  O   UNL     1      -1.673   7.825  -2.293  0.00  0.00    -0.153 OA
BRANCH  19  27
ATOM     22  C   UNL     1      -1.454   4.923  -2.328  0.00  0.00    +0.032 A 
ATOM     23  C   UNL     1      -1.090   3.588  -2.341  0.00  0.00    +0.049 A 
ATOM     24  C   UNL     1      -1.060   2.871  -1.158  0.00  0.00    +0.142 A 
ATOM     25  C   UNL     1      -1.397   3.496   0.042  0.00  0.00    +0.078 A 
ATOM     26  C   UNL     1      -1.761   4.832   0.048  0.00  0.00    +0.055 A 
ATOM     27  C   UNL     1      -1.789   5.543  -1.138  0.00  0.00    +0.107 A 
ATOM     28  N   UNL     1      -1.364   2.757   1.233  0.00  0.00    -0.280 N 
ATOM     29  C   UNL     1      -0.717   1.571   1.249  0.00  0.00    +0.255 C 
ATOM     30  O   UNL     1      -0.702   0.900   2.260  0.00  0.00    -0.272 OA
ATOM     31  C   UNL     1      -0.013   1.086   0.008  0.00  0.00    +0.325 C 
ATOM     32  O   UNL     1      -0.703   1.559  -1.151  0.00  0.00    -0.481 OA
ATOM     33  H   UNL     1      -1.860   3.144   2.135  0.00  0.00    +0.155 HD
ENDBRANCH  19  27
ENDBRANCH   1  19
TORSDOF 4
