REMARK  Name = ZINC06444208
REMARK  14 active torsions:
REMARK  status: ('A' for Active; 'I' for Inactive)
REMARK    1  A    between atoms: C_1  and  C_2
REMARK    2  A    between atoms: C_7  and  C_8
REMARK    3  A    between atoms: C_8  and  C_9
REMARK    4  A    between atoms: C_9  and  N_10
REMARK    5  A    between atoms: N_10  and  C_11
REMARK    6  A    between atoms: N_10  and  C_27
REMARK    7  A    between atoms: C_11  and  C_12
REMARK    8  A    between atoms: C_27  and  N_29
REMARK    9  A    between atoms: N_29  and  C_30
REMARK   10  A    between atoms: C_30  and  C_31
REMARK   11  A    between atoms: C_31  and  C_32
REMARK   12  A    between atoms: C_32  and  N_66
REMARK   13  A    between atoms: C_33  and  N_66
REMARK   14  A    between atoms: C_34  and  N_66
REMARK                            x       y       z     vdW  Elec       q    Type
REMARK                         _______ _______ _______ _____ _____    ______ ____
ROOT
ATOM      1  N   UNL     1      -0.018   1.461   0.010  0.00  0.00    -0.308 N 
ENDROOT
BRANCH   1   2
ATOM      2  C   UNL     1      -1.194   2.119   0.019  0.00  0.00    +0.133 C 
ATOM      3  S   UNL     1      -1.217   3.830   0.029  0.00  0.00    -0.019 S 
BRANCH   2   4
ATOM      4  N   UNL     1      -2.352   1.429   0.021  0.00  0.00    -0.326 N 
ATOM      5  H   UNL     1      -2.339   0.459   0.016  0.00  0.00    +0.148 HD
BRANCH   4   6
ATOM      6  C   UNL     1      -3.631   2.144   0.031  0.00  0.00    +0.101 C 
BRANCH   6   7
ATOM      7  C   UNL     1      -4.780   1.134   0.031  0.00  0.00    +0.000 C 
BRANCH   7   8
ATOM      8  C   UNL     1      -6.115   1.881   0.041  0.00  0.00    -0.078 C 
BRANCH   8  11
ATOM      9  C   UNL     1      -7.240   0.139   1.290  0.00  0.00    -0.097 C 
ATOM     10  C   UNL     1      -8.507   1.580  -0.187  0.00  0.00    -0.097 C 
ATOM     11  N   UNL     1      -7.214   0.893   0.020  0.00  0.00    +0.376 N 
ATOM     12  H   UNL     1      -7.058   0.237  -0.754  0.00  0.00    -0.083 HD
ENDBRANCH   8  11
ENDBRANCH   7   8
ENDBRANCH   6   7
ENDBRANCH   4   6
ENDBRANCH   2   4
ENDBRANCH   1   2
BRANCH   1  13
ATOM     13  C   UNL     1       0.002  -0.004   0.002  0.00  0.00    +0.112 C 
BRANCH  13  14
ATOM     14  C   UNL     1       0.023  -0.522   1.442  0.00  0.00    +0.054 C 
BRANCH  14  21
ATOM     15  C   UNL     1       2.533  -1.931   1.192  0.00  0.00    +0.044 C 
ATOM     16  C   UNL     1       1.244  -2.703   1.314  0.00  0.00    -0.047 A 
ATOM     17  C   UNL     1       1.263  -4.085   1.307  0.00  0.00    +0.003 A 
ATOM     18  C   UNL     1       0.081  -4.793   1.419  0.00  0.00    +0.000 A 
ATOM     19  C   UNL     1      -1.120  -4.119   1.538  0.00  0.00    +0.000 A 
ATOM     20  C   UNL     1      -1.139  -2.737   1.551  0.00  0.00    +0.004 A 
ATOM     21  C   UNL     1       0.043  -2.029   1.433  0.00  0.00    -0.043 A 
ENDBRANCH  14  21
ENDBRANCH  13  14
ENDBRANCH   1  13
BRANCH   1  22
ATOM     22  C   UNL     1       1.241   2.211   0.002  0.00  0.00    +0.147 C 
BRANCH  22  23
ATOM     23  C   UNL     1       1.659   2.475  -1.421  0.00  0.00    +0.035 A 
ATOM     24  C   UNL     1       1.330   3.651  -2.015  0.00  0.00    +0.020 A 
ATOM     25  C   UNL     1       1.751   3.878  -3.397  0.00  0.00    +0.003 A 
ATOM     26  C   UNL     1       1.441   5.073  -4.059  0.00  0.00    +0.059 A 
ATOM     27  C   UNL     1       1.852   5.258  -5.361  0.00  0.00    +0.167 A 
ATOM     28  C   UNL     1       2.576   4.258  -6.022  0.00  0.00    +0.168 A 
ATOM     29  C   UNL     1       2.886   3.075  -5.375  0.00  0.00    +0.075 A 
ATOM     30  C   UNL     1       2.480   2.873  -4.063  0.00  0.00    +0.053 A 
ATOM     31  N   UNL     1       2.782   1.700  -3.402  0.00  0.00    -0.322 N 
ATOM     32  H   UNL     1       3.283   1.008  -3.861  0.00  0.00    +0.169 HD
ATOM     33  C   UNL     1       2.395   1.504  -2.129  0.00  0.00    +0.254 A 
ATOM     34  O   UNL     1       2.684   0.457  -1.575  0.00  0.00    -0.268 OA
ATOM     35  O   UNL     1       2.856   4.690  -7.285  0.00  0.00    -0.453 OA
ATOM     36  C   UNL     1       2.660   6.116  -7.258  0.00  0.00    +0.466 C 
ATOM     37  O   UNL     1       1.685   6.310  -6.216  0.00  0.00    -0.453 OA
ENDBRANCH  22  23
ENDBRANCH   1  22
TORSDOF 11
