REMARK  Name = ZINC27647159
REMARK  6 active torsions:
REMARK  status: ('A' for Active; 'I' for Inactive)
REMARK    1  A    between atoms: C_1  and  C_2
REMARK    2  A    between atoms: C_2  and  C_3
REMARK    3  A    between atoms: C_13  and  C_15
REMARK    4  A    between atoms: C_13  and  O_22
REMARK    5  A    between atoms: C_27  and  C_34
REMARK    6  A    between atoms: C_34  and  C_35
REMARK                            x       y       z     vdW  Elec       q    Type
REMARK                         _______ _______ _______ _____ _____    ______ ____
ROOT
ATOM      1  C   UNL     1       1.223   6.954  -0.967  0.00  0.00    +0.012 C 
ATOM      2  C   UNL     1       0.713   6.159   0.237  0.00  0.00    +0.010 C 
ATOM      3  C   UNL     1       1.906   5.566   0.990  0.00  0.00    +0.032 C 
ATOM      4  C   UNL     1       1.401   4.488   1.956  0.00  0.00    +0.125 C 
ATOM      5  C   UNL     1       0.615   5.144   3.091  0.00  0.00    +0.076 C 
ATOM      6  C   UNL     1      -0.795   4.557   3.144  0.00  0.00    +0.184 C 
ATOM      7  C   UNL     1      -0.709   3.033   3.236  0.00  0.00    +0.111 C 
ATOM      8  C   UNL     1       0.072   2.494   2.037  0.00  0.00    +0.190 C 
ATOM      9  O   UNL     1       0.558   3.581   1.250  0.00  0.00    -0.344 OA
ATOM     10  O   UNL     1      -1.481   5.055   4.321  0.00  0.00    -0.458 OA
ATOM     11  C   UNL     1      -2.344   6.067   4.211  0.00  0.00    +0.332 C 
ATOM     12  O   UNL     1      -3.022   6.355   5.177  0.00  0.00    -0.246 OA
ATOM     13  C   UNL     1      -2.514   6.846   2.983  0.00  0.00    +0.091 C 
ATOM     14  C   UNL     1      -3.537   7.691   2.865  0.00  0.00    -0.063 C 
ATOM     15  C   UNL     1      -3.709   8.509   1.611  0.00  0.00    +0.035 C 
ATOM     16  C   UNL     1      -2.497   9.429   1.430  0.00  0.00    +0.031 C 
ATOM     17  C   UNL     1      -2.501   9.959   0.018  0.00  0.00    -0.027 C 
ATOM     18  C   UNL     1      -1.606   9.518  -0.859  0.00  0.00    -0.005 C 
ATOM     19  C   UNL     1      -0.597   8.527  -0.455  0.00  0.00    -0.004 C 
ATOM     20  C   UNL     1       0.179   7.962  -1.376  0.00  0.00    -0.023 C 
ENDROOT
BRANCH   8  21
ATOM     21  C   UNL     1      -0.848   1.619   1.182  0.00  0.00    +0.143 C 
ATOM     22  C   UNL     1      -0.044   1.081  -0.019  0.00  0.00    +0.106 C 
ATOM     23  S   UNL     1      -1.025   1.748  -1.418  0.00  0.00    -0.066 S 
ATOM     24  C   UNL     1      -2.292   2.599  -0.500  0.00  0.00    +0.272 C 
ATOM     25  O   UNL     1      -3.227   3.232  -0.952  0.00  0.00    -0.263 OA
ATOM     26  N   UNL     1      -2.002   2.397   0.793  0.00  0.00    -0.298 N 
ATOM     27  H   UNL     1      -2.655   2.834   1.563  0.00  0.00    +0.150 HD
ENDBRANCH   8  21
BRANCH   1  29
ATOM     28  C   UNL     1       3.092   8.375  -1.824  0.00  0.00    +0.004 C 
ATOM     29  C   UNL     1       2.515   7.682  -0.588  0.00  0.00    +0.004 C 
ENDBRANCH   1  29
BRANCH   8  30
ATOM     30  O   UNL     1       1.175   1.712   2.500  0.00  0.00    -0.363 OA
ATOM     31  H   UNL     1       1.856   1.239   1.778  0.00  0.00    +0.213 HD
ENDBRANCH   8  30
BRANCH  14  32
ATOM     32  C   UNL     1      -4.536   7.816   3.986  0.00  0.00    +0.027 C 
ATOM     33  C   UNL     1      -4.083   8.912   4.953  0.00  0.00    +0.008 C 
ENDBRANCH  14  32
TORSDOF 4
