REMARK  Name = ZINC39542857
REMARK  8 active torsions:
REMARK  status: ('A' for Active; 'I' for Inactive)
REMARK    1  A    between atoms: C_1  and  C_2
REMARK    2  A    between atoms: C_2  and  C_3
REMARK    3  A    between atoms: C_2  and  C_4
REMARK    4  A    between atoms: C_7  and  C_10
REMARK    5  A    between atoms: C_10  and  N_11
REMARK    6  A    between atoms: C_15  and  C_18
REMARK    7  A    between atoms: C_15  and  O_28
REMARK    8  A    between atoms: C_18  and  N_19
REMARK                            x       y       z     vdW  Elec       q    Type
REMARK                         _______ _______ _______ _____ _____    ______ ____
ROOT
ATOM      1  N   UNL     1       3.332  -1.927   6.455  0.00  0.00    -0.295 N 
ATOM      2  C   UNL     1       4.290  -0.829   6.463  0.00  0.00    +0.108 C 
ATOM      3  C   UNL     1       3.583   0.497   6.744  0.00  0.00    +0.022 C 
ATOM      4  C   UNL     1       2.712   0.334   7.995  0.00  0.00    +0.044 C 
ATOM      5  C   UNL     1       1.571  -0.632   7.667  0.00  0.00    +0.127 C 
ATOM      6  C   UNL     1       2.117  -1.863   7.003  0.00  0.00    +0.246 C 
ATOM      7  O   UNL     1       1.418  -2.853   6.966  0.00  0.00    -0.273 OA
ENDROOT
BRANCH   5   8
ATOM      8  O   UNL     1       0.645   0.007   6.786  0.00  0.00    -0.381 OA
ATOM      9  H   UNL     1       1.033   0.287   5.945  0.00  0.00    +0.211 HD
ENDBRANCH   5   8
BRANCH   1  10
ATOM     10  C   UNL     1       3.724  -3.176   5.799  0.00  0.00    +0.143 C 
BRANCH  10  14
ATOM     11  C   UNL     1       2.607  -3.036   1.678  0.00  0.00    -0.045 A 
ATOM     12  C   UNL     1       3.851  -2.581   2.073  0.00  0.00    +0.004 A 
ATOM     13  C   UNL     1       4.213  -2.626   3.407  0.00  0.00    +0.005 A 
ATOM     14  C   UNL     1       3.330  -3.126   4.346  0.00  0.00    -0.030 A 
ATOM     15  C   UNL     1       2.085  -3.580   3.951  0.00  0.00    +0.005 A 
ATOM     16  C   UNL     1       1.722  -3.531   2.618  0.00  0.00    +0.004 A 
BRANCH  11  18
ATOM     17  C   UNL     1       2.255  -1.538  -0.266  0.00  0.00    +0.012 C 
ATOM     18  C   UNL     1       2.213  -2.987   0.225  0.00  0.00    +0.013 C 
ATOM     19  C   UNL     1       3.188  -3.832  -0.597  0.00  0.00    +0.012 C 
ENDBRANCH  11  18
ENDBRANCH  10  14
ENDBRANCH   1  10
BRANCH   5  20
ATOM     20  C   UNL     1       0.851  -1.025   8.959  0.00  0.00    -0.034 C 
BRANCH  20  21
ATOM     21  N   UNL     1      -0.322  -1.848   8.635  0.00  0.00    +0.385 N 
ATOM     22  C   UNL     1      -1.432  -0.976   8.229  0.00  0.00    -0.072 C 
ATOM     23  C   UNL     1      -2.555  -1.814   7.604  0.00  0.00    +0.039 C 
ATOM     24  C   UNL     1      -2.865  -2.952   8.553  0.00  0.00    +0.061 C 
ATOM     25  C   UNL     1      -2.024  -3.299   9.537  0.00  0.00    -0.040 C 
ATOM     26  C   UNL     1      -0.710  -2.635   9.819  0.00  0.00    -0.044 C 
ATOM     27  C   UNL     1      -2.700  -4.448  10.233  0.00  0.00    +0.197 C 
ATOM     28  N   UNL     1      -3.950  -4.603   9.463  0.00  0.00    -0.183 NA
ATOM     29  N   UNL     1      -3.953  -3.748   8.570  0.00  0.00    -0.159 NA
ATOM     30  H   UNL     1      -0.094  -2.473   7.877  0.00  0.00    -0.081 HD
ENDBRANCH  20  21
ENDBRANCH   5  20
TORSDOF 6
