REMARK  Name = ZINC01814196
REMARK  8 active torsions:
REMARK  status: ('A' for Active; 'I' for Inactive)
REMARK    1  A    between atoms: C_3  and  C_4
REMARK    2  A    between atoms: N_5  and  C_6
REMARK    3  A    between atoms: C_6  and  C_7
REMARK    4  A    between atoms: C_6  and  C_9
REMARK    5  A    between atoms: C_6  and  C_11
REMARK    6  A    between atoms: C_7  and  O_8
REMARK    7  A    between atoms: C_9  and  O_10
REMARK    8  A    between atoms: C_11  and  O_12
REMARK                            x       y       z     vdW  Elec       q    Type
REMARK                         _______ _______ _______ _____ _____    ______ ____
ROOT
ATOM      1  C   UNL     1       2.195  -7.420  -0.057  0.00  0.00    +0.031 C 
ATOM      2  C   UNL     1       2.731  -6.196  -0.056  0.00  0.00    +0.033 C 
ATOM      3  C   UNL     1       4.176  -5.854  -0.067  0.00  0.00    +0.162 C 
ATOM      4  C   UNL     1       4.226  -4.385  -0.065  0.00  0.00    +0.252 C 
ATOM      5  O   UNL     1       5.235  -3.704  -0.077  0.00  0.00    -0.273 OA
ATOM      6  N   UNL     1       2.963  -3.927  -0.046  0.00  0.00    -0.165 N 
ATOM      7  N   UNL     1       2.047  -4.980  -0.043  0.00  0.00    -0.259 N 
ATOM      8  H   UNL     1       1.082  -4.881  -0.035  0.00  0.00    +0.170 HD
ATOM      9  C   UNL     1       2.616  -2.588  -0.036  0.00  0.00    +0.185 A 
ATOM     10  N   UNL     1       1.419  -2.047  -0.022  0.00  0.00    -0.223 NA
ATOM     11  C   UNL     1       1.227  -0.710  -0.013  0.00  0.00    +0.080 A 
ATOM     12  C   UNL     1       0.002  -0.004   0.002  0.00  0.00    +0.029 A 
ATOM     13  C   UNL     1      -0.017   1.366   0.010  0.00  0.00    +0.002 A 
ATOM     14  C   UNL     1       1.156   2.107   0.002  0.00  0.00    +0.001 A 
ATOM     15  C   UNL     1       2.373   1.450  -0.013  0.00  0.00    +0.017 A 
ATOM     16  C   UNL     1       2.401   0.077  -0.020  0.00  0.00    +0.041 A 
ATOM     17  S   UNL     1       3.682  -1.153  -0.039  0.00  0.00    -0.050 S 
ENDROOT
BRANCH   3  18
ATOM     18  C   UNL     1       5.230  -6.717  -0.080  0.00  0.00    +0.097 C 
ATOM     19  N   UNL     1       6.506  -6.236  -0.089  0.00  0.00    -0.281 NA
BRANCH  19  20
ATOM     20  C   UNL     1       7.639  -7.164  -0.103  0.00  0.00    +0.130 C 
BRANCH  20  21
ATOM     21  C   UNL     1       8.947  -6.371  -0.111  0.00  0.00    +0.190 C 
BRANCH  21  22
ATOM     22  O   UNL     1      10.053  -7.276  -0.125  0.00  0.00    -0.392 OA
ATOM     23  H   UNL     1      10.917  -6.842  -0.130  0.00  0.00    +0.210 HD
ENDBRANCH  21  22
ENDBRANCH  20  21
BRANCH  20  24
ATOM     24  C   UNL     1       7.588  -8.051   1.143  0.00  0.00    +0.190 C 
BRANCH  24  25
ATOM     25  O   UNL     1       7.538  -7.229   2.311  0.00  0.00    -0.392 OA
ATOM     26  H   UNL     1       7.504  -7.725   3.140  0.00  0.00    +0.210 HD
ENDBRANCH  24  25
ENDBRANCH  20  24
BRANCH  20  27
ATOM     27  C   UNL     1       7.566  -8.039  -1.356  0.00  0.00    +0.190 C 
BRANCH  27  28
ATOM     28  O   UNL     1       7.614  -7.211  -2.519  0.00  0.00    -0.392 OA
ATOM     29  H   UNL     1       7.572  -7.700  -3.352  0.00  0.00    +0.210 HD
ENDBRANCH  27  28
ENDBRANCH  20  27
ENDBRANCH  19  20
ENDBRANCH   3  18
TORSDOF 8
