REMARK  Name = ZINC39946124
REMARK  13 active torsions:
REMARK  status: ('A' for Active; 'I' for Inactive)
REMARK    1  A    between atoms: C_1  and  C_2
REMARK    2  A    between atoms: C_2  and  C_3
REMARK    3  A    between atoms: C_6  and  O_9
REMARK    4  A    between atoms: O_9  and  C_10
REMARK    5  A    between atoms: C_10  and  C_11
REMARK    6  A    between atoms: C_14  and  S_25
REMARK    7  A    between atoms: N_15  and  C_16
REMARK    8  A    between atoms: C_16  and  C_18
REMARK    9  A    between atoms: C_16  and  C_19
REMARK   10  A    between atoms: S_25  and  C_26
REMARK   11  A    between atoms: C_26  and  C_27
REMARK   12  A    between atoms: C_27  and  C_29
REMARK   13  A    between atoms: C_37  and  C_39
REMARK                            x       y       z     vdW  Elec       q    Type
REMARK                         _______ _______ _______ _____ _____    ______ ____
ROOT
ATOM      1  C   UNL     1      -7.298  -2.696  -0.920  0.00  0.00    +0.172 A 
ATOM      2  N   UNL     1      -7.657  -3.946  -0.849  0.00  0.00    -0.130 NA
ATOM      3  N   UNL     1      -8.938  -4.034  -0.790  0.00  0.00    -0.122 NA
ATOM      4  C   UNL     1      -9.469  -2.834  -0.822  0.00  0.00    +0.193 A 
ATOM      5  N   UNL     1      -8.438  -1.942  -0.900  0.00  0.00    -0.296 N 
ENDROOT
BRANCH   5   6
ATOM      6  C   UNL     1      -8.535  -0.481  -0.955  0.00  0.00    +0.118 C 
ATOM      7  C   UNL     1     -10.006  -0.070  -1.034  0.00  0.00    +0.036 C 
BRANCH   6   8
ATOM      8  C   UNL     1      -7.913   0.110   0.284  0.00  0.00    -0.025 A 
ATOM      9  C   UNL     1      -8.342  -0.297   1.534  0.00  0.00    +0.005 A 
ATOM     10  C   UNL     1      -7.772   0.245   2.670  0.00  0.00    +0.000 A 
ATOM     11  C   UNL     1      -6.773   1.194   2.557  0.00  0.00    +0.000 A 
ATOM     12  C   UNL     1      -6.344   1.600   1.308  0.00  0.00    +0.000 A 
ATOM     13  C   UNL     1      -6.911   1.055   0.171  0.00  0.00    +0.005 A 
ENDBRANCH   6   8
ENDBRANCH   5   6
BRANCH   1  14
ATOM     14  C   UNL     1      -5.885  -2.176  -1.003  0.00  0.00    +0.305 C 
BRANCH  14  15
ATOM     15  O   UNL     1      -5.380  -1.958   0.316  0.00  0.00    -0.484 OA
BRANCH  15  19
ATOM     16  C   UNL     1      -1.524  -0.528   0.631  0.00  0.00    -0.047 A 
ATOM     17  C   UNL     1      -2.264  -0.773   1.773  0.00  0.00    +0.007 A 
ATOM     18  C   UNL     1      -3.555  -1.252   1.670  0.00  0.00    +0.046 A 
ATOM     19  C   UNL     1      -4.110  -1.486   0.420  0.00  0.00    +0.121 A 
ATOM     20  C   UNL     1      -3.365  -1.239  -0.724  0.00  0.00    +0.046 A 
ATOM     21  C   UNL     1      -2.075  -0.755  -0.616  0.00  0.00    +0.007 A 
BRANCH  16  23
ATOM     22  C   UNL     1      -0.137   1.524   0.760  0.00  0.00    +0.009 C 
ATOM     23  C   UNL     1      -0.115  -0.005   0.746  0.00  0.00    +0.032 C 
ENDBRANCH  16  23
ENDBRANCH  15  19
ENDBRANCH  14  15
ENDBRANCH   1  14
BRANCH   4  24
ATOM     24  S   UNL     1     -11.188  -2.447  -0.766  0.00  0.00    -0.078 S 
BRANCH  24  25
ATOM     25  C   UNL     1     -11.999  -4.066  -0.658  0.00  0.00    +0.156 C 
BRANCH  25  26
ATOM     26  C   UNL     1     -13.493  -3.877  -0.603  0.00  0.00    +0.172 C 
ATOM     27  O   UNL     1     -13.964  -2.758  -0.633  0.00  0.00    -0.291 OA
BRANCH  26  28
ATOM     28  C   UNL     1     -14.343  -4.999  -0.515  0.00  0.00    +0.027 C 
ATOM     29  C   UNL     1     -13.970  -6.330  -0.465  0.00  0.00    +0.006 A 
ATOM     30  C   UNL     1     -12.712  -6.978  -0.483  0.00  0.00    +0.010 A 
ATOM     31  C   UNL     1     -12.639  -8.326  -0.420  0.00  0.00    +0.001 A 
ATOM     32  C   UNL     1     -13.781  -9.140  -0.337  0.00  0.00    +0.002 A 
ATOM     33  C   UNL     1     -15.028  -8.621  -0.314  0.00  0.00    +0.026 A 
ATOM     34  C   UNL     1     -15.196  -7.160  -0.377  0.00  0.00    +0.043 A 
ATOM     35  N   UNL     1     -16.258  -6.406  -0.373  0.00  0.00    -0.377 N 
ATOM     36  C   UNL     1     -15.855  -4.999  -0.451  0.00  0.00    +0.111 C 
ATOM     37  C   UNL     1     -16.329  -4.243   0.792  0.00  0.00    +0.035 C 
ATOM     38  H   UNL     1     -17.173  -6.726  -0.322  0.00  0.00    +0.160 HD
ENDBRANCH  26  28
ENDBRANCH  25  26
ENDBRANCH  24  25
ENDBRANCH   4  24
TORSDOF 10
