REMARK  Name = ZINC39676772
REMARK  9 active torsions:
REMARK  status: ('A' for Active; 'I' for Inactive)
REMARK    1  A    between atoms: C_1  and  C_2
REMARK    2  A    between atoms: C_2  and  C_4
REMARK    3  A    between atoms: C_2  and  N_12
REMARK    4  A    between atoms: C_8  and  O_10
REMARK    5  A    between atoms: O_10  and  C_11
REMARK    6  A    between atoms: C_13  and  C_15
REMARK    7  A    between atoms: C_26  and  C_28
REMARK    8  A    between atoms: C_33  and  S_34
REMARK    9  A    between atoms: S_34  and  C_35
REMARK                            x       y       z     vdW  Elec       q    Type
REMARK                         _______ _______ _______ _____ _____    ______ ____
ROOT
ATOM      1  C   UNL     1       0.791  -1.660  -3.836  0.00  0.00    +0.100 C 
ATOM      2  C   UNL     1       1.752  -0.486  -4.131  0.00  0.00    +0.121 C 
ATOM      3  N   UNL     1       1.667  -0.291  -5.597  0.00  0.00    -0.296 N 
ATOM      4  C   UNL     1       0.232  -0.489  -5.913  0.00  0.00    +0.115 C 
ATOM      5  C   UNL     1      -0.205  -1.657  -5.008  0.00  0.00    -0.004 C 
ATOM      6  C   UNL     1      -1.623  -1.425  -4.495  0.00  0.00    -0.010 C 
ATOM      7  C   UNL     1      -2.603  -1.485  -5.670  0.00  0.00    -0.082 C 
ATOM      8  N   UNL     1      -2.506  -2.796  -6.323  0.00  0.00    +0.379 N 
ATOM      9  C   UNL     1      -1.166  -2.973  -6.895  0.00  0.00    -0.082 C 
ATOM     10  C   UNL     1      -0.126  -2.976  -5.771  0.00  0.00    -0.010 C 
ATOM     11  C   UNL     1       2.668  -0.001  -6.452  0.00  0.00    +0.249 C 
ATOM     12  O   UNL     1       2.424   0.224  -7.621  0.00  0.00    -0.270 OA
ATOM     13  H   UNL     1      -2.679  -3.522  -5.644  0.00  0.00    -0.086 HD
ATOM     14  H   UNL     1      -3.195  -2.856  -7.058  0.00  0.00    -0.086 HD
ENDROOT
BRANCH  11  15
ATOM     15  C   UNL     1       4.060   0.044  -5.968  0.00  0.00    +0.069 A 
ATOM     16  C   UNL     1       4.354   0.518  -4.684  0.00  0.00    +0.017 A 
ATOM     17  C   UNL     1       5.676   0.539  -4.277  0.00  0.00    +0.020 A 
ATOM     18  C   UNL     1       6.662   0.096  -5.141  0.00  0.00    +0.112 A 
ATOM     19  N   UNL     1       6.366  -0.347  -6.347  0.00  0.00    -0.248 NA
ATOM     20  C   UNL     1       5.117  -0.394  -6.785  0.00  0.00    +0.114 A 
BRANCH  20  21
ATOM     21  S   UNL     1       4.778  -1.002  -8.404  0.00  0.00    -0.069 S 
BRANCH  21  22
ATOM     22  C   UNL     1       6.374  -1.273  -9.100  0.00  0.00    +0.014 A 
ATOM     23  C   UNL     1       6.956  -2.534  -9.038  0.00  0.00    +0.015 A 
ATOM     24  C   UNL     1       8.206  -2.743  -9.585  0.00  0.00    +0.001 A 
ATOM     25  C   UNL     1       8.880  -1.699 -10.193  0.00  0.00    +0.000 A 
ATOM     26  C   UNL     1       8.304  -0.443 -10.256  0.00  0.00    +0.001 A 
ATOM     27  C   UNL     1       7.051  -0.229  -9.717  0.00  0.00    +0.015 A 
ENDBRANCH  21  22
ENDBRANCH  20  21
ENDBRANCH  11  15
BRANCH   1  29
ATOM     28  N   UNL     1      -0.341  -2.485  -1.798  0.00  0.00    -0.308 N 
ATOM     29  C   UNL     1       0.070  -1.433  -2.533  0.00  0.00    +0.219 C 
ATOM     30  O   UNL     1      -0.141  -0.303  -2.145  0.00  0.00    -0.275 OA
ATOM     31  H   UNL     1      -0.173  -3.388  -2.108  0.00  0.00    +0.149 HD
BRANCH  28  33
ATOM     32  C   UNL     1      -0.021  -2.067   0.591  0.00  0.00    +0.033 C 
ATOM     33  C   UNL     1      -1.043  -2.264  -0.531  0.00  0.00    +0.100 C 
BRANCH  33  34
ATOM     34  C   UNL     1      -1.906  -3.460  -0.220  0.00  0.00    -0.024 A 
ATOM     35  C   UNL     1      -1.433  -4.736  -0.466  0.00  0.00    +0.005 A 
ATOM     36  C   UNL     1      -2.223  -5.834  -0.181  0.00  0.00    +0.004 A 
ATOM     37  C   UNL     1      -3.486  -5.660   0.350  0.00  0.00    +0.045 A 
ATOM     38  C   UNL     1      -3.962  -4.381   0.597  0.00  0.00    +0.120 A 
ATOM     39  C   UNL     1      -3.166  -3.280   0.317  0.00  0.00    +0.051 A 
BRANCH  38  40
ATOM     40  O   UNL     1      -5.205  -4.207   1.119  0.00  0.00    -0.495 OA
ATOM     41  C   UNL     1      -5.967  -5.385   1.389  0.00  0.00    +0.277 C 
ENDBRANCH  38  40
ENDBRANCH  33  34
ENDBRANCH  28  33
ENDBRANCH   1  29
TORSDOF 7
