REMARK  Name = ZINC60351961
REMARK  5 active torsions:
REMARK  status: ('A' for Active; 'I' for Inactive)
REMARK    1  A    between atoms: C_1  and  S_2
REMARK    2  A    between atoms: S_2  and  C_3
REMARK    3  A    between atoms: C_8  and  N_9
REMARK    4  A    between atoms: C_10  and  C_12
REMARK    5  A    between atoms: C_15  and  C_17
REMARK                            x       y       z     vdW  Elec       q    Type
REMARK                         _______ _______ _______ _____ _____    ______ ____
ROOT
ATOM      1  N   UNL     1       0.590  -2.768  -0.991  0.00  0.00    -0.284 N 
ATOM      2  C   UNL     1       0.702  -4.056  -1.371  0.00  0.00    +0.221 C 
ATOM      3  O   UNL     1       1.285  -4.338  -2.397  0.00  0.00    -0.275 OA
ATOM      4  H   UNL     1       0.195  -2.548  -0.133  0.00  0.00    +0.155 HD
ENDROOT
BRANCH   1  10
ATOM      5  C   UNL     1       1.415  -0.511  -1.304  0.00  0.00    +0.033 A 
ATOM      6  C   UNL     1       1.869   0.496  -2.142  0.00  0.00    +0.066 A 
ATOM      7  C   UNL     1       1.952   0.279  -3.510  0.00  0.00    +0.163 A 
ATOM      8  C   UNL     1       1.581  -0.951  -4.041  0.00  0.00    +0.164 A 
ATOM      9  C   UNL     1       1.125  -1.959  -3.204  0.00  0.00    +0.073 A 
ATOM     10  C   UNL     1       1.046  -1.745  -1.837  0.00  0.00    +0.051 A 
ATOM     11  O   UNL     1       1.663  -1.184  -5.381  0.00  0.00    -0.485 OA
ATOM     12  C   UNL     1       1.769  -0.035  -6.229  0.00  0.00    +0.270 C 
ATOM     13  C   UNL     1       2.823   0.907  -5.632  0.00  0.00    +0.270 C 
ATOM     14  O   UNL     1       2.397   1.281  -4.317  0.00  0.00    -0.485 OA
BRANCH   5  16
ATOM     15  C   UNL     1       1.884   1.475   0.640  0.00  0.00    +0.090 C 
ATOM     16  S   UNL     1       1.312  -0.234   0.433  0.00  0.00    -0.127 S 
ENDBRANCH   5  16
ENDBRANCH   1  10
BRANCH   2  17
ATOM     17  C   UNL     1       0.101  -5.147  -0.522  0.00  0.00    +0.083 C 
ATOM     18  C   UNL     1      -1.105  -5.899  -1.088  0.00  0.00    +0.022 C 
ATOM     19  C   UNL     1       0.260  -6.589  -1.008  0.00  0.00    +0.032 C 
BRANCH  19  20
ATOM     20  C   UNL     1       0.438  -7.660   0.037  0.00  0.00    -0.042 A 
ATOM     21  C   UNL     1      -0.543  -7.868   0.988  0.00  0.00    +0.004 A 
ATOM     22  C   UNL     1      -0.380  -8.851   1.946  0.00  0.00    +0.001 A 
ATOM     23  C   UNL     1       0.765  -9.625   1.955  0.00  0.00    +0.015 A 
ATOM     24  C   UNL     1       1.747  -9.417   1.003  0.00  0.00    +0.018 A 
ATOM     25  C   UNL     1       1.581  -8.438   0.041  0.00  0.00    +0.019 A 
ATOM     26 BR   UNL     1       3.314 -10.476   1.014  0.00  0.00    -0.050 Br
ENDBRANCH  19  20
ENDBRANCH   2  17
TORSDOF 4
