REMARK  Name = ZINC09597723
REMARK  4 active torsions:
REMARK  status: ('A' for Active; 'I' for Inactive)
REMARK    1  A    between atoms: N_9  and  S_24
REMARK    2  A    between atoms: C_10  and  C_12
REMARK    3  A    between atoms: C_12  and  N_13
REMARK    4  A    between atoms: S_24  and  C_27
REMARK                            x       y       z     vdW  Elec       q    Type
REMARK                         _______ _______ _______ _____ _____    ______ ____
ROOT
ATOM      1  C   UNL     1       7.324   4.508  -4.366  0.00  0.00    +0.000 A 
ATOM      2  C   UNL     1       7.159   3.163  -4.091  0.00  0.00    +0.000 A 
ATOM      3  C   UNL     1       6.050   2.739  -3.388  0.00  0.00    +0.005 A 
ATOM      4  C   UNL     1       5.098   3.654  -2.955  0.00  0.00    -0.024 A 
ATOM      5  C   UNL     1       5.266   4.994  -3.220  0.00  0.00    -0.041 A 
ATOM      6  C   UNL     1       6.382   5.417  -3.932  0.00  0.00    +0.004 A 
ATOM      7  C   UNL     1       4.286   6.045  -2.769  0.00  0.00    +0.052 C 
ATOM      8  C   UNL     1       2.925   5.423  -2.461  0.00  0.00    +0.115 C 
ATOM      9  N   UNL     1       3.150   4.235  -1.620  0.00  0.00    -0.167 NA
ATOM     10  C   UNL     1       3.902   3.124  -2.212  0.00  0.00    +0.128 C 
ENDROOT
BRANCH   9  11
ATOM     11  S   UNL     1       2.583   4.160  -0.067  0.00  0.00    +0.061 S 
ATOM     12  O   UNL     1       2.324   5.497   0.337  0.00  0.00    -0.153 OA
ATOM     13  O   UNL     1       3.466   3.306   0.648  0.00  0.00    -0.153 OA
BRANCH  11  14
ATOM     14  C   UNL     1       1.024   3.340  -0.120  0.00  0.00    +0.106 A 
ATOM     15  C   UNL     1       0.970   1.958  -0.092  0.00  0.00    +0.030 A 
ATOM     16  C   UNL     1      -0.249   1.311  -0.135  0.00  0.00    +0.025 A 
ATOM     17  C   UNL     1      -1.422   2.051  -0.212  0.00  0.00    +0.037 A 
ATOM     18  C   UNL     1      -1.365   3.438  -0.234  0.00  0.00    -0.024 A 
ATOM     19  C   UNL     1      -0.142   4.079  -0.191  0.00  0.00    +0.034 A 
ATOM     20  C   UNL     1      -2.638   4.240  -0.312  0.00  0.00    +0.046 C 
ATOM     21  C   UNL     1      -3.669   3.482  -1.149  0.00  0.00    +0.101 C 
ATOM     22  C   UNL     1      -3.756   2.053  -0.685  0.00  0.00    +0.218 C 
ATOM     23  O   UNL     1      -4.825   1.481  -0.704  0.00  0.00    -0.275 OA
ATOM     24  N   UNL     1      -2.661   1.403  -0.251  0.00  0.00    -0.285 N 
ATOM     25  H   UNL     1      -2.731   0.478   0.034  0.00  0.00    +0.155 HD
ENDBRANCH  11  14
ENDBRANCH   9  11
BRANCH  10  26
ATOM     26  C   UNL     1       3.002   2.361  -3.186  0.00  0.00    +0.142 C 
BRANCH  26  27
ATOM     27  N   UNL     1       3.701   1.164  -3.662  0.00  0.00    -0.232 N 
ATOM     28  C   UNL     1       4.375   1.088  -4.823  0.00  0.00    +0.254 C 
ATOM     29  O   UNL     1       4.499   1.987  -5.631  0.00  0.00    -0.270 OA
ATOM     30  C   UNL     1       4.942  -0.271  -4.951  0.00  0.00    +0.049 A 
ATOM     31  C   UNL     1       5.711  -0.913  -5.908  0.00  0.00    +0.014 A 
ATOM     32  C   UNL     1       6.080  -2.235  -5.720  0.00  0.00    +0.001 A 
ATOM     33  C   UNL     1       5.687  -2.917  -4.583  0.00  0.00    +0.001 A 
ATOM     34  C   UNL     1       4.918  -2.288  -3.617  0.00  0.00    +0.014 A 
ATOM     35  C   UNL     1       4.540  -0.966  -3.793  0.00  0.00    +0.049 A 
ATOM     36  C   UNL     1       3.748  -0.005  -2.998  0.00  0.00    +0.254 C 
ATOM     37  O   UNL     1       3.226  -0.232  -1.925  0.00  0.00    -0.270 OA
ENDBRANCH  26  27
ENDBRANCH  10  26
TORSDOF 4
