REMARK  Name = ZINC02932809
REMARK  7 active torsions:
REMARK  status: ('A' for Active; 'I' for Inactive)
REMARK    1  A    between atoms: C_5  and  C_13
REMARK    2  A    between atoms: C_13  and  S_14
REMARK    3  A    between atoms: S_14  and  C_15
REMARK    4  A    between atoms: N_24  and  C_25
REMARK    5  A    between atoms: C_25  and  C_26
REMARK    6  A    between atoms: C_26  and  C_27
REMARK    7  A    between atoms: C_27  and  N_57
REMARK                            x       y       z     vdW  Elec       q    Type
REMARK                         _______ _______ _______ _____ _____    ______ ____
ROOT
ATOM      1  C   UNL     1      -0.016   1.302   0.009  0.00  0.00    +0.173 A 
ATOM      2  N   UNL     1       0.002  -0.004   0.002  0.00  0.00    -0.222 NA
ATOM      3  C   UNL     1       1.171  -0.711  -0.013  0.00  0.00    +0.086 A 
ATOM      4  C   UNL     1       1.348  -2.102  -0.022  0.00  0.00    +0.036 A 
ATOM      5  C   UNL     1       2.591  -2.629  -0.036  0.00  0.00    +0.048 A 
ATOM      6  S   UNL     1       3.633  -1.180  -0.038  0.00  0.00    -0.090 S 
ATOM      7  C   UNL     1       2.354   0.049  -0.020  0.00  0.00    +0.102 A 
ATOM      8  C   UNL     1       2.327   1.442  -0.013  0.00  0.00    +0.269 A 
ATOM      9  O   UNL     1       3.361   2.088  -0.019  0.00  0.00    -0.266 OA
ATOM     10  N   UNL     1       1.121   2.059   0.002  0.00  0.00    -0.287 N 
ENDROOT
BRANCH   1  11
ATOM     11  S   UNL     1      -1.575   2.123   0.021  0.00  0.00    -0.081 S 
BRANCH  11  12
ATOM     12  C   UNL     1      -2.683   0.692   0.018  0.00  0.00    +0.133 C 
BRANCH  12  17
ATOM     13  C   UNL     1      -7.719   3.017   2.422  0.00  0.00    +0.025 A 
ATOM     14  C   UNL     1      -6.428   2.581   2.383  0.00  0.00    +0.048 A 
ATOM     15  C   UNL     1      -5.905   2.074   1.179  0.00  0.00    +0.141 A 
ATOM     16  N   UNL     1      -4.644   1.649   1.140  0.00  0.00    -0.233 NA
ATOM     17  C   UNL     1      -4.114   1.165   0.028  0.00  0.00    +0.059 A 
ATOM     18  C   UNL     1      -4.870   1.099  -1.127  0.00  0.00    +0.094 A 
ATOM     19  C   UNL     1      -6.198   1.540  -1.092  0.00  0.00    +0.259 A 
ATOM     20  O   UNL     1      -6.894   1.492  -2.094  0.00  0.00    -0.267 OA
ATOM     21  N   UNL     1      -6.696   2.026   0.066  0.00  0.00    -0.267 N 
ATOM     22  C   UNL     1      -7.985   2.464   0.114  0.00  0.00    +0.116 A 
ATOM     23  C   UNL     1      -8.506   2.954   1.262  0.00  0.00    +0.058 A 
ATOM     24 CL   UNL     1     -10.150   3.508   1.300  0.00  0.00    -0.082 Cl
ENDBRANCH  12  17
ENDBRANCH  11  12
ENDBRANCH   1  11
BRANCH  10  25
ATOM     25  C   UNL     1       1.037   3.521   0.011  0.00  0.00    +0.125 C 
BRANCH  25  26
ATOM     26  C   UNL     1       1.022   4.023   1.456  0.00  0.00    +0.003 C 
BRANCH  26  27
ATOM     27  C   UNL     1       0.934   5.551   1.464  0.00  0.00    -0.077 C 
BRANCH  27  33
ATOM     28  C   UNL     1      -0.303   5.603   3.545  0.00  0.00    -0.079 C 
ATOM     29  C   UNL     1      -0.218   5.996   5.022  0.00  0.00    -0.019 C 
ATOM     30  C   UNL     1      -0.053   7.514   5.132  0.00  0.00    -0.004 C 
ATOM     31  C   UNL     1       1.200   7.941   4.362  0.00  0.00    -0.019 C 
ATOM     32  C   UNL     1       1.074   7.492   2.904  0.00  0.00    -0.079 C 
ATOM     33  N   UNL     1       0.943   6.020   2.866  0.00  0.00    +0.380 N 
ATOM     34  H   UNL     1       1.744   5.601   3.353  0.00  0.00    -0.082 HD
ENDBRANCH  27  33
ENDBRANCH  26  27
ENDBRANCH  25  26
ENDBRANCH  10  25
TORSDOF 7
