REMARK  Name = ZINC15913495
REMARK  14 active torsions:
REMARK  status: ('A' for Active; 'I' for Inactive)
REMARK    1  A    between atoms: C_1  and  C_2
REMARK    2  A    between atoms: C_5  and  N_9
REMARK    3  A    between atoms: C_6  and  C_8
REMARK    4  A    between atoms: N_9  and  S_10
REMARK    5  A    between atoms: S_10  and  C_13
REMARK    6  A    between atoms: C_16  and  C_34
REMARK    7  A    between atoms: C_17  and  N_19
REMARK    8  A    between atoms: N_19  and  S_20
REMARK    9  A    between atoms: S_20  and  C_23
REMARK   10  A    between atoms: C_25  and  C_30
REMARK   11  A    between atoms: C_28  and  C_29
REMARK   12  A    between atoms: C_30  and  C_31
REMARK   13  A    between atoms: C_30  and  C_32
REMARK   14  A    between atoms: C_30  and  C_33
REMARK                            x       y       z     vdW  Elec       q    Type
REMARK                         _______ _______ _______ _____ _____    ______ ____
ROOT
ATOM      1  C   UNL     1       1.876  -0.199  -0.656  0.00  0.00    +0.110 A 
ATOM      2  C   UNL     1       0.819  -1.077  -0.502  0.00  0.00    +0.029 A 
ATOM      3  C   UNL     1      -0.473  -0.596  -0.392  0.00  0.00    +0.007 A 
ATOM      4  C   UNL     1      -0.712   0.764  -0.438  0.00  0.00    -0.028 A 
ATOM      5  C   UNL     1       0.348   1.648  -0.593  0.00  0.00    +0.053 A 
ATOM      6  C   UNL     1       1.645   1.162  -0.701  0.00  0.00    +0.053 A 
ATOM      7  C   UNL     1      -2.120   1.287  -0.325  0.00  0.00    +0.046 C 
ENDROOT
BRANCH   1   8
ATOM      8  S   UNL     1       3.520  -0.817  -0.794  0.00  0.00    +0.072 S 
ATOM      9  O   UNL     1       4.367   0.141  -0.174  0.00  0.00    -0.150 OA
ATOM     10  O   UNL     1       3.479  -2.177  -0.382  0.00  0.00    -0.150 OA
BRANCH   8  11
ATOM     11  N   UNL     1       3.908  -0.822  -2.404  0.00  0.00    -0.216 N 
ATOM     12  H   UNL     1       4.470  -0.121  -2.769  0.00  0.00    +0.174 HD
BRANCH  11  17
ATOM     13  C   UNL     1       1.953  -4.937  -5.780  0.00  0.00    +0.044 C 
ATOM     14  C   UNL     1       2.473  -3.844  -4.883  0.00  0.00    -0.050 A 
ATOM     15  C   UNL     1       1.724  -3.428  -3.797  0.00  0.00    +0.005 A 
ATOM     16  C   UNL     1       2.197  -2.426  -2.973  0.00  0.00    +0.025 A 
ATOM     17  C   UNL     1       3.427  -1.836  -3.235  0.00  0.00    +0.051 A 
ATOM     18  C   UNL     1       4.175  -2.252  -4.329  0.00  0.00    -0.028 A 
ATOM     19  C   UNL     1       3.698  -3.259  -5.146  0.00  0.00    +0.008 A 
ATOM     20  C   UNL     1       5.507  -1.611  -4.621  0.00  0.00    +0.046 C 
ENDBRANCH  11  17
ENDBRANCH   8  11
ENDBRANCH   1   8
BRANCH   5  21
ATOM     21  N   UNL     1       0.111   3.024  -0.639  0.00  0.00    -0.216 N 
ATOM     22  H   UNL     1      -0.627   3.406  -0.139  0.00  0.00    +0.174 HD
BRANCH  21  23
ATOM     23  S   UNL     1       1.088   4.003  -1.550  0.00  0.00    +0.073 S 
ATOM     24  O   UNL     1       0.539   5.311  -1.471  0.00  0.00    -0.150 OA
ATOM     25  O   UNL     1       2.425   3.713  -1.164  0.00  0.00    -0.150 OA
BRANCH  23  26
ATOM     26  C   UNL     1       0.925   3.488  -3.227  0.00  0.00    +0.112 A 
ATOM     27  C   UNL     1       2.016   2.973  -3.901  0.00  0.00    +0.033 A 
ATOM     28  C   UNL     1       1.887   2.565  -5.215  0.00  0.00    -0.040 A 
ATOM     29  C   UNL     1       0.669   2.681  -5.858  0.00  0.00    +0.004 A 
ATOM     30  C   UNL     1      -0.421   3.200  -5.186  0.00  0.00    +0.005 A 
ATOM     31  C   UNL     1      -0.293   3.604  -3.869  0.00  0.00    -0.024 A 
ATOM     32  C   UNL     1      -1.482   4.170  -3.136  0.00  0.00    +0.046 C 
BRANCH  28  33
ATOM     33  C   UNL     1       3.076   1.999  -5.949  0.00  0.00    -0.013 C 
ATOM     34  C   UNL     1       2.667   1.635  -7.378  0.00  0.00    +0.015 C 
ATOM     35  C   UNL     1       4.194   3.043  -5.989  0.00  0.00    +0.015 C 
ATOM     36  C   UNL     1       3.573   0.746  -5.226  0.00  0.00    +0.015 C 
ENDBRANCH  28  33
ENDBRANCH  23  26
ENDBRANCH  21  23
ENDBRANCH   5  21
TORSDOF 7
