REMARK  Name = ZINC40969633
REMARK  12 active torsions:
REMARK  status: ('A' for Active; 'I' for Inactive)
REMARK    1  A    between atoms: C_1  and  C_2
REMARK    2  A    between atoms: C_5  and  N_8
REMARK    3  A    between atoms: C_13  and  C_15
REMARK    4  A    between atoms: C_16  and  C_18
REMARK    5  A    between atoms: N_21  and  C_24
REMARK    6  A    between atoms: C_24  and  C_25
REMARK    7  A    between atoms: C_26  and  C_40
REMARK    8  A    between atoms: C_28  and  C_30
REMARK    9  A    between atoms: C_34  and  O_38
REMARK   10  A    between atoms: C_35  and  O_36
REMARK   11  A    between atoms: O_36  and  C_37
REMARK   12  A    between atoms: O_38  and  C_39
REMARK                            x       y       z     vdW  Elec       q    Type
REMARK                         _______ _______ _______ _____ _____    ______ ____
ROOT
ATOM      1  C   UNL     1      -1.070  -8.737  -1.247  0.00  0.00    +0.072 C 
ATOM      2  C   UNL     1      -2.265  -8.294  -2.097  0.00  0.00    -0.006 C 
ATOM      3  C   UNL     1      -2.295  -9.112  -3.390  0.00  0.00    -0.078 C 
ATOM      4  N   UNL     1      -2.423 -10.538  -3.068  0.00  0.00    +0.383 N 
ATOM      5  C   UNL     1      -1.246 -10.987  -2.314  0.00  0.00    -0.078 C 
ATOM      6  C   UNL     1      -1.176 -10.241  -0.980  0.00  0.00    -0.006 C 
ATOM      7  H   UNL     1      -3.253 -10.683  -2.512  0.00  0.00    -0.081 HD
ENDROOT
BRANCH   1  15
ATOM      8  N   UNL     1       0.749  -4.445   0.134  0.00  0.00    -0.324 N 
ATOM      9  C   UNL     1       0.637  -5.165  -1.143  0.00  0.00    +0.124 C 
ATOM     10  C   UNL     1      -0.704  -5.909  -1.170  0.00  0.00    +0.126 C 
ATOM     11  N   UNL     1      -0.849  -6.663   0.083  0.00  0.00    -0.298 N 
ATOM     12  C   UNL     1      -0.737  -5.943   1.359  0.00  0.00    +0.130 C 
ATOM     13  C   UNL     1       0.609  -5.200   1.387  0.00  0.00    +0.088 C 
ATOM     14  C   UNL     1       1.754  -6.207   1.510  0.00  0.00    +0.029 C 
ATOM     15  C   UNL     1      -1.080  -7.990   0.062  0.00  0.00    +0.219 C 
ATOM     16  O   UNL     1      -1.295  -8.584   1.097  0.00  0.00    -0.275 OA
BRANCH   8  21
ATOM     17  C   UNL     1       1.723   1.141   0.220  0.00  0.00    +0.044 C 
ATOM     18  C   UNL     1       1.464  -0.344   0.197  0.00  0.00    -0.050 A 
ATOM     19  C   UNL     1       1.205  -1.017   1.377  0.00  0.00    +0.005 A 
ATOM     20  C   UNL     1       0.968  -2.378   1.359  0.00  0.00    +0.023 A 
ATOM     21  C   UNL     1       0.988  -3.069   0.155  0.00  0.00    +0.030 A 
ATOM     22  C   UNL     1       1.248  -2.389  -1.028  0.00  0.00    +0.023 A 
ATOM     23  C   UNL     1       1.480  -1.028  -1.004  0.00  0.00    +0.005 A 
ENDBRANCH   8  21
ENDBRANCH   1  15
BRANCH   4  24
ATOM     24  C   UNL     1      -2.530 -11.312  -4.312  0.00  0.00    -0.019 C 
BRANCH  24  25
ATOM     25  C   UNL     1      -2.784 -12.760  -3.983  0.00  0.00    +0.066 A 
ATOM     26  C   UNL     1      -1.847 -13.704  -3.782  0.00  0.00    +0.124 A 
ATOM     27  O   UNL     1      -2.491 -14.857  -3.514  0.00  0.00    -0.440 OA
ATOM     28  C   UNL     1      -3.811 -14.607  -3.554  0.00  0.00    +0.231 A 
ATOM     29  N   UNL     1      -3.987 -13.336  -3.832  0.00  0.00    -0.216 NA
ATOM     30  C   UNL     1      -0.354 -13.507  -3.845  0.00  0.00    +0.088 C 
BRANCH  28  31
ATOM     31  C   UNL     1      -4.884 -15.595  -3.319  0.00  0.00    +0.082 A 
ATOM     32  C   UNL     1      -6.224 -15.208  -3.396  0.00  0.00    +0.017 A 
ATOM     33  C   UNL     1      -7.222 -16.133  -3.176  0.00  0.00    +0.005 A 
ATOM     34  C   UNL     1      -6.904 -17.447  -2.878  0.00  0.00    +0.049 A 
ATOM     35  C   UNL     1      -5.580 -17.845  -2.799  0.00  0.00    +0.162 A 
ATOM     36  C   UNL     1      -4.563 -16.924  -3.024  0.00  0.00    +0.174 A 
BRANCH  36  37
ATOM     37  O   UNL     1      -3.262 -17.312  -2.953  0.00  0.00    -0.491 OA
ATOM     38  C   UNL     1      -2.627 -17.219  -1.676  0.00  0.00    +0.277 C 
ENDBRANCH  36  37
BRANCH  35  39
ATOM     39  O   UNL     1      -5.274 -19.137  -2.505  0.00  0.00    -0.491 OA
ATOM     40  C   UNL     1      -6.370 -20.030  -2.291  0.00  0.00    +0.277 C 
ENDBRANCH  35  39
ENDBRANCH  28  31
ENDBRANCH  24  25
ENDBRANCH   4  24
TORSDOF 7
