REMARK  Name = ZINC09635480
REMARK  5 active torsions:
REMARK  status: ('A' for Active; 'I' for Inactive)
REMARK    1  A    between atoms: C_4  and  N_7
REMARK    2  A    between atoms: N_7  and  C_8
REMARK    3  A    between atoms: C_16  and  C_18
REMARK    4  A    between atoms: C_18  and  S_19
REMARK    5  A    between atoms: S_19  and  C_20
REMARK                            x       y       z     vdW  Elec       q    Type
REMARK                         _______ _______ _______ _____ _____    ______ ____
ROOT
ATOM      1  C   UNL     1      -4.279  -1.031  -0.420  0.00  0.00    +0.173 C 
ENDROOT
BRANCH   1   3
ATOM      2  N   UNL     1      -5.114  -3.359  -0.437  0.00  0.00    -0.293 N 
ATOM      3  C   UNL     1      -5.395  -2.042  -0.489  0.00  0.00    +0.226 C 
ATOM      4  O   UNL     1      -6.545  -1.670  -0.591  0.00  0.00    -0.275 OA
BRANCH   2   5
ATOM      5  C   UNL     1      -3.740  -3.807  -0.201  0.00  0.00    +0.099 C 
ATOM      6  C   UNL     1      -3.669  -4.594   1.118  0.00  0.00    +0.046 C 
ATOM      7  C   UNL     1      -2.315  -5.337   1.218  0.00  0.00    +0.168 C 
ATOM      8  S   UNL     1      -1.876  -5.615  -0.546  0.00  0.00    -0.029 S 
ATOM      9  O   UNL     1      -0.675  -4.914  -0.840  0.00  0.00    -0.174 OA
ATOM     10  O   UNL     1      -1.962  -7.005  -0.829  0.00  0.00    -0.174 OA
ATOM     11  C   UNL     1      -3.288  -4.750  -1.352  0.00  0.00    +0.188 C 
ENDBRANCH   2   5
BRANCH   2  15
ATOM     12  C   UNL     1      -9.002  -4.988  -1.097  0.00  0.00    +0.000 C 
ATOM     13  C   UNL     1      -8.362  -5.176   0.280  0.00  0.00    +0.002 C 
ATOM     14  C   UNL     1      -7.245  -4.148   0.468  0.00  0.00    +0.022 C 
ATOM     15  C   UNL     1      -6.184  -4.343  -0.617  0.00  0.00    +0.076 C 
ATOM     16  C   UNL     1      -6.824  -4.155  -1.995  0.00  0.00    +0.022 C 
ATOM     17  C   UNL     1      -7.941  -5.184  -2.183  0.00  0.00    +0.002 C 
ENDBRANCH   2  15
ENDBRANCH   1   3
BRANCH   1  18
ATOM     18  S   UNL     1      -4.979   0.638  -0.394  0.00  0.00    -0.077 S 
BRANCH  18  19
ATOM     19  C   UNL     1      -3.498   1.589  -0.314  0.00  0.00    +0.191 A 
ATOM     20  N   UNL     1      -2.324   0.968  -0.293  0.00  0.00    -0.207 NA
ATOM     21  C   UNL     1      -1.180   1.628  -0.233  0.00  0.00    +0.129 A 
ATOM     22  C   UNL     1      -1.200   3.050  -0.185  0.00  0.00    +0.051 A 
ATOM     23  C   UNL     1      -0.068   3.979  -0.124  0.00  0.00    -0.025 A 
ATOM     24  C   UNL     1      -0.358   5.295  -0.095  0.00  0.00    -0.004 A 
ATOM     25  S   UNL     1      -2.128   5.380  -0.151  0.00  0.00    -0.073 S 
ATOM     26  C   UNL     1      -2.478   3.642  -0.216  0.00  0.00    +0.115 A 
ATOM     27  N   UNL     1      -3.575   2.913  -0.276  0.00  0.00    -0.214 NA
ATOM     28  C   UNL     1       0.610   6.436  -0.028  0.00  0.00    +0.043 C 
ATOM     29  C   UNL     1       1.984   5.883   0.376  0.00  0.00    +0.005 C 
ATOM     30  C   UNL     1       2.294   4.657  -0.488  0.00  0.00    +0.005 C 
ATOM     31  C   UNL     1       1.380   3.498  -0.091  0.00  0.00    +0.037 C 
ATOM     32  N   UNL     1       0.022   0.944  -0.213  0.00  0.00    -0.343 N 
ATOM     33  H   UNL     1       0.051   0.008  -0.467  0.00  0.00    +0.144 HD
ATOM     34  H   UNL     1       0.835   1.401   0.052  0.00  0.00    +0.144 HD
ENDBRANCH  18  19
ENDBRANCH   1  18
TORSDOF 5
