REMARK  Name = ZINC32668002
REMARK  7 active torsions:
REMARK  status: ('A' for Active; 'I' for Inactive)
REMARK    1  A    between atoms: C_1  and  C_2
REMARK    2  A    between atoms: C_3  and  C_34
REMARK    3  A    between atoms: C_11  and  C_13
REMARK    4  A    between atoms: C_13  and  C_15
REMARK    5  A    between atoms: C_13  and  S_16
REMARK    6  A    between atoms: S_16  and  C_17
REMARK    7  A    between atoms: N_25  and  C_28
REMARK                            x       y       z     vdW  Elec       q    Type
REMARK                         _______ _______ _______ _____ _____    ______ ____
ROOT
ATOM      1  C   UNL     1      -0.668  -3.894   7.222  0.00  0.00    +0.172 A 
ATOM      2  N   UNL     1      -1.170  -3.608   8.459  0.00  0.00    -0.301 N 
ATOM      3  H   UNL     1      -1.499  -2.717   8.652  0.00  0.00    +0.171 HD
ATOM      4  C   UNL     1      -1.212  -4.563   9.415  0.00  0.00    +0.263 A 
ATOM      5  O   UNL     1      -1.658  -4.319  10.522  0.00  0.00    -0.267 OA
ATOM      6  C   UNL     1      -0.723  -5.855   9.096  0.00  0.00    +0.103 A 
ATOM      7  C   UNL     1      -0.608  -7.065   9.810  0.00  0.00    +0.150 A 
ATOM      8  N   UNL     1      -0.078  -7.959   9.022  0.00  0.00    -0.172 NA
ATOM      9  N   UNL     1       0.177  -7.389   7.769  0.00  0.00    -0.214 N 
ATOM     10  C   UNL     1      -0.219  -6.085   7.805  0.00  0.00    +0.171 A 
ATOM     11  N   UNL     1      -0.216  -5.089   6.911  0.00  0.00    -0.204 NA
ENDROOT
BRANCH   9  12
ATOM     12  C   UNL     1       0.743  -8.045   6.668  0.00  0.00    +0.068 A 
ATOM     13  C   UNL     1       0.333  -7.723   5.381  0.00  0.00    +0.028 A 
ATOM     14  C   UNL     1       0.892  -8.371   4.297  0.00  0.00    +0.002 A 
ATOM     15  C   UNL     1       1.860  -9.340   4.493  0.00  0.00    +0.000 A 
ATOM     16  C   UNL     1       2.269  -9.663   5.774  0.00  0.00    +0.002 A 
ATOM     17  C   UNL     1       1.718  -9.014   6.861  0.00  0.00    +0.028 A 
ENDBRANCH   9  12
BRANCH   1  18
ATOM     18  S   UNL     1      -0.631  -2.623   6.002  0.00  0.00    -0.077 S 
BRANCH  18  19
ATOM     19  C   UNL     1       0.090  -3.432   4.547  0.00  0.00    +0.117 C 
ATOM     20  C   UNL     1       1.535  -3.832   4.850  0.00  0.00    +0.027 C 
BRANCH  19  31
ATOM     21  C   UNL     1      -0.018   1.503   0.010  0.00  0.00    +0.045 C 
ATOM     22  C   UNL     1       0.002  -0.004   0.002  0.00  0.00    -0.026 A 
ATOM     23  C   UNL     1       0.006  -0.677  -1.160  0.00  0.00    -0.008 A 
ATOM     24  S   UNL     1       0.032  -2.385  -0.648  0.00  0.00    -0.073 S 
ATOM     25  C   UNL     1       0.037  -2.144   1.110  0.00  0.00    +0.116 A 
ATOM     26  C   UNL     1       0.024  -0.745   1.250  0.00  0.00    +0.075 A 
ATOM     27  C   UNL     1       0.029  -0.257   2.597  0.00  0.00    +0.260 A 
ATOM     28  O   UNL     1       0.014   0.942   2.821  0.00  0.00    -0.267 OA
ATOM     29  N   UNL     1       0.051  -1.142   3.611  0.00  0.00    -0.309 N 
ATOM     30  H   UNL     1       0.054  -0.817   4.525  0.00  0.00    +0.170 HD
ATOM     31  C   UNL     1       0.067  -2.480   3.380  0.00  0.00    +0.124 A 
ATOM     32  N   UNL     1       0.053  -2.956   2.163  0.00  0.00    -0.225 NA
ATOM     33  C   UNL     1      -0.009  -0.122  -2.561  0.00  0.00    +0.052 C 
ENDBRANCH  19  31
ENDBRANCH  18  19
ENDBRANCH   1  18
TORSDOF 4
