REMARK  Name = ZINC09423320
REMARK  11 active torsions:
REMARK  status: ('A' for Active; 'I' for Inactive)
REMARK    1  A    between atoms: C_1  and  C_2
REMARK    2  A    between atoms: C_2  and  N_3
REMARK    3  A    between atoms: C_5  and  C_14
REMARK    4  A    between atoms: C_10  and  O_12
REMARK    5  A    between atoms: O_12  and  C_13
REMARK    6  A    between atoms: C_21  and  O_34
REMARK    7  A    between atoms: C_22  and  C_25
REMARK    8  A    between atoms: C_25  and  N_63
REMARK    9  A    between atoms: C_26  and  N_63
REMARK   10  A    between atoms: C_27  and  C_28
REMARK   11  A    between atoms: C_27  and  N_63
REMARK                            x       y       z     vdW  Elec       q    Type
REMARK                         _______ _______ _______ _____ _____    ______ ____
ROOT
ATOM      1  C   UNL     1       1.624  -1.797  -0.023  0.00  0.00    +0.060 C 
ATOM      2  C   UNL     1       1.288  -0.514   0.288  0.00  0.00    +0.176 C 
ATOM      3  C   UNL     1       2.193   0.514   0.662  0.00  0.00    +0.231 C 
ATOM      4  O   UNL     1       3.406   0.430   0.768  0.00  0.00    -0.283 OA
ATOM      5  C   UNL     1       1.354   1.702   0.894  0.00  0.00    +0.068 A 
ATOM      6  C   UNL     1       1.631   3.014   1.278  0.00  0.00    +0.019 A 
ATOM      7  C   UNL     1       0.612   3.913   1.414  0.00  0.00    +0.046 A 
ATOM      8  C   UNL     1      -0.703   3.525   1.169  0.00  0.00    +0.122 A 
ATOM      9  C   UNL     1      -0.994   2.224   0.790  0.00  0.00    +0.020 A 
ATOM     10  C   UNL     1       0.032   1.300   0.644  0.00  0.00    +0.144 A 
ATOM     11  O   UNL     1       0.033  -0.004   0.292  0.00  0.00    -0.451 OA
ENDROOT
BRANCH   1  14
ATOM     12  N   UNL     1       5.205  -2.112  -0.649  0.00  0.00    -0.346 N 
ATOM     13  C   UNL     1       4.037  -1.429  -0.726  0.00  0.00    +0.094 A 
ATOM     14  C   UNL     1       3.030  -2.174  -0.149  0.00  0.00    +0.004 A 
ATOM     15  C   UNL     1       3.655  -3.430   0.309  0.00  0.00    +0.011 A 
ATOM     16  C   UNL     1       5.013  -3.333  -0.031  0.00  0.00    +0.050 A 
ATOM     17  C   UNL     1       5.872  -4.382   0.281  0.00  0.00    +0.030 A 
ATOM     18  C   UNL     1       5.387  -5.505   0.915  0.00  0.00    +0.047 A 
ATOM     19  C   UNL     1       4.041  -5.602   1.252  0.00  0.00    +0.121 A 
ATOM     20  C   UNL     1       3.174  -4.568   0.951  0.00  0.00    +0.056 A 
BRANCH  12  22
ATOM     21  C   UNL     1       6.718  -2.167  -2.570  0.00  0.00    +0.027 C 
ATOM     22  C   UNL     1       6.491  -1.627  -1.157  0.00  0.00    +0.118 C 
ENDBRANCH  12  22
BRANCH  19  23
ATOM     23  O   UNL     1       3.577  -6.715   1.879  0.00  0.00    -0.495 OA
ATOM     24  C   UNL     1       4.527  -7.745   2.160  0.00  0.00    +0.277 C 
ENDBRANCH  19  23
ENDBRANCH   1  14
BRANCH   8  25
ATOM     25  O   UNL     1      -1.708   4.427   1.306  0.00  0.00    -0.506 OA
ATOM     26  H   UNL     1      -1.909   4.918   0.498  0.00  0.00    +0.292 HD
ENDBRANCH   8  25
BRANCH   9  27
ATOM     27  C   UNL     1      -2.421   1.815   0.534  0.00  0.00    -0.035 C 
BRANCH  27  29
ATOM     28  C   UNL     1      -2.373   0.077   2.220  0.00  0.00    -0.095 C 
ATOM     29  N   UNL     1      -3.016   1.341   1.802  0.00  0.00    +0.383 N 
ATOM     30  H   UNL     1      -2.862   2.050   2.528  0.00  0.00    -0.081 HD
BRANCH  29  31
ATOM     31  C   UNL     1      -4.470   1.136   1.631  0.00  0.00    -0.043 C 
BRANCH  31  32
ATOM     32  C   UNL     1      -5.084   0.869   2.981  0.00  0.00    -0.064 A 
ATOM     33  C   UNL     1      -5.205  -0.429   3.442  0.00  0.00    +0.002 A 
ATOM     34  C   UNL     1      -5.764  -0.673   4.682  0.00  0.00    +0.000 A 
ATOM     35  C   UNL     1      -6.212   0.380   5.458  0.00  0.00    +0.000 A 
ATOM     36  C   UNL     1      -6.096   1.677   4.995  0.00  0.00    +0.000 A 
ATOM     37  C   UNL     1      -5.532   1.922   3.757  0.00  0.00    +0.002 A 
ENDBRANCH  31  32
ENDBRANCH  29  31
ENDBRANCH  27  29
ENDBRANCH   9  27
TORSDOF 8
