REMARK  Name = ZINC21810100
REMARK  10 active torsions:
REMARK  status: ('A' for Active; 'I' for Inactive)
REMARK    1  A    between atoms: C_1  and  C_2
REMARK    2  A    between atoms: C_2  and  C_3
REMARK    3  A    between atoms: C_12  and  C_25
REMARK    4  A    between atoms: C_12  and  C_26
REMARK    5  A    between atoms: N_13  and  C_16
REMARK    6  A    between atoms: C_16  and  C_17
REMARK    7  A    between atoms: C_17  and  C_18
REMARK    8  A    between atoms: C_18  and  N_19
REMARK    9  A    between atoms: N_28  and  C_29
REMARK   10  A    between atoms: C_32  and  C_35
REMARK                            x       y       z     vdW  Elec       q    Type
REMARK                         _______ _______ _______ _____ _____    ______ ____
ROOT
ATOM      1  C   UNL     1      -6.101  -4.847   9.690  0.00  0.00    -0.008 A 
ATOM      2  C   UNL     1      -5.505  -4.713   8.487  0.00  0.00    +0.037 A 
ATOM      3  C   UNL     1      -4.483  -3.769   8.307  0.00  0.00    +0.057 A 
ATOM      4  C   UNL     1      -4.154  -3.009   9.440  0.00  0.00    +0.038 A 
ATOM      5  S   UNL     1      -5.255  -3.630  10.684  0.00  0.00    -0.092 S 
ATOM      6  C   UNL     1      -3.137  -2.116   9.121  0.00  0.00    +0.048 A 
ATOM      7  C   UNL     1      -2.832  -2.308   7.806  0.00  0.00    +0.106 A 
ATOM      8  N   UNL     1      -3.642  -3.321   7.305  0.00  0.00    -0.333 N 
ATOM      9  C   UNL     1      -3.538  -3.782   5.918  0.00  0.00    +0.157 C 
ATOM     10  C   UNL     1      -3.056  -2.625   5.042  0.00  0.00    +0.128 C 
ATOM     11  N   UNL     1      -1.923  -1.914   5.622  0.00  0.00    -0.281 N 
ATOM     12  C   UNL     1      -1.851  -1.636   6.945  0.00  0.00    +0.264 C 
ATOM     13  O   UNL     1      -1.018  -0.870   7.396  0.00  0.00    -0.268 OA
ATOM     14  C   UNL     1      -4.211  -1.640   4.849  0.00  0.00    +0.043 C 
ENDROOT
BRANCH  10  15
ATOM     15  C   UNL     1      -2.652  -3.169   3.696  0.00  0.00    +0.238 C 
ATOM     16  O   UNL     1      -3.385  -3.027   2.740  0.00  0.00    -0.273 OA
ATOM     17  N   UNL     1      -1.477  -3.813   3.555  0.00  0.00    -0.311 N 
ATOM     18  H   UNL     1      -0.847  -4.008   4.436  0.00  0.00    +0.149 HD
BRANCH  17  19
ATOM     19  C   UNL     1      -1.037  -4.254   2.228  0.00  0.00    +0.073 C 
ATOM     20  C   UNL     1      -0.540  -5.698   2.310  0.00  0.00    +0.022 C 
ATOM     21  C   UNL     1       0.633  -5.780   3.288  0.00  0.00    +0.005 C 
ATOM     22  C   UNL     1       1.768  -4.876   2.801  0.00  0.00    -0.014 C 
ATOM     23  C   UNL     1       1.270  -3.432   2.720  0.00  0.00    +0.005 C 
ATOM     24  C   UNL     1       0.097  -3.350   1.741  0.00  0.00    +0.022 C 
ATOM     25  C   UNL     1       2.941  -4.958   3.780  0.00  0.00    +0.007 C 
ENDBRANCH  17  19
ENDBRANCH  10  15
BRANCH   1  27
ATOM     26  C   UNL     1      -6.598  -7.098  10.605  0.00  0.00    +0.009 C 
ATOM     27  C   UNL     1      -7.206  -5.790  10.093  0.00  0.00    +0.039 C 
ENDBRANCH   1  27
BRANCH  11  28
ATOM     28  C   UNL     1      -0.828  -1.489   4.747  0.00  0.00    +0.107 C 
BRANCH  28  29
ATOM     29  C   UNL     1      -1.024  -0.021   4.363  0.00  0.00    +0.000 C 
BRANCH  29  30
ATOM     30  C   UNL     1       0.065   0.397   3.372  0.00  0.00    -0.077 C 
BRANCH  30  31
ATOM     31  N   UNL     1      -0.040   1.838   3.107  0.00  0.00    +0.380 N 
ATOM     32  C   UNL     1      -1.219   2.137   2.284  0.00  0.00    -0.079 C 
ATOM     33  C   UNL     1      -1.379   3.653   2.151  0.00  0.00    -0.019 C 
ATOM     34  C   UNL     1      -0.120   4.238   1.504  0.00  0.00    -0.004 C 
ATOM     35  C   UNL     1       1.099   3.872   2.354  0.00  0.00    -0.019 C 
ATOM     36  C   UNL     1       1.187   2.349   2.482  0.00  0.00    -0.079 C 
ATOM     37  H   UNL     1      -0.165   2.352   4.071  0.00  0.00    -0.082 HD
ENDBRANCH  30  31
ENDBRANCH  29  30
ENDBRANCH  28  29
ENDBRANCH  11  28
TORSDOF 7
