REMARK  Name = ZINC34747969
REMARK  6 active torsions:
REMARK  status: ('A' for Active; 'I' for Inactive)
REMARK    1  A    between atoms: C_4  and  C_7
REMARK    2  A    between atoms: C_7  and  C_8
REMARK    3  A    between atoms: C_8  and  C_9
REMARK    4  A    between atoms: C_9  and  N_10
REMARK    5  A    between atoms: N_28  and  C_29
REMARK    6  A    between atoms: C_29  and  C_30
REMARK                            x       y       z     vdW  Elec       q    Type
REMARK                         _______ _______ _______ _____ _____    ______ ____
ROOT
ATOM      1  N   UNL     1       5.237  -1.385   3.929  0.00  0.00    +0.382 N 
ATOM      2  C   UNL     1       5.589  -1.354   5.355  0.00  0.00    -0.060 C 
ATOM      3  C   UNL     1       6.920  -2.082   5.566  0.00  0.00    +0.089 C 
ATOM      4  N   UNL     1       6.808  -3.434   4.997  0.00  0.00    -0.304 N 
ATOM      5  C   UNL     1       6.304  -3.568   3.622  0.00  0.00    +0.089 C 
ATOM      6  C   UNL     1       5.002  -2.770   3.502  0.00  0.00    -0.060 C 
ATOM      7  C   UNL     1       7.164  -4.540   5.729  0.00  0.00    +0.202 A 
ATOM      8  N   UNL     1       6.264  -5.135   6.484  0.00  0.00    -0.208 NA
ATOM      9  C   UNL     1       6.582  -6.207   7.202  0.00  0.00    +0.117 A 
ATOM     10  C   UNL     1       7.873  -6.752   7.195  0.00  0.00    +0.076 A 
ATOM     11  C   UNL     1       8.078  -7.940   8.040  0.00  0.00    -0.023 A 
ATOM     12  C   UNL     1       7.015  -8.385   8.730  0.00  0.00    -0.004 A 
ATOM     13  S   UNL     1       5.695  -7.269   8.311  0.00  0.00    -0.073 S 
ATOM     14  C   UNL     1       7.340  -9.603   9.552  0.00  0.00    +0.043 C 
ATOM     15  C   UNL     1       8.662 -10.133   8.954  0.00  0.00    +0.010 C 
ATOM     16  C   UNL     1       9.269  -8.850   8.352  0.00  0.00    +0.037 C 
ATOM     17  C   UNL     1       8.831  -6.087   6.366  0.00  0.00    +0.264 A 
ATOM     18  O   UNL     1       9.978  -6.492   6.297  0.00  0.00    -0.267 OA
ATOM     19  N   UNL     1       8.443  -5.008   5.660  0.00  0.00    -0.271 N 
ATOM     20  H   UNL     1       5.993  -0.991   3.390  0.00  0.00    -0.082 HD
ENDROOT
BRANCH   1  21
ATOM     21  C   UNL     1       4.019  -0.593   3.711  0.00  0.00    -0.078 C 
BRANCH  21  22
ATOM     22  C   UNL     1       4.298   0.875   4.038  0.00  0.00    -0.014 C 
BRANCH  22  23
ATOM     23  C   UNL     1       3.030   1.699   3.811  0.00  0.00    +0.033 C 
BRANCH  23  27
ATOM     24  C   UNL     1       3.809   5.798   4.724  0.00  0.00    +0.000 A 
ATOM     25  C   UNL     1       4.011   5.326   3.441  0.00  0.00    +0.000 A 
ATOM     26  C   UNL     1       3.759   3.999   3.145  0.00  0.00    +0.003 A 
ATOM     27  C   UNL     1       3.305   3.145   4.133  0.00  0.00    -0.047 A 
ATOM     28  C   UNL     1       3.104   3.618   5.416  0.00  0.00    +0.003 A 
ATOM     29  C   UNL     1       3.354   4.945   5.711  0.00  0.00    +0.000 A 
ENDBRANCH  23  27
ENDBRANCH  22  23
ENDBRANCH  21  22
ENDBRANCH   1  21
BRANCH  19  30
ATOM     30  C   UNL     1       9.414  -4.322   4.804  0.00  0.00    +0.224 C 
BRANCH  30  31
ATOM     31  C   UNL     1      10.175  -3.309   5.620  0.00  0.00    +0.236 C 
ATOM     32  O   UNL     1       9.930  -3.174   6.800  0.00  0.00    -0.274 OA
ATOM     33  N   UNL     1      11.128  -2.554   5.038  0.00  0.00    -0.300 N 
ATOM     34  C   UNL     1      11.431  -2.702   3.609  0.00  0.00    +0.108 C 
ATOM     35  C   UNL     1      11.335  -1.328   2.939  0.00  0.00    +0.019 C 
ATOM     36  C   UNL     1      12.245  -0.342   3.676  0.00  0.00    +0.003 C 
ATOM     37  C   UNL     1      11.781  -0.205   5.128  0.00  0.00    +0.019 C 
ATOM     38  C   UNL     1      11.878  -1.562   5.821  0.00  0.00    +0.108 C 
ENDBRANCH  30  31
ENDBRANCH  19  30
TORSDOF 6
