REMARK  Name = ZINC01214482
REMARK  5 active torsions:
REMARK  status: ('A' for Active; 'I' for Inactive)
REMARK    1  A    between atoms: C_1  and  C_2
REMARK    2  A    between atoms: C_10  and  C_13
REMARK    3  A    between atoms: C_18  and  C_23
REMARK    4  A    between atoms: C_26  and  O_29
REMARK    5  A    between atoms: O_29  and  C_30
REMARK                            x       y       z     vdW  Elec       q    Type
REMARK                         _______ _______ _______ _____ _____    ______ ____
ROOT
ATOM      1  C   UNL     1       5.660   6.791   0.052  0.00  0.00    +0.143 C 
ATOM      2  C   UNL     1       4.340   6.058   0.074  0.00  0.00    +0.037 C 
ATOM      3  C   UNL     1       3.674   5.600  -1.000  0.00  0.00    +0.017 C 
ATOM      4  C   UNL     1       2.347   4.879  -0.833  0.00  0.00    +0.059 C 
ATOM      5  C   UNL     1       2.337   4.103   0.483  0.00  0.00    +0.032 C 
ATOM      6  C   UNL     1       2.542   5.111   1.620  0.00  0.00    +0.088 C 
ATOM      7  C   UNL     1       3.819   5.855   1.375  0.00  0.00    +0.163 C 
ATOM      8  O   UNL     1       4.430   6.301   2.326  0.00  0.00    -0.292 OA
ATOM      9  N   UNL     1       4.088   5.740  -2.284  0.00  0.00    -0.316 N 
ATOM     10  C   UNL     1       5.378   5.485  -2.736  0.00  0.00    +0.052 A 
ATOM     11  C   UNL     1       5.662   4.469  -3.632  0.00  0.00    +0.025 A 
ATOM     12  C   UNL     1       6.962   4.300  -4.077  0.00  0.00    +0.002 A 
ATOM     13  C   UNL     1       7.966   5.141  -3.633  0.00  0.00    +0.002 A 
ATOM     14  C   UNL     1       7.687   6.146  -2.723  0.00  0.00    +0.025 A 
ATOM     15  C   UNL     1       6.391   6.303  -2.260  0.00  0.00    +0.049 A 
ATOM     16  N   UNL     1       6.083   7.227  -1.262  0.00  0.00    -0.331 N 
ATOM     17  H   UNL     1       3.436   6.042  -2.936  0.00  0.00    +0.152 HD
ATOM     18  H   UNL     1       6.154   8.175  -1.451  0.00  0.00    +0.147 HD
ENDROOT
BRANCH   1  28
ATOM     19  C   UNL     1      12.318   5.443   3.316  0.00  0.00    +0.044 C 
ATOM     20  C   UNL     1      11.011   4.981   2.724  0.00  0.00    -0.050 A 
ATOM     21  C   UNL     1      10.716   3.626   2.675  0.00  0.00    +0.007 A 
ATOM     22  C   UNL     1       9.526   3.184   2.138  0.00  0.00    +0.047 A 
ATOM     23  C   UNL     1       8.608   4.100   1.638  0.00  0.00    +0.138 A 
ATOM     24  C   UNL     1       8.908   5.471   1.688  0.00  0.00    +0.065 A 
ATOM     25  C   UNL     1      10.115   5.906   2.235  0.00  0.00    +0.018 A 
ATOM     26  C   UNL     1       7.917   6.423   1.152  0.00  0.00    +0.198 A 
ATOM     27  O   UNL     1       8.118   7.626   1.167  0.00  0.00    -0.287 OA
ATOM     28  C   UNL     1       6.718   5.880   0.618  0.00  0.00    +0.059 A 
ATOM     29  C   UNL     1       6.532   4.548   0.624  0.00  0.00    +0.205 A 
ATOM     30  O   UNL     1       7.437   3.691   1.108  0.00  0.00    -0.462 OA
ENDBRANCH   1  28
BRANCH   5  31
ATOM     31  C   UNL     1       1.014   3.402   0.653  0.00  0.00    -0.043 A 
ATOM     32  C   UNL     1       0.972   2.024   0.766  0.00  0.00    +0.007 A 
ATOM     33  C   UNL     1      -0.239   1.379   0.922  0.00  0.00    +0.046 A 
ATOM     34  C   UNL     1      -1.415   2.115   0.959  0.00  0.00    +0.120 A 
ATOM     35  C   UNL     1      -1.370   3.497   0.851  0.00  0.00    +0.046 A 
ATOM     36  C   UNL     1      -0.156   4.137   0.695  0.00  0.00    +0.007 A 
BRANCH  34  37
ATOM     37  O   UNL     1      -2.609   1.482   1.107  0.00  0.00    -0.495 OA
ATOM     38  C   UNL     1      -3.779   2.303   1.137  0.00  0.00    +0.277 C 
ENDBRANCH  34  37
ENDBRANCH   5  31
TORSDOF 3
