REMARK  Name = ZINC14275140
REMARK  9 active torsions:
REMARK  status: ('A' for Active; 'I' for Inactive)
REMARK    1  A    between atoms: C_1  and  C_2
REMARK    2  A    between atoms: C_9  and  C_11
REMARK    3  A    between atoms: C_13  and  N_18
REMARK    4  A    between atoms: C_16  and  O_17
REMARK    5  A    between atoms: N_18  and  C_19
REMARK    6  A    between atoms: C_19  and  N_21
REMARK    7  A    between atoms: C_22  and  C_24
REMARK    8  A    between atoms: C_27  and  O_32
REMARK    9  A    between atoms: O_32  and  C_33
REMARK                            x       y       z     vdW  Elec       q    Type
REMARK                         _______ _______ _______ _____ _____    ______ ____
ROOT
ATOM      1  N   UNL     1      -1.240   2.063   0.019  0.00  0.00    -0.297 N 
ATOM      2  H   UNL     1      -1.845   1.984  -0.735  0.00  0.00    +0.154 HD
ENDROOT
BRANCH   1   5
ATOM      3  C   UNL     1       1.280  -0.593  -0.424  0.00  0.00    +0.080 A 
ATOM      4  C   UNL     1       0.052   0.071  -0.403  0.00  0.00    +0.040 A 
ATOM      5  C   UNL     1      -0.010   1.393   0.003  0.00  0.00    +0.034 A 
ATOM      6  C   UNL     1       1.148   2.060   0.388  0.00  0.00    +0.027 A 
ATOM      7  C   UNL     1       2.366   1.409   0.369  0.00  0.00    +0.048 A 
ATOM      8  C   UNL     1       2.442   0.085  -0.034  0.00  0.00    +0.129 A 
BRANCH   3  17
ATOM      9  C   UNL     1       3.051  -7.509  -2.319  0.00  0.00    +0.044 C 
ATOM     10  C   UNL     1       2.253  -6.260  -2.050  0.00  0.00    -0.047 A 
ATOM     11  C   UNL     1       0.881  -6.261  -2.260  0.00  0.00    +0.005 A 
ATOM     12  C   UNL     1       0.138  -5.128  -2.018  0.00  0.00    +0.032 A 
ATOM     13  C   UNL     1       0.771  -3.969  -1.559  0.00  0.00    +0.110 A 
ATOM     14  C   UNL     1       2.159  -3.973  -1.348  0.00  0.00    +0.156 A 
ATOM     15  C   UNL     1       2.891  -5.124  -1.597  0.00  0.00    +0.052 A 
ATOM     16  O   UNL     1       2.483  -2.733  -0.917  0.00  0.00    -0.435 OA
ATOM     17  C   UNL     1       1.353  -2.003  -0.854  0.00  0.00    +0.232 A 
ATOM     18  N   UNL     1       0.330  -2.726  -1.236  0.00  0.00    -0.209 NA
ENDBRANCH   3  17
BRANCH   8  19
ATOM     19  O   UNL     1       3.640  -0.553  -0.052  0.00  0.00    -0.506 OA
ATOM     20  H   UNL     1       4.114  -0.476  -0.892  0.00  0.00    +0.292 HD
ENDBRANCH   8  19
ENDBRANCH   1   5
BRANCH   1  21
ATOM     21  C   UNL     1      -1.583   2.816   1.083  0.00  0.00    +0.141 C 
ATOM     22  S   UNL     1      -0.472   3.043   2.365  0.00  0.00    -0.018 S 
BRANCH  21  23
ATOM     23  N   UNL     1      -2.801   3.391   1.137  0.00  0.00    -0.263 N 
ATOM     24  C   UNL     1      -3.144   4.144   2.200  0.00  0.00    +0.255 C 
ATOM     25  O   UNL     1      -2.355   4.306   3.111  0.00  0.00    -0.270 OA
ATOM     26  H   UNL     1      -3.431   3.263   0.410  0.00  0.00    +0.157 HD
BRANCH  24  27
ATOM     27  C   UNL     1      -4.475   4.772   2.259  0.00  0.00    +0.113 A 
ATOM     28  C   UNL     1      -5.551   4.086   2.837  0.00  0.00    +0.177 A 
ATOM     29  C   UNL     1      -6.795   4.683   2.894  0.00  0.00    +0.204 A 
ATOM     30  C   UNL     1      -6.984   5.956   2.370  0.00  0.00    +0.196 A 
ATOM     31  C   UNL     1      -5.921   6.640   1.790  0.00  0.00    +0.204 A 
ATOM     32  C   UNL     1      -4.670   6.056   1.732  0.00  0.00    +0.177 A 
ATOM     33  F   UNL     1      -3.638   6.720   1.169  0.00  0.00    -0.201 F 
ATOM     34  F   UNL     1      -6.111   7.877   1.283  0.00  0.00    -0.198 F 
ATOM     35  F   UNL     1      -7.833   4.024   3.456  0.00  0.00    -0.198 F 
ATOM     36  F   UNL     1      -5.371   2.846   3.341  0.00  0.00    -0.201 F 
BRANCH  30  37
ATOM     37  O   UNL     1      -8.211   6.535   2.424  0.00  0.00    -0.489 OA
ATOM     38  C   UNL     1      -9.087   6.304   1.319  0.00  0.00    +0.277 C 
ENDBRANCH  30  37
ENDBRANCH  24  27
ENDBRANCH  21  23
ENDBRANCH   1  21
TORSDOF 7
