REMARK  Name = ZINC15220645
REMARK  9 active torsions:
REMARK  status: ('A' for Active; 'I' for Inactive)
REMARK    1  A    between atoms: C_1  and  C_2
REMARK    2  A    between atoms: C_3  and  C_36
REMARK    3  A    between atoms: C_11  and  C_13
REMARK    4  A    between atoms: C_13  and  C_15
REMARK    5  A    between atoms: C_13  and  S_16
REMARK    6  A    between atoms: S_16  and  C_17
REMARK    7  A    between atoms: N_27  and  C_28
REMARK    8  A    between atoms: C_32  and  O_34
REMARK    9  A    between atoms: O_34  and  C_35
REMARK                            x       y       z     vdW  Elec       q    Type
REMARK                         _______ _______ _______ _____ _____    ______ ____
ROOT
ATOM      1  C   UNL     1       0.107  -0.006  -0.498  0.00  0.00    +0.177 A 
ATOM      2  N   UNL     1       0.096   1.304  -0.523  0.00  0.00    -0.223 NA
ATOM      3  C   UNL     1       1.141   2.029  -0.062  0.00  0.00    +0.079 A 
ATOM      4  C   UNL     1       1.131   3.427  -0.086  0.00  0.00    +0.028 A 
ATOM      5  C   UNL     1       2.209   4.119   0.390  0.00  0.00    +0.002 A 
ATOM      6  C   UNL     1       3.317   3.455   0.900  0.00  0.00    +0.001 A 
ATOM      7  C   UNL     1       3.356   2.088   0.938  0.00  0.00    +0.015 A 
ATOM      8  C   UNL     1       2.271   1.356   0.458  0.00  0.00    +0.065 A 
ATOM      9  C   UNL     1       2.258  -0.112   0.474  0.00  0.00    +0.267 A 
ATOM     10  O   UNL     1       3.201  -0.747   0.909  0.00  0.00    -0.267 OA
ATOM     11  N   UNL     1       1.159  -0.734  -0.013  0.00  0.00    -0.255 N 
ENDROOT
BRANCH  11  12
ATOM     12  C   UNL     1       1.097  -2.133  -0.019  0.00  0.00    +0.055 A 
ATOM     13  C   UNL     1       1.558  -2.845  -1.120  0.00  0.00    +0.026 A 
ATOM     14  C   UNL     1       1.502  -4.225  -1.125  0.00  0.00    +0.006 A 
ATOM     15  C   UNL     1       0.978  -4.901  -0.039  0.00  0.00    +0.046 A 
ATOM     16  C   UNL     1       0.511  -4.196   1.061  0.00  0.00    +0.122 A 
ATOM     17  C   UNL     1       0.570  -2.811   1.071  0.00  0.00    +0.072 A 
BRANCH  16  18
ATOM     18  O   UNL     1      -0.005  -4.862   2.127  0.00  0.00    -0.495 OA
ATOM     19  C   UNL     1      -0.035  -6.288   2.048  0.00  0.00    +0.277 C 
ENDBRANCH  16  18
ENDBRANCH  11  12
BRANCH   1  20
ATOM     20  S   UNL     1      -1.298  -0.871  -1.119  0.00  0.00    -0.076 S 
BRANCH  20  21
ATOM     21  C   UNL     1      -2.337   0.528  -1.608  0.00  0.00    +0.117 C 
ATOM     22  C   UNL     1      -1.660   1.292  -2.748  0.00  0.00    +0.027 C 
BRANCH  21  33
ATOM     23  C   UNL     1      -8.665  -0.934  -3.267  0.00  0.00    +0.045 C 
ATOM     24  C   UNL     1      -7.307  -1.564  -3.435  0.00  0.00    -0.026 A 
ATOM     25  C   UNL     1      -7.176  -2.739  -4.070  0.00  0.00    -0.008 A 
ATOM     26  S   UNL     1      -5.422  -3.050  -4.008  0.00  0.00    -0.073 S 
ATOM     27  C   UNL     1      -4.916  -1.593  -3.131  0.00  0.00    +0.116 A 
ATOM     28  C   UNL     1      -6.123  -0.907  -2.911  0.00  0.00    +0.075 A 
ATOM     29  C   UNL     1      -6.010   0.336  -2.207  0.00  0.00    +0.260 A 
ATOM     30  O   UNL     1      -7.001   1.004  -1.968  0.00  0.00    -0.267 OA
ATOM     31  N   UNL     1      -4.793   0.750  -1.807  0.00  0.00    -0.309 N 
ATOM     32  H   UNL     1      -4.711   1.588  -1.326  0.00  0.00    +0.170 HD
ATOM     33  C   UNL     1      -3.678   0.021  -2.069  0.00  0.00    +0.124 A 
ATOM     34  N   UNL     1      -3.748  -1.115  -2.710  0.00  0.00    -0.225 NA
ATOM     35  C   UNL     1      -8.255  -3.592  -4.687  0.00  0.00    +0.052 C 
ENDBRANCH  21  33
ENDBRANCH  20  21
ENDBRANCH   1  20
TORSDOF 5
