REMARK  Name = ZINC13149752
REMARK  8 active torsions:
REMARK  status: ('A' for Active; 'I' for Inactive)
REMARK    1  A    between atoms: C_1  and  C_2
REMARK    2  A    between atoms: N_11  and  S_12
REMARK    3  A    between atoms: S_12  and  C_15
REMARK    4  A    between atoms: C_19  and  C_21
REMARK    5  A    between atoms: C_21  and  O_23
REMARK    6  A    between atoms: O_23  and  C_24
REMARK    7  A    between atoms: C_24  and  C_25
REMARK    8  A    between atoms: N_30  and  C_31
REMARK                            x       y       z     vdW  Elec       q    Type
REMARK                         _______ _______ _______ _____ _____    ______ ____
ROOT
ATOM      1  C   UNL     1       0.958   3.057  13.047  0.00  0.00    +0.110 A 
ATOM      2  C   UNL     1      -0.362   2.669  13.196  0.00  0.00    +0.029 A 
ATOM      3  C   UNL     1      -1.126   2.349  12.088  0.00  0.00    +0.003 A 
ATOM      4  C   UNL     1      -0.577   2.420  10.824  0.00  0.00    +0.015 A 
ATOM      5  C   UNL     1       0.756   2.806  10.666  0.00  0.00    +0.061 A 
ATOM      6  C   UNL     1       1.521   3.128  11.790  0.00  0.00    +0.043 A 
ENDROOT
BRANCH   1   7
ATOM      7  S   UNL     1       1.921   3.463  14.465  0.00  0.00    +0.075 S 
ATOM      8  O   UNL     1       1.324   2.792  15.567  0.00  0.00    -0.150 OA
ATOM      9  O   UNL     1       3.281   3.269  14.102  0.00  0.00    -0.150 OA
BRANCH   7  19
ATOM     10  C   UNL     1       2.509   6.116  12.648  0.00  0.00    +0.030 C 
ATOM     11  C   UNL     1       2.580   6.137  14.176  0.00  0.00    +0.099 C 
ATOM     12  C   UNL     1       2.002   7.455  14.716  0.00  0.00    +0.061 C 
ATOM     13  C   UNL     1       0.835   7.031  15.579  0.00  0.00    -0.023 A 
ATOM     14  C   UNL     1      -0.059   7.777  16.325  0.00  0.00    +0.005 A 
ATOM     15  C   UNL     1      -1.058   7.147  17.043  0.00  0.00    +0.000 A 
ATOM     16  C   UNL     1      -1.162   5.769  17.015  0.00  0.00    +0.002 A 
ATOM     17  C   UNL     1      -0.273   5.021  16.273  0.00  0.00    +0.025 A 
ATOM     18  C   UNL     1       0.739   5.649  15.544  0.00  0.00    +0.055 A 
ATOM     19  N   UNL     1       1.730   5.085  14.739  0.00  0.00    -0.200 N 
ENDBRANCH   7  19
ENDBRANCH   1   7
BRANCH   5  20
ATOM     20  C   UNL     1       1.352   2.880   9.317  0.00  0.00    +0.340 C 
ATOM     21  O   UNL     1       2.510   3.221   9.182  0.00  0.00    -0.245 OA
BRANCH  20  22
ATOM     22  O   UNL     1       0.612   2.569   8.235  0.00  0.00    -0.452 OA
BRANCH  22  23
ATOM     23  C   UNL     1       1.263   2.664   6.941  0.00  0.00    +0.328 C 
BRANCH  23  24
ATOM     24  C   UNL     1       0.287   2.282   5.858  0.00  0.00    +0.258 C 
ATOM     25  O   UNL     1      -0.846   1.961   6.149  0.00  0.00    -0.272 OA
ATOM     26  N   UNL     1       0.673   2.296   4.567  0.00  0.00    -0.237 N 
ATOM     27  C   UNL     1      -0.200   1.954   3.599  0.00  0.00    +0.306 C 
ATOM     28  O   UNL     1      -1.335   1.633   3.890  0.00  0.00    -0.252 OA
ATOM     29  N   UNL     1       0.186   1.969   2.308  0.00  0.00    -0.296 N 
ATOM     30  H   UNL     1       1.579   2.553   4.335  0.00  0.00    +0.159 HD
ATOM     31  H   UNL     1       1.092   2.226   2.075  0.00  0.00    +0.151 HD
BRANCH  29  32
ATOM     32  C   UNL     1      -0.763   1.597   1.255  0.00  0.00    +0.074 C 
ATOM     33  C   UNL     1      -0.013   1.086   0.008  0.00  0.00    +0.022 C 
ATOM     34  C   UNL     1      -0.784   1.609  -1.216  0.00  0.00    +0.002 C 
ATOM     35  C   UNL     1      -1.978   2.421  -0.670  0.00  0.00    +0.002 C 
ATOM     36  C   UNL     1      -1.531   2.845   0.750  0.00  0.00    +0.022 C 
ENDBRANCH  29  32
ENDBRANCH  23  24
ENDBRANCH  22  23
ENDBRANCH  20  22
ENDBRANCH   5  20
TORSDOF 7
