REMARK  Name = ZINC40994330
REMARK  9 active torsions:
REMARK  status: ('A' for Active; 'I' for Inactive)
REMARK    1  A    between atoms: C_1  and  C_2
REMARK    2  A    between atoms: C_6  and  O_9
REMARK    3  A    between atoms: C_7  and  C_8
REMARK    4  A    between atoms: O_9  and  C_10
REMARK    5  A    between atoms: C_10  and  C_12
REMARK    6  A    between atoms: C_10  and  C_13
REMARK    7  A    between atoms: N_15  and  C_16
REMARK    8  A    between atoms: C_17  and  C_25
REMARK    9  A    between atoms: C_27  and  C_30
REMARK                            x       y       z     vdW  Elec       q    Type
REMARK                         _______ _______ _______ _____ _____    ______ ____
ROOT
ATOM      1  C   UNL     1       1.276  -6.720   4.729  0.00  0.00    +0.085 A 
ATOM      2  C   UNL     1       1.493  -8.060   5.016  0.00  0.00    +0.071 A 
ATOM      3  C   UNL     1       2.120  -8.390   6.283  0.00  0.00    -0.023 A 
ATOM      4  C   UNL     1       2.441  -7.347   7.081  0.00  0.00    -0.004 A 
ATOM      5  S   UNL     1       1.930  -5.911   6.178  0.00  0.00    -0.077 S 
ATOM      6  C   UNL     1       3.089  -7.402   8.430  0.00  0.00    +0.043 C 
ATOM      7  C   UNL     1       3.007  -8.845   8.948  0.00  0.00    +0.005 C 
ATOM      8  C   UNL     1       3.460  -9.794   7.835  0.00  0.00    +0.005 C 
ATOM      9  C   UNL     1       2.415  -9.823   6.719  0.00  0.00    +0.037 C 
ENDROOT
BRANCH   2  10
ATOM     10  C   UNL     1       1.100  -9.112   4.067  0.00  0.00    +0.261 A 
ATOM     11  N   UNL     1       0.532  -8.922   2.894  0.00  0.00    -0.187 NA
ATOM     12  C   UNL     1       0.314 -10.103   2.296  0.00  0.00    +0.202 A 
ATOM     13  N   UNL     1       0.741 -11.062   3.082  0.00  0.00    -0.056 NA
ATOM     14  O   UNL     1       1.264 -10.436   4.244  0.00  0.00    -0.332 OA
BRANCH  12  15
ATOM     15  C   UNL     1      -0.310 -10.293   0.963  0.00  0.00    +0.023 A 
ATOM     16  C   UNL     1      -0.719  -9.188   0.219  0.00  0.00    +0.014 A 
ATOM     17  C   UNL     1      -1.297  -9.368  -1.020  0.00  0.00    +0.039 A 
ATOM     18  C   UNL     1      -1.472 -10.647  -1.525  0.00  0.00    +0.123 A 
ATOM     19  C   UNL     1      -1.067 -11.748  -0.789  0.00  0.00    +0.039 A 
ATOM     20  C   UNL     1      -0.482 -11.576   0.449  0.00  0.00    +0.014 A 
ATOM     21  F   UNL     1      -2.040 -10.820  -2.739  0.00  0.00    -0.205 F 
ENDBRANCH  12  15
ENDBRANCH   2  10
BRANCH   1  24
ATOM     22  C   UNL     1       0.582  -4.814   3.503  0.00  0.00    +0.258 C 
ATOM     23  O   UNL     1       0.977  -4.104   4.403  0.00  0.00    -0.271 OA
ATOM     24  N   UNL     1       0.701  -6.153   3.599  0.00  0.00    -0.276 N 
ATOM     25  H   UNL     1       0.385  -6.721   2.879  0.00  0.00    +0.155 HD
BRANCH  22  26
ATOM     26  C   UNL     1      -0.043  -4.199   2.277  0.00  0.00    +0.256 C 
ATOM     27  C   UNL     1      -1.514  -4.611   2.192  0.00  0.00    +0.062 C 
BRANCH  26  28
ATOM     28  O   UNL     1       0.050  -2.776   2.358  0.00  0.00    -0.480 OA
BRANCH  28  34
ATOM     29  C   UNL     1       0.438   1.473  -0.013  0.00  0.00    +0.044 C 
ATOM     30  C   UNL     1       0.221  -0.018  -0.009  0.00  0.00    -0.044 A 
ATOM     31  C   UNL     1       0.006  -0.688  -1.200  0.00  0.00    +0.004 A 
ATOM     32  C   UNL     1      -0.194  -2.056  -1.200  0.00  0.00    +0.004 A 
ATOM     33  C   UNL     1      -0.179  -2.757  -0.009  0.00  0.00    +0.046 A 
ATOM     34  C   UNL     1       0.036  -2.088   1.186  0.00  0.00    +0.125 A 
ATOM     35  C   UNL     1       0.242  -0.716   1.183  0.00  0.00    -0.006 A 
ATOM     36  C   UNL     1       0.482   0.014   2.479  0.00  0.00    +0.048 C 
ENDBRANCH  28  34
ENDBRANCH  26  28
ENDBRANCH  22  26
ENDBRANCH   1  24
TORSDOF 6
