REMARK  Name = ZINC39710244
REMARK  9 active torsions:
REMARK  status: ('A' for Active; 'I' for Inactive)
REMARK    1  A    between atoms: C_1  and  C_2
REMARK    2  A    between atoms: C_9  and  C_14
REMARK    3  A    between atoms: C_14  and  C_16
REMARK    4  A    between atoms: C_14  and  N_28
REMARK    5  A    between atoms: N_21  and  C_22
REMARK    6  A    between atoms: N_28  and  C_29
REMARK    7  A    between atoms: N_28  and  C_36
REMARK    8  A    between atoms: C_29  and  C_30
REMARK    9  A    between atoms: C_36  and  C_37
REMARK                            x       y       z     vdW  Elec       q    Type
REMARK                         _______ _______ _______ _____ _____    ______ ____
ROOT
ATOM      1  C   UNL     1      -1.255  -4.605   2.655  0.00  0.00    -0.008 C 
ENDROOT
BRANCH   1  10
ATOM      2  C   UNL     1       5.785  -3.928   3.650  0.00  0.00    +0.044 C 
ATOM      3  C   UNL     1       4.457  -3.491   3.089  0.00  0.00    -0.050 A 
ATOM      4  C   UNL     1       4.272  -2.154   2.735  0.00  0.00    +0.005 A 
ATOM      5  C   UNL     1       3.103  -1.687   2.222  0.00  0.00    +0.024 A 
ATOM      6  C   UNL     1       2.013  -2.553   2.025  0.00  0.00    +0.040 A 
ATOM      7  N   UNL     1       0.872  -2.083   1.521  0.00  0.00    -0.285 N 
ATOM      8  C   UNL     1      -0.191  -2.842   1.311  0.00  0.00    +0.223 C 
ATOM      9  O   UNL     1      -1.206  -2.356   0.848  0.00  0.00    -0.275 OA
ATOM     10  C   UNL     1      -0.140  -4.315   1.648  0.00  0.00    +0.088 C 
ATOM     11  C   UNL     1       1.156  -4.854   2.221  0.00  0.00    -0.006 C 
ATOM     12  C   UNL     1       2.180  -3.970   2.390  0.00  0.00    -0.007 A 
ATOM     13  C   UNL     1       3.467  -4.408   2.932  0.00  0.00    +0.012 A 
ATOM     14  H   UNL     1       0.818  -1.141   1.298  0.00  0.00    +0.155 HD
ENDBRANCH   1  10
BRANCH   1  15
ATOM     15  C   UNL     1      -0.966  -3.865   3.963  0.00  0.00    +0.205 C 
ATOM     16  N   UNL     1      -2.013  -4.147   4.954  0.00  0.00    -0.152 NA
ATOM     17  N   UNL     1      -2.570  -3.089   5.257  0.00  0.00    -0.070 NA
ATOM     18  N   UNL     1      -2.045  -1.987   4.582  0.00  0.00    -0.179 N 
ATOM     19  N   UNL     1      -1.033  -2.404   3.754  0.00  0.00    -0.185 NA
ATOM     20  H   UNL     1      -2.348  -1.071   4.683  0.00  0.00    +0.191 HD
BRANCH  19  21
ATOM     21  C   UNL     1       0.240  -1.762   4.111  0.00  0.00    +0.080 C 
ATOM     22  C   UNL     1       0.463  -1.876   5.620  0.00  0.00    +0.021 C 
ATOM     23  C   UNL     1       1.788  -1.207   5.992  0.00  0.00    +0.002 C 
ATOM     24  C   UNL     1       1.744   0.269   5.593  0.00  0.00    +0.000 C 
ATOM     25  C   UNL     1       1.521   0.383   4.083  0.00  0.00    +0.002 C 
ATOM     26  C   UNL     1       0.196  -0.285   3.712  0.00  0.00    +0.021 C 
ENDBRANCH  19  21
ENDBRANCH   1  15
BRANCH   1  27
ATOM     27  N   UNL     1      -1.317  -6.050   2.914  0.00  0.00    +0.392 N 
ATOM     28  H   UNL     1      -0.480  -6.342   3.395  0.00  0.00    -0.080 HD
BRANCH  27  29
ATOM     29  C   UNL     1      -1.425  -6.771   1.639  0.00  0.00    -0.040 C 
BRANCH  29  30
ATOM     30  C   UNL     1      -2.661  -6.315   0.907  0.00  0.00    -0.046 A 
ATOM     31  C   UNL     1      -3.896  -6.874   1.198  0.00  0.00    +0.005 A 
ATOM     32  C   UNL     1      -5.006  -6.423   0.500  0.00  0.00    +0.020 A 
ATOM     33  C   UNL     1      -4.845  -5.439  -0.457  0.00  0.00    +0.111 A 
ATOM     34  N   UNL     1      -3.655  -4.931  -0.709  0.00  0.00    -0.263 NA
ATOM     35  C   UNL     1      -2.578  -5.331  -0.060  0.00  0.00    +0.112 A 
ENDBRANCH  29  30
ENDBRANCH  27  29
BRANCH  27  36
ATOM     36  C   UNL     1      -2.490  -6.348   3.746  0.00  0.00    -0.002 C 
BRANCH  36  37
ATOM     37  C   UNL     1      -2.528  -7.824   4.050  0.00  0.00    +0.089 A 
ATOM     38  C   UNL     1      -2.037  -8.412   5.155  0.00  0.00    +0.042 A 
ATOM     39  C   UNL     1      -2.286  -9.798   5.027  0.00  0.00    +0.041 A 
ATOM     40  C   UNL     1      -2.914  -9.974   3.850  0.00  0.00    +0.195 A 
ATOM     41  O   UNL     1      -3.063  -8.774   3.265  0.00  0.00    -0.470 OA
ENDBRANCH  36  37
ENDBRANCH  27  36
ENDBRANCH   1  27
TORSDOF 8
