REMARK  Name = ZINC12562677
REMARK  11 active torsions:
REMARK  status: ('A' for Active; 'I' for Inactive)
REMARK    1  A    between atoms: C_1  and  C_2
REMARK    2  A    between atoms: C_2  and  O_3
REMARK    3  A    between atoms: O_3  and  C_4
REMARK    4  A    between atoms: C_7  and  S_10
REMARK    5  A    between atoms: S_10  and  N_13
REMARK    6  A    between atoms: N_13  and  C_14
REMARK    7  A    between atoms: C_17  and  C_20
REMARK    8  A    between atoms: N_22  and  N_23
REMARK    9  A    between atoms: C_24  and  C_25
REMARK   10  A    between atoms: C_24  and  C_26
REMARK   11  A    between atoms: C_29  and  C_32
REMARK                            x       y       z     vdW  Elec       q    Type
REMARK                         _______ _______ _______ _____ _____    ______ ____
ROOT
ATOM      1  C   UNL     1       1.125   2.395  -0.183  0.00  0.00    +0.048 A 
ATOM      2  C   UNL     1       2.311   2.002   0.431  0.00  0.00    +0.025 A 
ATOM      3  C   UNL     1       3.461   2.732   0.242  0.00  0.00    +0.015 A 
ATOM      4  C   UNL     1       3.436   3.878  -0.559  0.00  0.00    +0.038 A 
ATOM      5  C   UNL     1       2.242   4.274  -1.171  0.00  0.00    +0.015 A 
ATOM      6  C   UNL     1       1.096   3.535  -0.982  0.00  0.00    +0.025 A 
ENDROOT
BRANCH   4   7
ATOM      7  C   UNL     1       4.665   4.667  -0.760  0.00  0.00    +0.263 C 
ATOM      8  O   UNL     1       4.642   5.663  -1.458  0.00  0.00    -0.268 OA
ATOM      9  N   UNL     1       5.815   4.284  -0.170  0.00  0.00    -0.203 N 
ATOM     10  H   UNL     1       5.836   3.383   0.460  0.00  0.00    +0.178 HD
BRANCH   9  11
ATOM     11  N   UNL     1       6.984   5.033  -0.361  0.00  0.00    -0.184 NA
ATOM     12  C   UNL     1       8.091   4.665   0.207  0.00  0.00    +0.063 C 
ATOM     13  C   UNL     1       8.120   3.430   1.071  0.00  0.00    +0.068 C 
BRANCH  12  14
ATOM     14  C   UNL     1       9.321   5.453   0.006  0.00  0.00    -0.003 A 
ATOM     15  C   UNL     1      10.513   5.063   0.621  0.00  0.00    +0.010 A 
ATOM     16  C   UNL     1      11.661   5.802   0.424  0.00  0.00    +0.004 A 
ATOM     17  C   UNL     1      11.630   6.935  -0.370  0.00  0.00    -0.044 A 
ATOM     18  C   UNL     1      10.451   7.331  -0.977  0.00  0.00    +0.004 A 
ATOM     19  C   UNL     1       9.297   6.598  -0.794  0.00  0.00    +0.010 A 
BRANCH  17  20
ATOM     20  C   UNL     1      12.887   7.741  -0.574  0.00  0.00    +0.019 C 
ATOM     21  C   UNL     1      13.957   6.861  -1.222  0.00  0.00    +0.008 C 
ATOM     22  C   UNL     1      15.233   7.680  -1.430  0.00  0.00    +0.001 C 
ATOM     23  C   UNL     1      15.739   8.187  -0.078  0.00  0.00    +0.000 C 
ATOM     24  C   UNL     1      14.669   9.067   0.570  0.00  0.00    +0.001 C 
ATOM     25  C   UNL     1      13.393   8.248   0.777  0.00  0.00    +0.008 C 
ENDBRANCH  17  20
ENDBRANCH  12  14
ENDBRANCH   9  11
ENDBRANCH   4   7
BRANCH   1  26
ATOM     26  N   UNL     1      -0.035   1.651   0.005  0.00  0.00    -0.216 N 
ATOM     27  H   UNL     1      -0.984   2.160   0.228  0.00  0.00    +0.174 HD
BRANCH  26  28
ATOM     28  S   UNL     1       0.014  -0.000  -0.105  0.00  0.00    +0.072 S 
ATOM     29  O   UNL     1       1.068  -0.433   0.745  0.00  0.00    -0.150 OA
ATOM     30  O   UNL     1      -1.323  -0.457   0.046  0.00  0.00    -0.150 OA
BRANCH  28  34
ATOM     31  C   UNL     1       1.262  -1.023  -4.336  0.00  0.00    +0.121 A 
ATOM     32  C   UNL     1       2.211  -0.968  -3.326  0.00  0.00    +0.047 A 
ATOM     33  C   UNL     1       1.828  -0.656  -2.036  0.00  0.00    +0.032 A 
ATOM     34  C   UNL     1       0.500  -0.398  -1.752  0.00  0.00    +0.109 A 
ATOM     35  C   UNL     1      -0.449  -0.458  -2.755  0.00  0.00    +0.032 A 
ATOM     36  C   UNL     1      -0.070  -0.764  -4.048  0.00  0.00    +0.047 A 
BRANCH  31  37
ATOM     37  O   UNL     1       1.636  -1.330  -5.606  0.00  0.00    -0.492 OA
BRANCH  37  39
ATOM     38  C   UNL     1       1.214  -1.727  -7.952  0.00  0.00    +0.048 C 
ATOM     39  C   UNL     1       0.605  -1.368  -6.595  0.00  0.00    +0.225 C 
ENDBRANCH  37  39
ENDBRANCH  31  37
ENDBRANCH  28  34
ENDBRANCH  26  28
ENDBRANCH   1  26
TORSDOF 9
