REMARK  Name = ZINC02434978
REMARK  12 active torsions:
REMARK  status: ('A' for Active; 'I' for Inactive)
REMARK    1  A    between atoms: C_1  and  C_2
REMARK    2  A    between atoms: C_2  and  C_3
REMARK    3  A    between atoms: C_3  and  C_5
REMARK    4  A    between atoms: C_3  and  O_6
REMARK    5  A    between atoms: O_6  and  C_7
REMARK    6  A    between atoms: C_7  and  C_9
REMARK    7  A    between atoms: N_20  and  C_23
REMARK    8  A    between atoms: C_21  and  N_22
REMARK    9  A    between atoms: C_23  and  C_24
REMARK   10  A    between atoms: C_24  and  C_25
REMARK   11  A    between atoms: C_25  and  C_26
REMARK   12  A    between atoms: C_25  and  C_27
REMARK                            x       y       z     vdW  Elec       q    Type
REMARK                         _______ _______ _______ _____ _____    ______ ____
ROOT
ATOM      1  C   UNL     1      -0.825   3.572   0.029  0.00  0.00    +0.126 A 
ATOM      2  C   UNL     1       0.645   3.650   0.015  0.00  0.00    +0.124 A 
ATOM      3  C   UNL     1       1.107   2.260   0.004  0.00  0.00    +0.162 A 
ATOM      4  N   UNL     1       2.399   2.008  -0.011  0.00  0.00    -0.226 NA
ATOM      5  C   UNL     1       3.276   3.020  -0.014  0.00  0.00    +0.092 A 
ATOM      6  C   UNL     1       4.659   2.760  -0.029  0.00  0.00    +0.030 A 
ATOM      7  C   UNL     1       5.543   3.794  -0.031  0.00  0.00    +0.002 A 
ATOM      8  C   UNL     1       5.100   5.115  -0.020  0.00  0.00    +0.002 A 
ATOM      9  C   UNL     1       3.771   5.407  -0.005  0.00  0.00    +0.030 A 
ATOM     10  C   UNL     1       2.826   4.364  -0.002  0.00  0.00    +0.090 A 
ATOM     11  N   UNL     1       1.516   4.639   0.013  0.00  0.00    -0.241 NA
ATOM     12  N   UNL     1      -0.018   1.461   0.010  0.00  0.00    -0.312 N 
ATOM     13  C   UNL     1      -1.148   2.218   0.019  0.00  0.00    +0.114 A 
ENDROOT
BRANCH  13  14
ATOM     14  N   UNL     1      -2.423   1.718   0.021  0.00  0.00    -0.344 N 
ATOM     15  H   UNL     1      -2.569   0.759   0.016  0.00  0.00    +0.144 HD
ATOM     16  H   UNL     1      -3.181   2.324   0.028  0.00  0.00    +0.144 HD
ENDBRANCH  13  14
BRANCH   1  17
ATOM     17  C   UNL     1      -1.732   4.660   0.044  0.00  0.00    +0.345 C 
ATOM     18  O   UNL     1      -2.133   5.133  -1.003  0.00  0.00    -0.245 OA
BRANCH  17  19
ATOM     19  O   UNL     1      -2.153   5.171   1.220  0.00  0.00    -0.458 OA
BRANCH  19  20
ATOM     20  C   UNL     1      -3.068   6.267   1.161  0.00  0.00    +0.173 C 
ATOM     21  C   UNL     1      -4.502   5.735   1.145  0.00  0.00    +0.052 C 
BRANCH  20  23
ATOM     22  C   UNL     1      -1.477   7.795   2.334  0.00  0.00    +0.007 C 
ATOM     23  C   UNL     1      -2.870   7.164   2.385  0.00  0.00    +0.041 C 
ENDBRANCH  20  23
ENDBRANCH  19  20
ENDBRANCH  17  19
ENDBRANCH   1  17
BRANCH  12  24
ATOM     24  C   UNL     1       0.002  -0.004   0.002  0.00  0.00    +0.125 C 
BRANCH  24  25
ATOM     25  C   UNL     1       0.023  -0.522   1.442  0.00  0.00    +0.024 C 
BRANCH  25  26
ATOM     26  C   UNL     1       0.043  -2.052   1.433  0.00  0.00    -0.016 C 
ATOM     27  C   UNL     1       1.352  -2.541   0.808  0.00  0.00    +0.007 C 
ATOM     28  C   UNL     1      -0.062  -2.571   2.869  0.00  0.00    +0.007 C 
ENDBRANCH  25  26
ENDBRANCH  24  25
ENDBRANCH  12  24
TORSDOF 8
