REMARK  Name = ZINC48499163
REMARK  6 active torsions:
REMARK  status: ('A' for Active; 'I' for Inactive)
REMARK    1  A    between atoms: C_1  and  C_2
REMARK    2  A    between atoms: C_2  and  C_3
REMARK    3  A    between atoms: C_3  and  C_4
REMARK    4  A    between atoms: C_4  and  N_5
REMARK    5  A    between atoms: C_8  and  C_12
REMARK    6  A    between atoms: C_8  and  C_13
REMARK                            x       y       z     vdW  Elec       q    Type
REMARK                         _______ _______ _______ _____ _____    ______ ____
ROOT
ATOM      1  N   UNL     1      -2.787  -2.571   0.015  0.00  0.00    -0.224 N 
ATOM      2  C   UNL     1      -3.488  -2.834   1.135  0.00  0.00    +0.251 C 
ATOM      3  O   UNL     1      -3.115  -2.700   2.281  0.00  0.00    -0.272 OA
ATOM      4  C   UNL     1      -4.841  -3.330   0.665  0.00  0.00    +0.136 C 
ATOM      5  N   UNL     1      -4.735  -3.285  -0.804  0.00  0.00    -0.281 N 
ATOM      6  C   UNL     1      -3.503  -2.824  -1.087  0.00  0.00    +0.310 C 
ATOM      7  O   UNL     1      -3.085  -2.660  -2.216  0.00  0.00    -0.252 OA
ATOM      8  C   UNL     1      -5.085  -4.763   1.143  0.00  0.00    +0.047 C 
ATOM      9  H   UNL     1      -5.421  -3.535  -1.443  0.00  0.00    +0.152 HD
ENDROOT
BRANCH   4  10
ATOM     10  C   UNL     1      -5.938  -2.415   1.145  0.00  0.00    +0.003 A 
ATOM     11  C   UNL     1      -6.759  -1.780   0.231  0.00  0.00    +0.009 A 
ATOM     12  C   UNL     1      -7.765  -0.941   0.671  0.00  0.00    +0.020 A 
ATOM     13  C   UNL     1      -7.952  -0.736   2.027  0.00  0.00    +0.042 A 
ATOM     14  C   UNL     1      -7.131  -1.371   2.942  0.00  0.00    +0.040 A 
ATOM     15  C   UNL     1      -6.127  -2.215   2.501  0.00  0.00    +0.048 A 
ATOM     16 CL   UNL     1      -5.101  -3.017   3.648  0.00  0.00    -0.083 Cl
ATOM     17 CL   UNL     1      -9.215   0.318   2.580  0.00  0.00    -0.083 Cl
ENDBRANCH   4  10
BRANCH   1  18
ATOM     18  C   UNL     1      -1.413  -2.063   0.004  0.00  0.00    +0.118 C 
BRANCH  18  19
ATOM     19  C   UNL     1      -1.433  -0.534   0.013  0.00  0.00    +0.019 C 
BRANCH  19  21
ATOM     20  C   UNL     1      -0.019   1.526   0.010  0.00  0.00    +0.004 C 
ATOM     21  C   UNL     1       0.002  -0.004   0.002  0.00  0.00    -0.002 C 
ENDBRANCH  19  21
ENDBRANCH  18  19
ENDBRANCH   1  18
TORSDOF 4
