REMARK  Name = ZINC09331655
REMARK  4 active torsions:
REMARK  status: ('A' for Active; 'I' for Inactive)
REMARK    1  A    between atoms: C_10  and  N_69
REMARK    2  A    between atoms: C_21  and  C_23
REMARK    3  A    between atoms: C_27  and  O_29
REMARK    4  A    between atoms: O_29  and  C_30
REMARK                            x       y       z     vdW  Elec       q    Type
REMARK                         _______ _______ _______ _____ _____    ______ ____
ROOT
ATOM      1  C   UNL     1       4.937   2.104  -0.081  0.00  0.00    -0.072 C 
ATOM      2  C   UNL     1       3.570   2.708   0.251  0.00  0.00    +0.052 C 
ATOM      3  C   UNL     1       2.475   1.696  -0.081  0.00  0.00    +0.189 C 
ATOM      4  C   UNL     1       2.575   1.286  -1.549  0.00  0.00    +0.052 C 
ATOM      5  C   UNL     1       3.973   0.724  -1.824  0.00  0.00    -0.072 C 
ATOM      6  N   UNL     1       2.603   0.516   0.779  0.00  0.00    -0.207 N 
ATOM      7  C   UNL     1       1.597  -0.569   0.729  0.00  0.00    +0.136 C 
ATOM      8  C   UNL     1       1.861  -1.338   2.031  0.00  0.00    +0.086 C 
ATOM      9  C   UNL     1       3.174  -0.765   2.524  0.00  0.00    +0.069 C 
ATOM     10  N   UNL     1       3.518   0.232   1.777  0.00  0.00    -0.185 NA
ATOM     11  C   UNL     1       0.247   0.099   0.732  0.00  0.00    +0.017 A 
ATOM     12  C   UNL     1      -0.877  -0.653   1.017  0.00  0.00    +0.009 A 
ATOM     13  C   UNL     1      -2.130  -0.070   1.003  0.00  0.00    +0.001 A 
ATOM     14  C   UNL     1      -2.257   1.274   0.702  0.00  0.00    +0.004 A 
ATOM     15  C   UNL     1      -1.138   2.029   0.425  0.00  0.00    +0.046 A 
ATOM     16  C   UNL     1       0.131   1.450   0.444  0.00  0.00    +0.128 A 
ATOM     17  O   UNL     1       1.189   2.261   0.183  0.00  0.00    -0.467 OA
ATOM     18  N   UNL     1       4.976   1.767  -1.520  0.00  0.00    +0.385 N 
ATOM     19  H   UNL     1       4.757   2.609  -2.065  0.00  0.00    -0.081 HD
ENDROOT
BRANCH  18  29
ATOM     20  C   UNL     1       6.457   1.044  -6.159  0.00  0.00    +0.000 A 
ATOM     21  C   UNL     1       5.830   2.104  -5.531  0.00  0.00    +0.000 A 
ATOM     22  C   UNL     1       5.799   2.162  -4.153  0.00  0.00    +0.002 A 
ATOM     23  C   UNL     1       6.392   1.164  -3.391  0.00  0.00    -0.058 A 
ATOM     24  C   UNL     1       7.013   0.106  -4.016  0.00  0.00    -0.046 A 
ATOM     25  C   UNL     1       7.045   0.051  -5.404  0.00  0.00    +0.004 A 
ATOM     26  C   UNL     1       7.670  -1.015  -3.254  0.00  0.00    +0.035 C 
ATOM     27  C   UNL     1       7.925  -0.602  -1.806  0.00  0.00    +0.003 C 
ATOM     28  C   UNL     1       6.619  -0.049  -1.223  0.00  0.00    -0.010 C 
ATOM     29  C   UNL     1       6.325   1.293  -1.891  0.00  0.00    -0.037 C 
ENDBRANCH  18  29
BRANCH   9  30
ATOM     30  C   UNL     1       3.942  -1.268   3.679  0.00  0.00    +0.001 A 
ATOM     31  C   UNL     1       3.468  -2.357   4.415  0.00  0.00    +0.010 A 
ATOM     32  C   UNL     1       4.189  -2.825   5.495  0.00  0.00    +0.004 A 
ATOM     33  C   UNL     1       5.379  -2.218   5.852  0.00  0.00    +0.046 A 
ATOM     34  C   UNL     1       5.858  -1.135   5.127  0.00  0.00    +0.127 A 
ATOM     35  C   UNL     1       5.146  -0.661   4.038  0.00  0.00    +0.055 A 
BRANCH  34  36
ATOM     36  O   UNL     1       7.029  -0.544   5.482  0.00  0.00    -0.434 OA
BRANCH  36  37
ATOM     37  C   UNL     1       7.714  -1.089   6.612  0.00  0.00    +0.541 C 
ATOM     38  F   UNL     1       6.891  -1.004   7.741  0.00  0.00    -0.166 F 
ATOM     39  F   UNL     1       8.029  -2.429   6.365  0.00  0.00    -0.166 F 
ENDBRANCH  36  37
ENDBRANCH  34  36
ENDBRANCH   9  30
TORSDOF 4
