REMARK  Name = ZINC44179936
REMARK  8 active torsions:
REMARK  status: ('A' for Active; 'I' for Inactive)
REMARK    1  A    between atoms: C_1  and  N_2
REMARK    2  A    between atoms: C_3  and  C_5
REMARK    3  A    between atoms: C_5  and  C_6
REMARK    4  A    between atoms: C_11  and  N_12
REMARK    5  A    between atoms: N_15  and  C_16
REMARK    6  A    between atoms: C_16  and  C_17
REMARK    7  A    between atoms: C_17  and  C_19
REMARK    8  A    between atoms: C_17  and  N_24
REMARK                            x       y       z     vdW  Elec       q    Type
REMARK                         _______ _______ _______ _____ _____    ______ ____
ROOT
ATOM      1  N   UNL     1      -2.726  -2.214  -2.407  0.00  0.00    -0.269 N 
ATOM      2  C   UNL     1      -3.334  -2.549  -3.562  0.00  0.00    +0.304 C 
ATOM      3  O   UNL     1      -4.452  -3.029  -3.543  0.00  0.00    -0.253 OA
ATOM      4  N   UNL     1      -2.705  -2.351  -4.737  0.00  0.00    -0.300 N 
ATOM      5  H   UNL     1      -1.865  -1.766  -2.424  0.00  0.00    +0.156 HD
ATOM      6  H   UNL     1      -1.814  -1.969  -4.752  0.00  0.00    +0.150 HD
ENDROOT
BRANCH   1  12
ATOM      7  C   UNL     1      -2.557  -2.844  -0.081  0.00  0.00    -0.017 A 
ATOM      8  C   UNL     1      -3.161  -3.132   1.127  0.00  0.00    +0.006 A 
ATOM      9  C   UNL     1      -4.538  -3.097   1.239  0.00  0.00    +0.000 A 
ATOM     10  C   UNL     1      -5.316  -2.774   0.142  0.00  0.00    +0.002 A 
ATOM     11  C   UNL     1      -4.718  -2.485  -1.069  0.00  0.00    +0.023 A 
ATOM     12  C   UNL     1      -3.335  -2.513  -1.183  0.00  0.00    +0.038 A 
BRANCH   7  13
ATOM     13  C   UNL     1      -1.055  -2.882  -0.202  0.00  0.00    +0.132 C 
BRANCH  13  16
ATOM     14  C   UNL     1       1.371   0.060   0.139  0.00  0.00    +0.128 C 
ATOM     15  N   UNL     1       0.831  -1.287  -0.060  0.00  0.00    -0.318 N 
ATOM     16  C   UNL     1      -0.499  -1.496   0.003  0.00  0.00    +0.217 C 
ATOM     17  O   UNL     1      -1.249  -0.569   0.226  0.00  0.00    -0.275 OA
ATOM     18  H   UNL     1       1.430  -2.029  -0.238  0.00  0.00    +0.148 HD
ENDBRANCH  13  16
ENDBRANCH   7  13
ENDBRANCH   1  12
BRANCH   4  19
ATOM     19  C   UNL     1      -3.367  -2.715  -5.992  0.00  0.00    +0.098 C 
BRANCH  19  20
ATOM     20  C   UNL     1      -2.397  -2.512  -7.158  0.00  0.00    +0.016 C 
BRANCH  20  21
ATOM     21  N   UNL     1      -3.097  -2.758  -8.426  0.00  0.00    +0.387 N 
ATOM     22  C   UNL     1      -4.121  -1.708  -8.658  0.00  0.00    -0.078 C 
ATOM     23  C   UNL     1      -4.343  -1.762 -10.191  0.00  0.00    -0.020 C 
ATOM     24  C   UNL     1      -2.922  -2.033 -10.736  0.00  0.00    -0.020 C 
ATOM     25  C   UNL     1      -2.151  -2.656  -9.558  0.00  0.00    -0.078 C 
ATOM     26  H   UNL     1      -3.528  -3.670  -8.414  0.00  0.00    -0.081 HD
ENDBRANCH  20  21
BRANCH  20  27
ATOM     27  C   UNL     1      -1.244  -3.472  -7.025  0.00  0.00    +0.093 A 
ATOM     28  C   UNL     1      -0.027  -3.178  -6.533  0.00  0.00    +0.043 A 
ATOM     29  C   UNL     1       0.738  -4.365  -6.594  0.00  0.00    +0.041 A 
ATOM     30  C   UNL     1      -0.057  -5.315  -7.119  0.00  0.00    +0.195 A 
ATOM     31  O   UNL     1      -1.258  -4.770  -7.373  0.00  0.00    -0.469 OA
ENDBRANCH  20  27
ENDBRANCH  19  20
ENDBRANCH   4  19
TORSDOF 7
