REMARK  Name = ZINC35635933
REMARK  7 active torsions:
REMARK  status: ('A' for Active; 'I' for Inactive)
REMARK    1  A    between atoms: C_1  and  C_2
REMARK    2  A    between atoms: C_2  and  N_3
REMARK    3  A    between atoms: C_6  and  C_11
REMARK    4  A    between atoms: C_15  and  C_17
REMARK    5  A    between atoms: N_20  and  C_22
REMARK    6  A    between atoms: C_22  and  C_24
REMARK    7  A    between atoms: C_22  and  C_30
REMARK                            x       y       z     vdW  Elec       q    Type
REMARK                         _______ _______ _______ _____ _____    ______ ____
ROOT
ATOM      1  N   UNL     1      -0.719  -1.644   0.239  0.00  0.00    -0.257 N 
ATOM      2  C   UNL     1      -1.446  -1.645   1.395  0.00  0.00    +0.042 C 
ATOM      3  C   UNL     1      -2.603  -2.331   1.491  0.00  0.00    +0.058 C 
ATOM      4  C   UNL     1      -3.069  -3.102   0.273  0.00  0.00    +0.142 C 
ATOM      5  N   UNL     1      -2.214  -3.037  -0.924  0.00  0.00    -0.288 N 
ATOM      6  C   UNL     1      -1.085  -2.303  -0.868  0.00  0.00    +0.307 C 
ATOM      7  O   UNL     1      -0.375  -2.240  -1.853  0.00  0.00    -0.252 OA
ATOM      8  C   UNL     1      -3.160  -2.174   2.777  0.00  0.00    +0.247 C 
ATOM      9  O   UNL     1      -4.204  -2.684   3.142  0.00  0.00    -0.270 OA
ATOM     10  N   UNL     1      -2.388  -1.388   3.549  0.00  0.00    -0.277 N 
ATOM     11  C   UNL     1      -1.231  -0.982   2.737  0.00  0.00    +0.160 C 
ATOM     12  H   UNL     1      -2.458  -3.510  -1.735  0.00  0.00    +0.151 HD
ENDROOT
BRANCH   4  13
ATOM     13  C   UNL     1      -3.209  -4.550   0.665  0.00  0.00    -0.022 A 
ATOM     14  C   UNL     1      -2.090  -5.359   0.737  0.00  0.00    +0.006 A 
ATOM     15  C   UNL     1      -2.219  -6.687   1.096  0.00  0.00    +0.001 A 
ATOM     16  C   UNL     1      -3.467  -7.207   1.385  0.00  0.00    +0.003 A 
ATOM     17  C   UNL     1      -4.586  -6.398   1.315  0.00  0.00    -0.050 A 
ATOM     18  C   UNL     1      -4.457  -5.069   0.959  0.00  0.00    +0.009 A 
ATOM     19  C   UNL     1      -5.946  -6.965   1.630  0.00  0.00    +0.044 C 
ENDBRANCH   4  13
BRANCH   1  21
ATOM     20  C   UNL     1       0.235   0.554  -0.255  0.00  0.00    +0.025 C 
ATOM     21  C   UNL     1       0.528  -0.875   0.206  0.00  0.00    +0.111 C 
ENDBRANCH   1  21
BRANCH  10  22
ATOM     22  C   UNL     1      -2.651  -1.006   4.938  0.00  0.00    +0.193 C 
BRANCH  22  23
ATOM     23  C   UNL     1      -2.782  -2.246   5.784  0.00  0.00    +0.241 C 
ATOM     24  O   UNL     1      -2.958  -3.324   5.256  0.00  0.00    -0.273 OA
ATOM     25  N   UNL     1      -2.704  -2.158   7.127  0.00  0.00    -0.300 N 
ATOM     26  C   UNL     1      -2.405  -0.937   7.889  0.00  0.00    +0.108 C 
ATOM     27  C   UNL     1      -2.396  -1.321   9.384  0.00  0.00    +0.020 C 
ATOM     28  C   UNL     1      -2.130  -2.849   9.348  0.00  0.00    +0.020 C 
ATOM     29  C   UNL     1      -2.910  -3.268   8.074  0.00  0.00    +0.108 C 
ENDBRANCH  22  23
BRANCH  22  30
ATOM     30  C   UNL     1      -3.931  -0.213   5.008  0.00  0.00    -0.018 A 
ATOM     31  C   UNL     1      -5.150  -0.861   4.929  0.00  0.00    +0.006 A 
ATOM     32  C   UNL     1      -6.324  -0.134   4.992  0.00  0.00    +0.000 A 
ATOM     33  C   UNL     1      -6.279   1.240   5.135  0.00  0.00    +0.000 A 
ATOM     34  C   UNL     1      -5.060   1.888   5.215  0.00  0.00    +0.000 A 
ATOM     35  C   UNL     1      -3.886   1.160   5.156  0.00  0.00    +0.006 A 
ENDBRANCH  22  30
ENDBRANCH  10  22
TORSDOF 5
