REMARK  Name = ZINC63557082
REMARK  7 active torsions:
REMARK  status: ('A' for Active; 'I' for Inactive)
REMARK    1  A    between atoms: C_1  and  C_2
REMARK    2  A    between atoms: C_2  and  C_3
REMARK    3  A    between atoms: C_2  and  C_4
REMARK    4  A    between atoms: C_11  and  C_13
REMARK    5  A    between atoms: N_18  and  C_20
REMARK    6  A    between atoms: C_20  and  C_21
REMARK    7  A    between atoms: C_21  and  C_22
REMARK                            x       y       z     vdW  Elec       q    Type
REMARK                         _______ _______ _______ _____ _____    ______ ____
ROOT
ATOM      1  C   UNL     1      -3.976  -4.267  -4.627  0.00  0.00    +0.101 C 
ATOM      2  C   UNL     1      -5.464  -3.850  -4.673  0.00  0.00    +0.110 C 
ATOM      3  C   UNL     1      -6.167  -5.048  -5.271  0.00  0.00    +0.216 C 
ATOM      4  O   UNL     1      -7.288  -5.036  -5.735  0.00  0.00    -0.276 OA
ATOM      5  N   UNL     1      -5.369  -6.128  -5.215  0.00  0.00    -0.300 N 
ATOM      6  C   UNL     1      -4.081  -5.807  -4.587  0.00  0.00    +0.121 C 
ENDROOT
BRANCH   1  13
ATOM      7  C   UNL     1      -1.433  -0.534   0.013  0.00  0.00    +0.156 C 
ATOM      8  N   UNL     1      -1.462  -2.014   0.027  0.00  0.00    -0.253 N 
ATOM      9  N   UNL     1      -2.055  -2.600  -1.068  0.00  0.00    -0.163 NA
ATOM     10  C   UNL     1      -2.559  -1.923  -2.053  0.00  0.00    +0.179 C 
ATOM     11  S   UNL     1      -2.275  -0.220  -1.593  0.00  0.00    -0.065 S 
ATOM     12  N   UNL     1      -3.177  -2.410  -3.200  0.00  0.00    -0.263 N 
ATOM     13  C   UNL     1      -3.307  -3.739  -3.384  0.00  0.00    +0.224 C 
ATOM     14  O   UNL     1      -2.884  -4.511  -2.549  0.00  0.00    -0.275 OA
ATOM     15  H   UNL     1      -1.089  -2.534   0.757  0.00  0.00    +0.169 HD
ATOM     16  H   UNL     1      -3.515  -1.793  -3.869  0.00  0.00    +0.157 HD
BRANCH   7  18
ATOM     17  C   UNL     1      -0.019   1.526   0.010  0.00  0.00    +0.010 C 
ATOM     18  C   UNL     1       0.002  -0.004   0.002  0.00  0.00    +0.015 C 
ATOM     19  C   UNL     1       0.742  -0.511   1.242  0.00  0.00    +0.010 C 
ENDBRANCH   7  18
ENDBRANCH   1  13
BRANCH   5  20
ATOM     20  C   UNL     1      -5.736  -7.455  -5.716  0.00  0.00    +0.112 C 
BRANCH  20  21
ATOM     21  C   UNL     1      -5.316  -7.580  -7.182  0.00  0.00    +0.052 C 
BRANCH  21  22
ATOM     22  C   UNL     1      -5.694  -8.945  -7.698  0.00  0.00    -0.040 C 
ATOM     23  C   UNL     1      -6.818  -9.277  -8.372  0.00  0.00    +0.000 A 
ATOM     24  C   UNL     1      -7.982  -8.496  -8.810  0.00  0.00    +0.030 A 
ATOM     25  C   UNL     1      -8.976  -9.122  -9.482  0.00  0.00    +0.042 A 
ATOM     26  C   UNL     1      -8.922 -10.494  -9.770  0.00  0.00    +0.022 A 
ATOM     27  C   UNL     1      -7.886 -11.276  -9.400  0.00  0.00    +0.027 A 
ATOM     28  C   UNL     1      -6.786 -10.723  -8.688  0.00  0.00    +0.043 A 
ATOM     29  N   UNL     1      -5.684 -11.264  -8.227  0.00  0.00    -0.380 N 
ATOM     30  C   UNL     1      -4.889 -10.219  -7.572  0.00  0.00    +0.144 C 
ATOM     31 CL   UNL     1     -10.354  -8.202 -10.002  0.00  0.00    -0.084 Cl
ATOM     32  H   UNL     1      -5.435 -12.197  -8.310  0.00  0.00    +0.160 HD
ENDBRANCH  21  22
ENDBRANCH  20  21
ENDBRANCH   5  20
TORSDOF 5
