REMARK  Name = ZINC39664094
REMARK  9 active torsions:
REMARK  status: ('A' for Active; 'I' for Inactive)
REMARK    1  A    between atoms: C_1  and  C_2
REMARK    2  A    between atoms: C_2  and  C_8
REMARK    3  A    between atoms: C_12  and  C_21
REMARK    4  A    between atoms: N_23  and  C_24
REMARK    5  A    between atoms: C_24  and  C_25
REMARK    6  A    between atoms: C_25  and  C_27
REMARK    7  A    between atoms: C_25  and  N_35
REMARK    8  A    between atoms: C_30  and  O_33
REMARK    9  A    between atoms: O_33  and  C_34
REMARK                            x       y       z     vdW  Elec       q    Type
REMARK                         _______ _______ _______ _____ _____    ______ ____
ROOT
ATOM      1  C   UNL     1      -1.331  -0.281  -0.095  0.00  0.00    +0.222 C 
ATOM      2  O   UNL     1      -1.863  -0.856   0.831  0.00  0.00    -0.275 OA
ATOM      3  N   UNL     1      -2.058   0.085  -1.169  0.00  0.00    -0.300 N 
ATOM      4  C   UNL     1      -1.573   0.690  -2.431  0.00  0.00    +0.121 C 
ATOM      5  C   UNL     1      -2.417   0.017  -3.537  0.00  0.00    +0.100 C 
ATOM      6  C   UNL     1      -3.697  -0.450  -2.824  0.00  0.00    -0.004 C 
ATOM      7  C   UNL     1      -3.525  -0.033  -1.356  0.00  0.00    +0.115 C 
ATOM      8  C   UNL     1      -4.919   0.235  -3.429  0.00  0.00    -0.010 C 
ATOM      9  C   UNL     1      -6.184  -0.288  -2.743  0.00  0.00    -0.082 C 
ATOM     10  N   UNL     1      -6.274  -1.742  -2.922  0.00  0.00    +0.379 N 
ATOM     11  C   UNL     1      -5.143  -2.400  -2.257  0.00  0.00    -0.082 C 
ATOM     12  C   UNL     1      -3.834  -1.966  -2.923  0.00  0.00    -0.010 C 
ATOM     13  H   UNL     1      -7.138  -2.076  -2.522  0.00  0.00    -0.086 HD
ATOM     14  H   UNL     1      -6.256  -1.960  -3.908  0.00  0.00    -0.086 HD
ENDROOT
BRANCH   1  16
ATOM     15  C   UNL     1       0.873  -0.806  -1.105  0.00  0.00    +0.021 C 
ATOM     16  C   UNL     1       0.144   0.023  -0.045  0.00  0.00    +0.044 C 
ATOM     17  C   UNL     1       0.691  -0.326   1.341  0.00  0.00    +0.016 C 
ATOM     18  C   UNL     1      -0.038   0.504   2.400  0.00  0.00    +0.001 C 
ATOM     19  C   UNL     1       0.185   1.992   2.124  0.00  0.00    +0.000 C 
ATOM     20  C   UNL     1      -0.361   2.341   0.738  0.00  0.00    +0.001 C 
ATOM     21  C   UNL     1       0.367   1.512  -0.321  0.00  0.00    +0.016 C 
ENDBRANCH   1  16
BRANCH   5  22
ATOM     22  C   UNL     1      -1.678  -1.161  -4.117  0.00  0.00    +0.218 C 
ATOM     23  O   UNL     1      -0.852  -1.747  -3.450  0.00  0.00    -0.275 OA
ATOM     24  N   UNL     1      -1.934  -1.563  -5.378  0.00  0.00    -0.316 N 
ATOM     25  H   UNL     1      -2.595  -1.095  -5.911  0.00  0.00    +0.149 HD
BRANCH  24  26
ATOM     26  C   UNL     1      -1.215  -2.709  -5.941  0.00  0.00    +0.093 C 
BRANCH  26  27
ATOM     27  C   UNL     1      -1.598  -2.876  -7.413  0.00  0.00    -0.020 C 
BRANCH  27  28
ATOM     28  C   UNL     1      -1.117  -1.682  -8.196  0.00  0.00    -0.059 A 
ATOM     29  C   UNL     1       0.206  -1.602  -8.590  0.00  0.00    +0.005 A 
ATOM     30  C   UNL     1       0.650  -0.508  -9.307  0.00  0.00    +0.046 A 
ATOM     31  C   UNL     1      -0.234   0.511  -9.633  0.00  0.00    +0.120 A 
ATOM     32  C   UNL     1      -1.561   0.428  -9.238  0.00  0.00    +0.046 A 
ATOM     33  C   UNL     1      -2.001  -0.670  -8.525  0.00  0.00    +0.005 A 
BRANCH  31  34
ATOM     34  O   UNL     1       0.200   1.589 -10.339  0.00  0.00    -0.495 OA
ATOM     35  C   UNL     1      -0.765   2.599 -10.639  0.00  0.00    +0.277 C 
ENDBRANCH  31  34
ENDBRANCH  27  28
BRANCH  27  36
ATOM     36  N   UNL     1      -0.973  -4.095  -7.946  0.00  0.00    +0.385 N 
ATOM     37  C   UNL     1      -1.574  -5.296  -7.314  0.00  0.00    -0.078 C 
ATOM     38  C   UNL     1      -1.260  -6.425  -8.327  0.00  0.00    -0.020 C 
ATOM     39  C   UNL     1      -1.424  -5.720  -9.693  0.00  0.00    -0.020 C 
ATOM     40  C   UNL     1      -1.251  -4.219  -9.393  0.00  0.00    -0.078 C 
ATOM     41  H   UNL     1       0.022  -4.075  -7.783  0.00  0.00    -0.081 HD
ENDBRANCH  27  36
ENDBRANCH  26  27
ENDBRANCH  24  26
ENDBRANCH   5  22
TORSDOF 7
