REMARK  Name = ZINC66204523
REMARK  7 active torsions:
REMARK  status: ('A' for Active; 'I' for Inactive)
REMARK    1  A    between atoms: C_4  and  O_26
REMARK    2  A    between atoms: C_5  and  C_7
REMARK    3  A    between atoms: N_9  and  N_10
REMARK    4  A    between atoms: N_13  and  C_14
REMARK    5  A    between atoms: C_14  and  C_15
REMARK    6  A    between atoms: C_15  and  C_16
REMARK    7  A    between atoms: C_16  and  C_17
REMARK                            x       y       z     vdW  Elec       q    Type
REMARK                         _______ _______ _______ _____ _____    ______ ____
ROOT
ATOM      1  N   UNL     1       0.121  -4.255  -0.023  0.00  0.00    -0.218 N 
ATOM      2  C   UNL     1      -1.033  -4.951  -0.015  0.00  0.00    +0.316 C 
ATOM      3  O   UNL     1      -1.011  -6.166  -0.022  0.00  0.00    -0.251 OA
ATOM      4  N   UNL     1      -2.213  -4.299  -0.000  0.00  0.00    -0.298 N 
ATOM      5  H   UNL     1       0.970  -4.725  -0.034  0.00  0.00    +0.174 HD
ATOM      6  H   UNL     1      -2.231  -3.329   0.005  0.00  0.00    +0.150 HD
ENDROOT
BRANCH   1   9
ATOM      7  C   UNL     1       1.250  -2.159  -0.022  0.00  0.00    +0.264 C 
ATOM      8  O   UNL     1       2.314  -2.748  -0.035  0.00  0.00    -0.269 OA
ATOM      9  N   UNL     1       0.095  -2.855  -0.015  0.00  0.00    -0.229 N 
ATOM     10  H   UNL     1      -0.754  -2.385  -0.004  0.00  0.00    +0.173 HD
BRANCH   7  15
ATOM     11  C   UNL     1      -0.017   1.374   0.010  0.00  0.00    +0.001 A 
ATOM     12  C   UNL     1       1.170   2.089   0.002  0.00  0.00    +0.004 A 
ATOM     13  C   UNL     1       2.383   1.429  -0.013  0.00  0.00    +0.046 A 
ATOM     14  C   UNL     1       2.420   0.043  -0.021  0.00  0.00    +0.129 A 
ATOM     15  C   UNL     1       1.222  -0.684  -0.013  0.00  0.00    +0.079 A 
ATOM     16  C   UNL     1       0.002  -0.004   0.002  0.00  0.00    +0.017 A 
BRANCH  14  17
ATOM     17  O   UNL     1       3.611  -0.606  -0.036  0.00  0.00    -0.506 OA
ATOM     18  H   UNL     1       3.965  -0.799   0.843  0.00  0.00    +0.292 HD
ENDBRANCH  14  17
ENDBRANCH   7  15
ENDBRANCH   1   9
BRANCH   4  19
ATOM     19  C   UNL     1      -3.468  -5.055   0.008  0.00  0.00    +0.106 C 
BRANCH  19  20
ATOM     20  C   UNL     1      -4.649  -4.082   0.025  0.00  0.00    +0.025 C 
BRANCH  20  21
ATOM     21  C   UNL     1      -5.959  -4.872   0.033  0.00  0.00    +0.064 C 
BRANCH  21  22
ATOM     22  C   UNL     1      -7.123  -3.914   0.050  0.00  0.00    +0.079 A 
ATOM     23  N   UNL     1      -7.764  -3.395  -0.967  0.00  0.00    -0.249 NA
ATOM     24  C   UNL     1      -8.781  -2.557  -0.807  0.00  0.00    +0.052 A 
ATOM     25  C   UNL     1      -9.097  -2.283   0.487  0.00  0.00    +0.013 A 
ATOM     26  S   UNL     1      -7.918  -3.256   1.382  0.00  0.00    -0.077 S 
ATOM     27  C   UNL     1     -10.175  -1.386   0.991  0.00  0.00    +0.044 C 
ATOM     28  C   UNL     1     -10.662  -0.516  -0.179  0.00  0.00    +0.006 C 
ATOM     29  C   UNL     1     -10.902  -1.413  -1.396  0.00  0.00    +0.006 C 
ATOM     30  C   UNL     1      -9.568  -1.923  -1.946  0.00  0.00    +0.056 C 
ENDBRANCH  21  22
ENDBRANCH  20  21
ENDBRANCH  19  20
ENDBRANCH   4  19
TORSDOF 7
