REMARK  Name = ZINC09186778
REMARK  4 active torsions:
REMARK  status: ('A' for Active; 'I' for Inactive)
REMARK    1  A    between atoms: C_1  and  C_2
REMARK    2  A    between atoms: C_6  and  N_8
REMARK    3  A    between atoms: C_26  and  C_27
REMARK    4  A    between atoms: C_26  and  N_53
REMARK                            x       y       z     vdW  Elec       q    Type
REMARK                         _______ _______ _______ _____ _____    ______ ____
ROOT
ATOM      1  N   UNL     1       5.129   6.310  -7.200  0.00  0.00    -0.245 N 
ATOM      2  C   UNL     1       5.079   5.510  -6.122  0.00  0.00    +0.268 A 
ATOM      3  O   UNL     1       6.101   5.024  -5.676  0.00  0.00    -0.266 OA
ATOM      4  C   UNL     1       3.777   5.220  -5.479  0.00  0.00    +0.074 A 
ATOM      5  C   UNL     1       3.516   4.381  -4.309  0.00  0.00    -0.026 A 
ATOM      6  C   UNL     1       2.226   4.284  -3.926  0.00  0.00    -0.021 A 
ATOM      7  S   UNL     1       1.337   5.286  -5.081  0.00  0.00    -0.076 S 
ATOM      8  C   UNL     1       2.659   5.818  -6.053  0.00  0.00    +0.102 A 
ATOM      9  N   UNL     1       2.752   6.633  -7.159  0.00  0.00    -0.250 N 
ATOM     10  C   UNL     1       3.981   6.880  -7.734  0.00  0.00    +0.243 A 
ATOM     11  N   UNL     1       3.810   7.671  -8.755  0.00  0.00    -0.134 NA
ATOM     12  N   UNL     1       2.443   7.955  -8.862  0.00  0.00    -0.252 N 
ATOM     13  H   UNL     1       2.024   8.520  -9.531  0.00  0.00    +0.191 HD
ATOM     14  C   UNL     1       1.815   7.302  -7.864  0.00  0.00    +0.182 A 
ATOM     15  S   UNL     1       0.133   7.318  -7.548  0.00  0.00    -0.011 S 
ATOM     16  C   UNL     1       1.697   3.491  -2.771  0.00  0.00    -0.035 C 
ATOM     17  C   UNL     1       4.033   3.249  -2.171  0.00  0.00    -0.073 C 
ATOM     18  C   UNL     1       4.603   3.641  -3.538  0.00  0.00    +0.018 C 
ATOM     19  N   UNL     1       2.753   2.534  -2.360  0.00  0.00    +0.386 N 
ATOM     20  H   UNL     1       2.870   1.828  -3.096  0.00  0.00    -0.081 HD
ENDROOT
BRANCH   1  26
ATOM     21  C   UNL     1       9.168   9.095  -7.516  0.00  0.00    +0.044 C 
ATOM     22  C   UNL     1       8.345   7.918  -7.971  0.00  0.00    -0.048 A 
ATOM     23  C   UNL     1       8.812   7.098  -8.982  0.00  0.00    +0.003 A 
ATOM     24  C   UNL     1       8.060   6.016  -9.402  0.00  0.00    +0.002 A 
ATOM     25  C   UNL     1       6.838   5.753  -8.813  0.00  0.00    +0.026 A 
ATOM     26  C   UNL     1       6.366   6.574  -7.798  0.00  0.00    +0.053 A 
ATOM     27  C   UNL     1       7.122   7.663  -7.382  0.00  0.00    +0.029 A 
ENDBRANCH   1  26
BRANCH  19  28
ATOM     28  C   UNL     1       2.362   1.858  -1.104  0.00  0.00    -0.043 C 
BRANCH  28  29
ATOM     29  C   UNL     1       0.943   1.365  -1.230  0.00  0.00    -0.064 A 
ATOM     30  C   UNL     1       0.691   0.106  -1.742  0.00  0.00    +0.002 A 
ATOM     31  C   UNL     1      -0.610  -0.345  -1.857  0.00  0.00    +0.000 A 
ATOM     32  C   UNL     1      -1.660   0.464  -1.464  0.00  0.00    +0.000 A 
ATOM     33  C   UNL     1      -1.408   1.720  -0.946  0.00  0.00    +0.000 A 
ATOM     34  C   UNL     1      -0.106   2.172  -0.831  0.00  0.00    +0.002 A 
ENDBRANCH  28  29
ENDBRANCH  19  28
TORSDOF 3
