REMARK  Name = ZINC05430640
REMARK  13 active torsions:
REMARK  status: ('A' for Active; 'I' for Inactive)
REMARK    1  A    between atoms: C_1  and  C_2
REMARK    2  A    between atoms: C_2  and  C_3
REMARK    3  A    between atoms: C_9  and  C_38
REMARK    4  A    between atoms: C_21  and  C_27
REMARK    5  A    between atoms: C_22  and  O_25
REMARK    6  A    between atoms: O_25  and  C_26
REMARK    7  A    between atoms: C_27  and  C_28
REMARK    8  A    between atoms: C_31  and  O_36
REMARK    9  A    between atoms: C_32  and  O_34
REMARK   10  A    between atoms: O_34  and  C_35
REMARK   11  A    between atoms: O_36  and  C_37
REMARK   12  A    between atoms: C_38  and  O_40
REMARK   13  A    between atoms: O_40  and  C_41
REMARK                            x       y       z     vdW  Elec       q    Type
REMARK                         _______ _______ _______ _____ _____    ______ ____
ROOT
ATOM      1  C   UNL     1       5.678  -1.955  -3.259  0.00  0.00    -0.023 C 
ATOM      2  C   UNL     1       7.038  -1.890  -2.554  0.00  0.00    +0.003 C 
ATOM      3  C   UNL     1       7.169  -0.527  -1.860  0.00  0.00    -0.026 C 
ATOM      4  C   UNL     1       7.010   0.566  -2.923  0.00  0.00    +0.024 C 
ATOM      5  C   UNL     1       5.562   0.531  -3.447  0.00  0.00    +0.096 C 
ATOM      6  C   UNL     1       4.877  -0.697  -2.885  0.00  0.00    -0.042 C 
ATOM      7  C   UNL     1       6.061  -0.388  -0.810  0.00  0.00    -0.075 C 
ATOM      8  C   UNL     1       3.670   0.146  -0.934  0.00  0.00    -0.074 C 
ATOM      9  C   UNL     1       4.015   1.595  -0.689  0.00  0.00    +0.019 C 
ATOM     10  C   UNL     1       4.330   2.284  -2.002  0.00  0.00    -0.019 A 
ATOM     11  C   UNL     1       4.922   1.846  -3.099  0.00  0.00    +0.036 A 
ATOM     12  N   UNL     1       4.903   2.855  -4.064  0.00  0.00    -0.357 N 
ATOM     13  H   UNL     1       5.266   2.771  -4.960  0.00  0.00    +0.166 HD
ATOM     14  C   UNL     1       4.316   3.975  -3.567  0.00  0.00    +0.047 A 
ATOM     15  C   UNL     1       3.931   3.675  -2.242  0.00  0.00    +0.010 A 
ATOM     16  C   UNL     1       3.288   4.611  -1.430  0.00  0.00    +0.008 A 
ATOM     17  C   UNL     1       3.051   5.858  -1.993  0.00  0.00    +0.124 A 
ATOM     18  C   UNL     1       3.433   6.156  -3.296  0.00  0.00    +0.048 A 
ATOM     19  C   UNL     1       4.069   5.235  -4.110  0.00  0.00    +0.030 A 
ATOM     20  N   UNL     1       4.768  -0.732  -1.423  0.00  0.00    +0.383 N 
ATOM     21  H   UNL     1       4.539  -1.695  -1.149  0.00  0.00    -0.081 HD
ENDROOT
BRANCH   1  23
ATOM     22  C   UNL     1       5.658  -4.453  -3.285  0.00  0.00    +0.004 C 
ATOM     23  C   UNL     1       4.920  -3.203  -2.802  0.00  0.00    -0.002 C 
ENDBRANCH   1  23
BRANCH  17  24
ATOM     24  O   UNL     1       2.431   6.813  -1.250  0.00  0.00    -0.495 OA
ATOM     25  C   UNL     1       2.211   8.080  -1.875  0.00  0.00    +0.277 C 
ENDBRANCH  17  24
BRANCH   5  26
ATOM     26  C   UNL     1       5.597   0.418  -4.949  0.00  0.00    +0.317 C 
ATOM     27  O   UNL     1       6.655   0.452  -5.533  0.00  0.00    -0.250 OA
BRANCH  26  28
ATOM     28  O   UNL     1       4.454   0.279  -5.639  0.00  0.00    -0.467 OA
ATOM     29  C   UNL     1       4.564   0.176  -7.083  0.00  0.00    +0.280 C 
ENDBRANCH  26  28
ENDBRANCH   5  26
BRANCH  16  30
ATOM     30  C   UNL     1       2.877   4.287  -0.017  0.00  0.00    +0.074 C 
BRANCH  30  31
ATOM     31  C   UNL     1       4.061   4.452   0.901  0.00  0.00    -0.039 A 
ATOM     32  C   UNL     1       4.612   5.705   1.097  0.00  0.00    +0.008 A 
ATOM     33  C   UNL     1       5.698   5.861   1.938  0.00  0.00    +0.049 A 
ATOM     34  C   UNL     1       6.240   4.760   2.582  0.00  0.00    +0.161 A 
ATOM     35  C   UNL     1       5.682   3.500   2.388  0.00  0.00    +0.162 A 
ATOM     36  C   UNL     1       4.593   3.350   1.544  0.00  0.00    +0.053 A 
BRANCH  35  37
ATOM     37  O   UNL     1       6.207   2.418   3.022  0.00  0.00    -0.491 OA
ATOM     38  C   UNL     1       5.587   1.155   2.771  0.00  0.00    +0.277 C 
ENDBRANCH  35  37
BRANCH  34  39
ATOM     39  O   UNL     1       7.311   4.912   3.406  0.00  0.00    -0.491 OA
ATOM     40  C   UNL     1       7.828   6.235   3.562  0.00  0.00    +0.277 C 
ENDBRANCH  34  39
ENDBRANCH  30  31
ENDBRANCH  16  30
TORSDOF 8
