REMARK  Name = ZINC04729921
REMARK  12 active torsions:
REMARK  status: ('A' for Active; 'I' for Inactive)
REMARK    1  A    between atoms: C_1  and  C_2
REMARK    2  A    between atoms: C_2  and  C_3
REMARK    3  A    between atoms: C_3  and  C_4
REMARK    4  A    between atoms: C_4  and  C_5
REMARK    5  A    between atoms: C_5  and  C_6
REMARK    6  A    between atoms: C_6  and  C_7
REMARK    7  A    between atoms: C_7  and  C_29
REMARK    8  A    between atoms: C_8  and  C_20
REMARK    9  A    between atoms: C_11  and  C_13
REMARK   10  A    between atoms: C_24  and  O_27
REMARK   11  A    between atoms: C_25  and  O_26
REMARK   12  A    between atoms: O_27  and  C_28
REMARK                            x       y       z     vdW  Elec       q    Type
REMARK                         _______ _______ _______ _____ _____    ______ ____
ROOT
ATOM      1  C   UNL     1       2.326  -0.104  -0.664  0.00  0.00    +0.026 C 
ATOM      2  C   UNL     1       1.419   2.030  -0.001  0.00  0.00    -0.028 C 
ATOM      3  C   UNL     1      -0.018   1.499   0.010  0.00  0.00    +0.044 C 
ATOM      4  C   UNL     1       0.002  -0.004   0.002  0.00  0.00    +0.040 C 
ATOM      5  N   UNL     1       1.041  -0.687  -0.301  0.00  0.00    -0.300 NA
ATOM      6  C   UNL     1       2.916  -0.879  -1.844  0.00  0.00    +0.014 C 
ATOM      7  N   UNL     1       2.170   1.308  -1.046  0.00  0.00    +0.400 N 
ATOM      8  H   UNL     1       1.659   1.365  -1.934  0.00  0.00    -0.081 HD
ATOM      9  H   UNL     1       3.097   1.735  -1.156  0.00  0.00    -0.081 HD
ENDROOT
BRANCH   4  10
ATOM     10  C   UNL     1      -1.234  -0.726   0.360  0.00  0.00    -0.004 A 
ATOM     11  C   UNL     1      -2.387  -0.015   0.702  0.00  0.00    +0.011 A 
ATOM     12  C   UNL     1      -3.541  -0.696   1.031  0.00  0.00    +0.020 A 
ATOM     13  C   UNL     1      -3.555  -2.081   1.033  0.00  0.00    +0.041 A 
ATOM     14  C   UNL     1      -2.413  -2.791   0.700  0.00  0.00    +0.020 A 
ATOM     15  C   UNL     1      -1.255  -2.122   0.364  0.00  0.00    +0.011 A 
ATOM     16 CL   UNL     1      -5.009  -2.930   1.454  0.00  0.00    -0.084 Cl
ENDBRANCH   4  10
BRANCH   2  17
ATOM     17  C   UNL     1       1.414   3.504  -0.310  0.00  0.00    -0.016 A 
ATOM     18  C   UNL     1       1.597   3.938  -1.611  0.00  0.00    +0.006 A 
ATOM     19  C   UNL     1       1.594   5.290  -1.898  0.00  0.00    +0.004 A 
ATOM     20  C   UNL     1       1.406   6.215  -0.887  0.00  0.00    +0.049 A 
ATOM     21  C   UNL     1       1.221   5.787   0.417  0.00  0.00    +0.161 A 
ATOM     22  C   UNL     1       1.220   4.425   0.706  0.00  0.00    +0.160 A 
BRANCH  22  23
ATOM     23  O   UNL     1       1.034   4.000   1.984  0.00  0.00    -0.503 OA
ATOM     24  H   UNL     1       1.853   3.909   2.491  0.00  0.00    +0.292 HD
ENDBRANCH  22  23
BRANCH  21  25
ATOM     25  O   UNL     1       1.036   6.695   1.413  0.00  0.00    -0.491 OA
ATOM     26  C   UNL     1       1.044   8.075   1.041  0.00  0.00    +0.277 C 
ENDBRANCH  21  25
ENDBRANCH   2  17
BRANCH   1  27
ATOM     27  C   UNL     1       3.279  -0.202   0.529  0.00  0.00    +0.010 C 
BRANCH  27  28
ATOM     28  C   UNL     1       3.569  -1.673   0.831  0.00  0.00    +0.000 C 
BRANCH  28  29
ATOM     29  C   UNL     1       4.522  -1.771   2.025  0.00  0.00    -0.000 C 
BRANCH  29  30
ATOM     30  C   UNL     1       4.812  -3.243   2.326  0.00  0.00    -0.000 C 
BRANCH  30  32
ATOM     31  C   UNL     1       6.055  -4.812   3.821  0.00  0.00    +0.004 C 
ATOM     32  C   UNL     1       5.764  -3.340   3.520  0.00  0.00    -0.003 C 
ENDBRANCH  30  32
ENDBRANCH  29  30
ENDBRANCH  28  29
ENDBRANCH  27  28
ENDBRANCH   1  27
TORSDOF 9
