REMARK  Name = ZINC33869226
REMARK  11 active torsions:
REMARK  status: ('A' for Active; 'I' for Inactive)
REMARK    1  A    between atoms: C_1  and  C_2
REMARK    2  A    between atoms: C_2  and  C_3
REMARK    3  A    between atoms: C_3  and  O_4
REMARK    4  A    between atoms: O_4  and  C_5
REMARK    5  A    between atoms: C_8  and  C_11
REMARK    6  A    between atoms: N_19  and  C_22
REMARK    7  A    between atoms: C_22  and  C_23
REMARK    8  A    between atoms: C_29  and  C_31
REMARK    9  A    between atoms: C_29  and  C_39
REMARK   10  A    between atoms: C_31  and  C_32
REMARK   11  A    between atoms: C_35  and  O_38
REMARK                            x       y       z     vdW  Elec       q    Type
REMARK                         _______ _______ _______ _____ _____    ______ ____
ROOT
ATOM      1  C   UNL     1       3.346  -4.486   5.542  0.00  0.00    -0.027 C 
ATOM      2  C   UNL     1       4.683  -5.052   5.092  0.00  0.00    +0.077 C 
ATOM      3  C   UNL     1       4.175  -6.441   4.547  0.00  0.00    +0.086 C 
ATOM      4  C   UNL     1       5.301  -6.874   3.756  0.00  0.00    +0.225 C 
ATOM      5  O   UNL     1       5.692  -8.009   3.589  0.00  0.00    -0.275 OA
ATOM      6  N   UNL     1       5.833  -5.722   3.232  0.00  0.00    -0.237 N 
ATOM      7  C   UNL     1       5.347  -4.583   3.836  0.00  0.00    +0.225 C 
ATOM      8  O   UNL     1       5.432  -3.441   3.437  0.00  0.00    -0.275 OA
ATOM      9  C   UNL     1       3.325  -6.912   5.653  0.00  0.00    +0.052 C 
ATOM     10  N   UNL     1       2.546  -5.660   6.004  0.00  0.00    +0.396 N 
ATOM     11  H   UNL     1       2.415  -5.613   7.003  0.00  0.00    -0.083 HD
ATOM     12  H   UNL     1       1.649  -5.666   5.540  0.00  0.00    -0.083 HD
ENDROOT
BRANCH   1  16
ATOM     13  C   UNL     1       1.384  -2.554   2.274  0.00  0.00    +0.121 A 
ATOM     14  C   UNL     1       1.272  -3.927   2.438  0.00  0.00    +0.046 A 
ATOM     15  C   UNL     1       1.907  -4.549   3.495  0.00  0.00    +0.005 A 
ATOM     16  C   UNL     1       2.654  -3.804   4.389  0.00  0.00    -0.060 A 
ATOM     17  C   UNL     1       2.768  -2.436   4.228  0.00  0.00    +0.005 A 
ATOM     18  C   UNL     1       2.139  -1.810   3.169  0.00  0.00    +0.046 A 
BRANCH  13  19
ATOM     19  O   UNL     1       0.761  -1.940   1.234  0.00  0.00    -0.492 OA
BRANCH  19  20
ATOM     20  C   UNL     1       0.001  -2.768   0.352  0.00  0.00    +0.229 C 
BRANCH  20  22
ATOM     21  C   UNL     1      -1.437  -2.793  -1.691  0.00  0.00    +0.007 C 
ATOM     22  C   UNL     1      -0.623  -1.906  -0.747  0.00  0.00    +0.038 C 
ENDBRANCH  20  22
ENDBRANCH  19  20
ENDBRANCH  13  19
ENDBRANCH   1  16
BRANCH   9  23
ATOM     23  C   UNL     1       4.165  -7.383   6.812  0.00  0.00    +0.347 C 
ATOM     24  O   UNL     1       4.056  -6.847   7.901  0.00  0.00    -0.248 OA
ATOM     25  O   UNL     1       4.953  -8.301   6.660  0.00  0.00    -0.248 OA
ENDBRANCH   9  23
BRANCH   6  26
ATOM     26  C   UNL     1       6.823  -5.702   2.153  0.00  0.00    +0.151 C 
BRANCH  26  27
ATOM     27  C   UNL     1       6.116  -5.648   0.824  0.00  0.00    -0.030 A 
ATOM     28  C   UNL     1       5.767  -6.819   0.178  0.00  0.00    +0.005 A 
ATOM     29  C   UNL     1       5.119  -6.770  -1.042  0.00  0.00    +0.000 A 
ATOM     30  C   UNL     1       4.818  -5.548  -1.615  0.00  0.00    +0.000 A 
ATOM     31  C   UNL     1       5.165  -4.377  -0.969  0.00  0.00    +0.000 A 
ATOM     32  C   UNL     1       5.810  -4.427   0.252  0.00  0.00    +0.005 A 
ENDBRANCH  26  27
ENDBRANCH   6  26
BRANCH   9  33
ATOM     33  C   UNL     1       2.379  -8.017   5.180  0.00  0.00    +0.035 C 
BRANCH  33  34
ATOM     34  C   UNL     1       1.441  -8.390   6.299  0.00  0.00    -0.048 A 
ATOM     35  C   UNL     1       1.794  -9.384   7.192  0.00  0.00    +0.007 A 
ATOM     36  C   UNL     1       0.936  -9.728   8.219  0.00  0.00    +0.045 A 
ATOM     37  C   UNL     1      -0.280  -9.074   8.354  0.00  0.00    +0.117 A 
ATOM     38  C   UNL     1      -0.631  -8.075   7.457  0.00  0.00    +0.045 A 
ATOM     39  C   UNL     1       0.233  -7.732   6.435  0.00  0.00    +0.007 A 
BRANCH  37  40
ATOM     40  O   UNL     1      -1.125  -9.410   9.364  0.00  0.00    -0.507 OA
ATOM     41  H   UNL     1      -0.988  -8.905  10.177  0.00  0.00    +0.292 HD
ENDBRANCH  37  40
ENDBRANCH  33  34
ENDBRANCH   9  33
TORSDOF 10
