REMARK  Name = ZINC36635354
REMARK  5 active torsions:
REMARK  status: ('A' for Active; 'I' for Inactive)
REMARK    1  A    between atoms: C_1  and  C_2
REMARK    2  A    between atoms: C_6  and  N_8
REMARK    3  A    between atoms: C_12  and  N_16
REMARK    4  A    between atoms: N_16  and  C_17
REMARK    5  A    between atoms: C_22  and  C_23
REMARK                            x       y       z     vdW  Elec       q    Type
REMARK                         _______ _______ _______ _____ _____    ______ ____
ROOT
ATOM      1  N   UNL     1       0.050  -2.798   2.395  0.00  0.00    -0.209 N 
ATOM      2  C   UNL     1       0.141  -2.196   3.587  0.00  0.00    +0.228 C 
ATOM      3  O   UNL     1       0.218  -1.000   3.766  0.00  0.00    -0.275 OA
ATOM      4  C   UNL     1       0.130  -3.246   4.677  0.00  0.00    +0.128 C 
ATOM      5  C   UNL     1       0.017  -4.573   3.900  0.00  0.00    +0.166 C 
ATOM      6  C   UNL     1      -0.030  -4.133   2.453  0.00  0.00    +0.247 C 
ATOM      7  O   UNL     1      -0.124  -4.873   1.497  0.00  0.00    -0.273 OA
ENDROOT
BRANCH   1  13
ATOM      8  C   UNL     1      -2.370  -1.345  -1.632  0.00  0.00    +0.044 C 
ATOM      9  C   UNL     1      -1.124  -1.368  -0.785  0.00  0.00    -0.049 A 
ATOM     10  C   UNL     1       0.006  -0.689  -1.200  0.00  0.00    +0.003 A 
ATOM     11  C   UNL     1       1.151  -0.708  -0.425  0.00  0.00    +0.002 A 
ATOM     12  C   UNL     1       1.169  -1.406   0.766  0.00  0.00    +0.024 A 
ATOM     13  C   UNL     1       0.035  -2.089   1.186  0.00  0.00    +0.044 A 
ATOM     14  C   UNL     1      -1.115  -2.063   0.409  0.00  0.00    +0.027 A 
ENDBRANCH   1  13
BRANCH   5  15
ATOM     15  N   UNL     1       1.186  -5.419   4.152  0.00  0.00    -0.332 N 
ATOM     16  H   UNL     1       2.028  -5.017   4.418  0.00  0.00    +0.147 HD
BRANCH  15  17
ATOM     17  C   UNL     1       1.089  -6.805   4.008  0.00  0.00    +0.031 A 
ATOM     18  C   UNL     1      -0.115  -7.383   3.622  0.00  0.00    +0.023 A 
ATOM     19  C   UNL     1      -0.207  -8.753   3.481  0.00  0.00    +0.002 A 
ATOM     20  C   UNL     1       0.896  -9.551   3.724  0.00  0.00    +0.000 A 
ATOM     21  C   UNL     1       2.095  -8.980   4.110  0.00  0.00    +0.005 A 
ATOM     22  C   UNL     1       2.196  -7.609   4.247  0.00  0.00    -0.030 A 
ATOM     23  C   UNL     1       3.505  -6.987   4.660  0.00  0.00    +0.045 C 
ENDBRANCH  15  17
ENDBRANCH   5  15
TORSDOF 3
