REMARK  Name = ZINC20610700
REMARK  9 active torsions:
REMARK  status: ('A' for Active; 'I' for Inactive)
REMARK    1  A    between atoms: CG1_1  and  CB_2
REMARK    2  A    between atoms: CB_2  and  CG2_3
REMARK    3  A    between atoms: CB_2  and  CA_4
REMARK    4  A    between atoms: CA_4  and  C_6
REMARK    5  A    between atoms: CA_4  and  N_9
REMARK    6  A    between atoms: C_10  and  C_12
REMARK    7  A    between atoms: C_12  and  C_14
REMARK    8  A    between atoms: C_12  and  N_21
REMARK    9  A    between atoms: C_14  and  C_15
REMARK                            x       y       z     vdW  Elec       q    Type
REMARK                         _______ _______ _______ _____ _____    ______ ____
ROOT
ATOM      1  C   UNK A   0       4.758   4.072   1.141  0.00  0.00    +0.185 C 
ENDROOT
BRANCH   1   2
ATOM      2  N   UNK A   0       5.273   4.095   2.513  0.00  0.00    -0.248 N 
ATOM      3  C   UNK A   0       5.729   5.256   3.030  0.00  0.00    +0.265 A 
ATOM      4  O   UNK A   0       5.716   6.279   2.373  0.00  0.00    -0.267 OA
ATOM      5  C   UNK A   0       6.242   5.251   4.412  0.00  0.00    +0.063 A 
ATOM      6  C   UNK A   0       6.728   6.408   5.017  0.00  0.00    +0.015 A 
ATOM      7  C   UNK A   0       7.197   6.351   6.312  0.00  0.00    +0.001 A 
ATOM      8  C   UNK A   0       7.186   5.153   7.011  0.00  0.00    +0.002 A 
ATOM      9  C   UNK A   0       6.706   4.000   6.423  0.00  0.00    +0.026 A 
ATOM     10  C   UNK A   0       6.231   4.038   5.121  0.00  0.00    +0.056 A 
ATOM     11  N   UNK A   0       5.740   2.902   4.493  0.00  0.00    -0.307 N 
ATOM     12  H   UNK A   0       5.726   1.941   5.028  0.00  0.00    +0.170 HD
ATOM     13  C   UNK A   0       5.278   2.962   3.232  0.00  0.00    +0.330 A 
ATOM     14  O   UNK A   0       4.852   1.945   2.720  0.00  0.00    -0.246 OA
ENDBRANCH   1   2
BRANCH   1  16
ATOM     15  N   VAL A   1       2.634   3.529  -0.004  0.00  0.00    -0.300 N 
ATOM     16  C   UNK A   0       3.319   3.625   1.153  0.00  0.00    +0.237 C 
ATOM     17  O   UNK A   0       2.777   3.352   2.203  0.00  0.00    -0.274 OA
ATOM     18  H   VAL A   1       3.126   3.776  -0.957  0.00  0.00    +0.150 HD
BRANCH  15  19
ATOM     19  CA  VAL A   1       1.235   3.094   0.007  0.00  0.00    +0.189 C 
BRANCH  19  21
ATOM     20  CG1 VAL A   1      -0.939   3.185  -1.221  0.00  0.00    +0.009 C 
ATOM     21  CB  VAL A   1       0.522   3.639  -1.233  0.00  0.00    +0.014 C 
ATOM     22  CG2 VAL A   1       0.582   5.167  -1.225  0.00  0.00    +0.009 C 
ENDBRANCH  19  21
BRANCH  19  23
ATOM     23  C   VAL A   1       1.177   1.588  -0.001  0.00  0.00    +0.376 C 
ATOM     24  O   VAL A   1       2.199   0.944  -0.014  0.00  0.00    -0.244 OA
ATOM     25  OXT VAL A   1      -0.011   0.963   0.007  0.00  0.00    -0.244 OA
ENDBRANCH  19  23
ENDBRANCH  15  19
ENDBRANCH   1  16
BRANCH   1  26
ATOM     26  C   UNK A   0       5.588   3.099   0.301  0.00  0.00    +0.070 C 
BRANCH  26  27
ATOM     27  C   UNK A   0       7.000   3.612   0.188  0.00  0.00    -0.045 A 
ATOM     28  C   UNK A   0       7.352   4.444  -0.858  0.00  0.00    +0.004 A 
ATOM     29  C   UNK A   0       8.646   4.918  -0.960  0.00  0.00    +0.000 A 
ATOM     30  C   UNK A   0       9.592   4.551  -0.021  0.00  0.00    +0.000 A 
ATOM     31  C   UNK A   0       9.242   3.714   1.022  0.00  0.00    +0.000 A 
ATOM     32  C   UNK A   0       7.946   3.244   1.127  0.00  0.00    +0.004 A 
ENDBRANCH  26  27
ENDBRANCH   1  26
TORSDOF 7
