REMARK  Name = ZINC05594784
REMARK  3 active torsions:
REMARK  status: ('A' for Active; 'I' for Inactive)
REMARK    1  A    between atoms: C_3  and  C_9
REMARK    2  A    between atoms: N_10  and  N_11
REMARK    3  A    between atoms: N_11  and  C_12
REMARK                            x       y       z     vdW  Elec       q    Type
REMARK                         _______ _______ _______ _____ _____    ______ ____
ROOT
ATOM      1  N   UNL     1       2.270   5.616   0.213  0.00  0.00    -0.235 N 
ATOM      2  H   UNL     1       1.473   6.008   0.603  0.00  0.00    +0.174 HD
ENDROOT
BRANCH   1   3
ATOM      3  C   UNL     1       3.458   6.326   0.206  0.00  0.00    +0.092 A 
ATOM      4  C   UNL     1       3.444   7.737   0.213  0.00  0.00    +0.159 A 
ATOM      5  N   UNL     1       4.561   8.408   0.206  0.00  0.00    -0.177 NA
ATOM      6  N   UNL     1       5.797   7.752   0.192  0.00  0.00    -0.242 N 
ATOM      7  H   UNL     1       6.642   8.286   0.188  0.00  0.00    +0.192 HD
ATOM      8  C   UNL     1       5.858   6.406   0.185  0.00  0.00    +0.285 A 
ATOM      9  O   UNL     1       6.940   5.840   0.173  0.00  0.00    -0.265 OA
ATOM     10  C   UNL     1       4.670   5.659   0.197  0.00  0.00    +0.130 A 
ATOM     11 CL   UNL     1       4.721   3.924   0.196  0.00  0.00    -0.076 Cl
ENDBRANCH   1   3
BRANCH   1  13
ATOM     12  C   UNL     1       1.149   3.608  -0.209  0.00  0.00    +0.139 C 
ATOM     13  N   UNL     1       2.218   4.331  -0.343  0.00  0.00    -0.190 NA
BRANCH  12  16
ATOM     14  C   UNL     1      -0.257   0.395  -1.544  0.00  0.00    +0.021 A 
ATOM     15  C   UNL     1      -0.099   1.531  -0.778  0.00  0.00    +0.012 A 
ATOM     16  C   UNL     1       0.974   2.392  -1.023  0.00  0.00    +0.013 A 
ATOM     17  C   UNL     1       1.881   2.094  -2.045  0.00  0.00    +0.051 A 
ATOM     18  C   UNL     1       1.711   0.954  -2.803  0.00  0.00    +0.040 A 
ATOM     19  C   UNL     1       0.645   0.106  -2.554  0.00  0.00    +0.042 A 
ATOM     20 CL   UNL     1       0.438  -1.327  -3.513  0.00  0.00    -0.083 Cl
ATOM     21 CL   UNL     1       3.218   3.157  -2.358  0.00  0.00    -0.083 Cl
ENDBRANCH  12  16
ENDBRANCH   1  13
TORSDOF 3
