REMARK  Name = ZINC08743399
REMARK  4 active torsions:
REMARK  status: ('A' for Active; 'I' for Inactive)
REMARK    1  A    between atoms: C_8  and  C_26
REMARK    2  A    between atoms: C_10  and  C_17
REMARK    3  A    between atoms: C_21  and  N_23
REMARK    4  A    between atoms: C_26  and  C_28
REMARK                            x       y       z     vdW  Elec       q    Type
REMARK                         _______ _______ _______ _____ _____    ______ ____
ROOT
ATOM      1  C   UNL     1      -0.795  -0.883  -5.026  0.00  0.00    +0.000 A 
ATOM      2  C   UNL     1      -1.613  -0.208  -5.914  0.00  0.00    +0.002 A 
ATOM      3  C   UNL     1      -1.925   1.119  -5.701  0.00  0.00    +0.023 A 
ATOM      4  C   UNL     1      -1.419   1.789  -4.590  0.00  0.00    +0.036 A 
ATOM      5  C   UNL     1      -0.595   1.100  -3.705  0.00  0.00    -0.027 A 
ATOM      6  C   UNL     1      -0.286  -0.224  -3.921  0.00  0.00    +0.004 A 
ATOM      7  C   UNL     1      -0.222   2.088  -2.635  0.00  0.00    +0.051 C 
ATOM      8  C   UNL     1      -0.673   1.607  -1.251  0.00  0.00    +0.069 C 
ATOM      9  C   UNL     1       0.365   2.210  -0.282  0.00  0.00    +0.016 C 
ATOM     10  C   UNL     1       1.553   2.628  -1.157  0.00  0.00    -0.059 C 
ATOM     11  C   UNL     1       1.912   0.984  -2.827  0.00  0.00    -0.076 C 
ATOM     12  C   UNL     1       3.236   1.086  -2.032  0.00  0.00    -0.020 C 
ATOM     13  C   UNL     1       2.814   1.849  -0.756  0.00  0.00    -0.016 C 
ATOM     14  C   UNL     1      -0.922   3.363  -3.023  0.00  0.00    +0.212 C 
ATOM     15  O   UNL     1      -0.891   4.417  -2.423  0.00  0.00    -0.277 OA
ATOM     16  N   UNL     1      -1.590   3.108  -4.164  0.00  0.00    -0.286 N 
ATOM     17  H   UNL     1      -2.127   3.764  -4.635  0.00  0.00    +0.155 HD
ATOM     18  N   UNL     1       1.234   2.259  -2.526  0.00  0.00    +0.395 N 
ATOM     19  H   UNL     1       1.550   2.989  -3.175  0.00  0.00    -0.079 HD
ENDROOT
BRANCH   9  20
ATOM     20  C   UNL     1      -0.213   3.411   0.421  0.00  0.00    -0.043 A 
ATOM     21  C   UNL     1      -0.039   4.674  -0.113  0.00  0.00    +0.004 A 
ATOM     22  C   UNL     1      -0.573   5.775   0.529  0.00  0.00    +0.002 A 
ATOM     23  C   UNL     1      -1.273   5.614   1.710  0.00  0.00    +0.033 A 
ATOM     24  C   UNL     1      -1.442   4.352   2.247  0.00  0.00    +0.126 A 
ATOM     25  C   UNL     1      -0.912   3.250   1.602  0.00  0.00    +0.036 A 
BRANCH  24  26
ATOM     26  N   UNL     1      -2.191   4.180   3.512  0.00  0.00    +0.056 N 
ATOM     27  O   UNL     1      -2.341   3.067   3.985  0.00  0.00    -0.126 OA
ATOM     28  O   UNL     1      -2.658   5.151   4.080  0.00  0.00    -0.126 OA
ENDBRANCH  24  26
ENDBRANCH   9  20
BRANCH   8  29
ATOM     29  C   UNL     1      -2.052   2.126  -0.936  0.00  0.00    +0.166 C 
ATOM     30  O   UNL     1      -2.236   3.317  -0.803  0.00  0.00    -0.292 OA
BRANCH  29  31
ATOM     31  C   UNL     1      -3.174   1.189  -0.791  0.00  0.00    +0.021 A 
ATOM     32  C   UNL     1      -2.966  -0.187  -0.951  0.00  0.00    +0.015 A 
ATOM     33  C   UNL     1      -4.018  -1.063  -0.809  0.00  0.00    +0.050 A 
ATOM     34  C   UNL     1      -5.291  -0.587  -0.519  0.00  0.00    +0.166 A 
ATOM     35  C   UNL     1      -5.507   0.784  -0.364  0.00  0.00    +0.167 A 
ATOM     36  C   UNL     1      -4.457   1.668  -0.499  0.00  0.00    +0.061 A 
ATOM     37  O   UNL     1      -6.829   0.987  -0.086  0.00  0.00    -0.453 OA
ATOM     38  C   UNL     1      -7.334  -0.295   0.331  0.00  0.00    +0.466 C 
ATOM     39  O   UNL     1      -6.475  -1.237  -0.339  0.00  0.00    -0.453 OA
ENDBRANCH  29  31
ENDBRANCH   8  29
TORSDOF 4
