REMARK  Name = ZINC67297176
REMARK  8 active torsions:
REMARK  status: ('A' for Active; 'I' for Inactive)
REMARK    1  A    between atoms: C_1  and  C_2
REMARK    2  A    between atoms: C_5  and  N_9
REMARK    3  A    between atoms: C_6  and  C_8
REMARK    4  A    between atoms: C_10  and  C_12
REMARK    5  A    between atoms: N_22  and  C_23
REMARK    6  A    between atoms: C_27  and  C_29
REMARK    7  A    between atoms: C_29  and  O_31
REMARK    8  A    between atoms: O_31  and  C_32
REMARK                            x       y       z     vdW  Elec       q    Type
REMARK                         _______ _______ _______ _____ _____    ______ ____
ROOT
ATOM      1  C   UNL     1      -0.193  -6.279  -1.173  0.00  0.00    +0.098 A 
ATOM      2  C   UNL     1      -0.178  -6.981  -2.371  0.00  0.00    +0.030 A 
ATOM      3  C   UNL     1      -0.205  -8.444  -2.294  0.00  0.00    +0.018 A 
ATOM      4  C   UNL     1       0.074  -9.226  -3.421  0.00  0.00    +0.011 A 
ATOM      5  C   UNL     1       0.045 -10.589  -3.324  0.00  0.00    +0.001 A 
ATOM      6  C   UNL     1      -0.259 -11.204  -2.118  0.00  0.00    +0.004 A 
ATOM      7  C   UNL     1      -0.538 -10.450  -0.995  0.00  0.00    +0.047 A 
ATOM      8  C   UNL     1      -0.517  -9.066  -1.070  0.00  0.00    +0.137 A 
ATOM      9  O   UNL     1      -0.795  -8.309   0.019  0.00  0.00    -0.439 OA
ATOM     10  C   UNL     1      -0.230  -7.074   0.071  0.00  0.00    +0.212 A 
ATOM     11  N   UNL     1       0.264  -6.598   1.194  0.00  0.00    -0.325 N 
ATOM     12  H   UNL     1       0.763  -5.766   1.190  0.00  0.00    +0.169 HD
ENDROOT
BRANCH  11  13
ATOM     13  C   UNL     1       0.074  -7.276   2.366  0.00  0.00    +0.043 A 
ATOM     14  C   UNL     1      -1.186  -7.796   2.679  0.00  0.00    +0.026 A 
ATOM     15  C   UNL     1      -1.379  -8.481   3.862  0.00  0.00    +0.003 A 
ATOM     16  C   UNL     1      -0.331  -8.658   4.744  0.00  0.00    +0.015 A 
ATOM     17  C   UNL     1       0.933  -8.143   4.445  0.00  0.00    +0.061 A 
ATOM     18  C   UNL     1       1.138  -7.456   3.250  0.00  0.00    +0.040 A 
BRANCH  17  19
ATOM     19  C   UNL     1       2.053  -8.333   5.391  0.00  0.00    +0.339 C 
ATOM     20  O   UNL     1       3.151  -7.886   5.129  0.00  0.00    -0.245 OA
BRANCH  19  21
ATOM     21  O   UNL     1       1.855  -9.003   6.543  0.00  0.00    -0.464 OA
ATOM     22  C   UNL     1       2.981  -9.149   7.410  0.00  0.00    +0.280 C 
ENDBRANCH  19  21
ENDBRANCH  17  19
ENDBRANCH  11  13
BRANCH   1  24
ATOM     23  N   UNL     1      -0.291  -4.154   0.028  0.00  0.00    -0.281 N 
ATOM     24  C   UNL     1      -0.168  -4.807  -1.144  0.00  0.00    +0.253 C 
ATOM     25  O   UNL     1      -0.035  -4.181  -2.179  0.00  0.00    -0.270 OA
ATOM     26  H   UNL     1      -0.347  -4.653   0.858  0.00  0.00    +0.155 HD
BRANCH  23  31
ATOM     27  C   UNL     1      -0.484   1.515   0.107  0.00  0.00    +0.044 C 
ATOM     28  C   UNL     1      -0.433   0.009   0.086  0.00  0.00    -0.050 A 
ATOM     29  C   UNL     1       0.112  -0.648  -1.002  0.00  0.00    +0.005 A 
ATOM     30  C   UNL     1       0.161  -2.028  -1.025  0.00  0.00    +0.024 A 
ATOM     31  C   UNL     1      -0.338  -2.756   0.048  0.00  0.00    +0.037 A 
ATOM     32  C   UNL     1      -0.884  -2.094   1.139  0.00  0.00    -0.029 A 
ATOM     33  C   UNL     1      -0.925  -0.713   1.158  0.00  0.00    +0.008 A 
ATOM     34  C   UNL     1      -1.427  -2.880   2.305  0.00  0.00    +0.045 C 
ENDBRANCH  23  31
ENDBRANCH   1  24
TORSDOF 5
