REMARK  Name = ZINC41644777
REMARK  6 active torsions:
REMARK  status: ('A' for Active; 'I' for Inactive)
REMARK    1  A    between atoms: C_1  and  C_2
REMARK    2  A    between atoms: C_2  and  C_4
REMARK    3  A    between atoms: C_2  and  N_15
REMARK    4  A    between atoms: C_8  and  N_10
REMARK    5  A    between atoms: C_16  and  C_18
REMARK    6  A    between atoms: C_18  and  C_29
REMARK                            x       y       z     vdW  Elec       q    Type
REMARK                         _______ _______ _______ _____ _____    ______ ____
ROOT
ATOM      1  N   UNL     1      -1.372  -0.511   0.012  0.00  0.00    -0.307 N 
ATOM      2  C   UNL     1      -2.029  -0.655   1.181  0.00  0.00    +0.239 C 
ATOM      3  O   UNL     1      -1.481  -0.365   2.224  0.00  0.00    -0.274 OA
ATOM      4  H   UNL     1      -1.810  -0.743  -0.822  0.00  0.00    +0.149 HD
ENDROOT
BRANCH   2   5
ATOM      5  C   UNL     1      -3.442  -1.177   1.191  0.00  0.00    +0.170 C 
ATOM      6  C   UNL     1      -4.081  -0.881   2.524  0.00  0.00    +0.242 C 
ATOM      7  O   UNL     1      -4.112  -1.762   3.357  0.00  0.00    -0.273 OA
ATOM      8  N   UNL     1      -4.612   0.298   2.831  0.00  0.00    -0.283 N 
ATOM      9  C   UNL     1      -4.773   1.384   1.976  0.00  0.00    +0.047 A 
ATOM     10  C   UNL     1      -5.018   2.643   2.516  0.00  0.00    +0.024 A 
ATOM     11  C   UNL     1      -5.172   3.737   1.689  0.00  0.00    +0.002 A 
ATOM     12  C   UNL     1      -5.085   3.597   0.316  0.00  0.00    +0.001 A 
ATOM     13  C   UNL     1      -4.846   2.352  -0.235  0.00  0.00    +0.016 A 
ATOM     14  C   UNL     1      -4.694   1.249   0.590  0.00  0.00    +0.031 A 
ATOM     15  S   UNL     1      -4.410  -0.348  -0.107  0.00  0.00    -0.098 S 
ATOM     16  C   UNL     1      -3.435  -2.687   0.943  0.00  0.00    +0.043 C 
ATOM     17  H   UNL     1      -4.917   0.413   3.744  0.00  0.00    +0.155 HD
ENDBRANCH   2   5
BRANCH   1  19
ATOM     18  C   UNL     1      -0.019   1.526   0.010  0.00  0.00    +0.033 C 
ATOM     19  C   UNL     1       0.002  -0.004   0.002  0.00  0.00    +0.100 C 
BRANCH  19  20
ATOM     20  C   UNL     1       0.707  -0.490  -1.238  0.00  0.00    -0.026 A 
ATOM     21  C   UNL     1       0.037  -0.521  -2.447  0.00  0.00    +0.005 A 
ATOM     22  C   UNL     1       0.681  -0.966  -3.587  0.00  0.00    +0.002 A 
ATOM     23  C   UNL     1       1.996  -1.381  -3.521  0.00  0.00    +0.026 A 
ATOM     24  C   UNL     1       2.672  -1.351  -2.309  0.00  0.00    +0.046 A 
ATOM     25  C   UNL     1       2.025  -0.898  -1.167  0.00  0.00    +0.031 A 
BRANCH  24  26
ATOM     26  N   UNL     1       4.008  -1.772  -2.238  0.00  0.00    -0.323 N 
ATOM     27  C   UNL     1       4.777  -1.796  -1.110  0.00  0.00    +0.091 A 
ATOM     28  C   UNL     1       5.998  -2.261  -1.443  0.00  0.00    +0.019 A 
ATOM     29  C   UNL     1       5.984  -2.535  -2.825  0.00  0.00    +0.019 A 
ATOM     30  C   UNL     1       4.754  -2.232  -3.286  0.00  0.00    +0.091 A 
ENDBRANCH  24  26
ENDBRANCH  19  20
ENDBRANCH   1  19
TORSDOF 4
