REMARK  Name = ZINC54201436
REMARK  4 active torsions:
REMARK  status: ('A' for Active; 'I' for Inactive)
REMARK    1  A    between atoms: C_4  and  C_7
REMARK    2  A    between atoms: C_10  and  C_13
REMARK    3  A    between atoms: C_18  and  O_19
REMARK    4  A    between atoms: C_25  and  C_26
REMARK                            x       y       z     vdW  Elec       q    Type
REMARK                         _______ _______ _______ _____ _____    ______ ____
ROOT
ATOM      1  C   UNL     1       4.192  -0.505   2.669  0.00  0.00    +0.069 C 
ATOM      2  N   UNL     1       5.259   0.019   2.171  0.00  0.00    -0.182 NA
ATOM      3  N   UNL     1       6.309  -0.881   2.001  0.00  0.00    -0.195 N 
ATOM      4  C   UNL     1       5.875  -2.211   2.457  0.00  0.00    +0.139 C 
ATOM      5  C   UNL     1       4.426  -1.976   2.927  0.00  0.00    +0.087 C 
ATOM      6  C   UNL     1       7.544  -0.577   1.492  0.00  0.00    +0.174 C 
ATOM      7  N   UNL     1       8.576  -1.385   1.301  0.00  0.00    -0.152 NA
ATOM      8  C   UNL     1       9.716  -0.965   0.801  0.00  0.00    +0.276 C 
ATOM      9  O   UNL     1      10.660  -1.720   0.629  0.00  0.00    -0.267 OA
ATOM     10  C   UNL     1       9.793   0.474   0.456  0.00  0.00    +0.079 C 
ATOM     11  C   UNL     1      10.820   1.189  -0.070  0.00  0.00    +0.028 C 
ATOM     12  S   UNL     1       8.149   1.003   0.919  0.00  0.00    -0.050 S 
ENDROOT
BRANCH  11  13
ATOM     13  C   UNL     1      10.728   2.652  -0.157  0.00  0.00    -0.024 A 
ATOM     14  C   UNL     1       9.671   3.329   0.464  0.00  0.00    +0.011 A 
ATOM     15  C   UNL     1       9.591   4.701   0.378  0.00  0.00    +0.039 A 
ATOM     16  C   UNL     1      10.554   5.413  -0.322  0.00  0.00    +0.123 A 
ATOM     17  C   UNL     1      11.604   4.750  -0.939  0.00  0.00    +0.039 A 
ATOM     18  C   UNL     1      11.700   3.378  -0.856  0.00  0.00    +0.011 A 
ATOM     19  F   UNL     1      10.468   6.759  -0.403  0.00  0.00    -0.205 F 
ENDBRANCH  11  13
BRANCH   1  23
ATOM     20  C   UNL     1       0.586   1.581   3.478  0.00  0.00    +0.000 A 
ATOM     21  C   UNL     1       1.665   2.256   2.935  0.00  0.00    +0.001 A 
ATOM     22  C   UNL     1       2.840   1.585   2.670  0.00  0.00    +0.010 A 
ATOM     23  C   UNL     1       2.940   0.220   2.951  0.00  0.00    -0.002 A 
ATOM     24  C   UNL     1       1.846  -0.455   3.500  0.00  0.00    +0.010 A 
ATOM     25  C   UNL     1       0.677   0.230   3.760  0.00  0.00    +0.001 A 
ENDBRANCH   1  23
BRANCH   4  26
ATOM     26  C   UNL     1       5.920  -3.201   1.323  0.00  0.00    +0.017 A 
ATOM     27  C   UNL     1       5.957  -2.755   0.016  0.00  0.00    +0.009 A 
ATOM     28  C   UNL     1       5.998  -3.663  -1.026  0.00  0.00    +0.001 A 
ATOM     29  C   UNL     1       6.002  -5.021  -0.762  0.00  0.00    +0.004 A 
ATOM     30  C   UNL     1       5.966  -5.472   0.543  0.00  0.00    +0.046 A 
ATOM     31  C   UNL     1       5.930  -4.562   1.590  0.00  0.00    +0.122 A 
BRANCH  31  32
ATOM     32  O   UNL     1       5.900  -5.004   2.875  0.00  0.00    -0.506 OA
ATOM     33  H   UNL     1       5.008  -5.144   3.222  0.00  0.00    +0.292 HD
ENDBRANCH  31  32
ENDBRANCH   4  26
TORSDOF 4
