REMARK  Name = ZINC39682317
REMARK  6 active torsions:
REMARK  status: ('A' for Active; 'I' for Inactive)
REMARK    1  A    between atoms: C_4  and  C_7
REMARK    2  A    between atoms: C_7  and  C_9
REMARK    3  A    between atoms: C_7  and  N_13
REMARK    4  A    between atoms: C_9  and  C_10
REMARK    5  A    between atoms: C_14  and  C_16
REMARK    6  A    between atoms: C_27  and  C_29
REMARK                            x       y       z     vdW  Elec       q    Type
REMARK                         _______ _______ _______ _____ _____    ______ ____
ROOT
ATOM      1  C   UNL     1       3.837  -3.118  -2.721  0.00  0.00    +0.100 C 
ATOM      2  C   UNL     1       3.032  -4.273  -2.086  0.00  0.00    +0.121 C 
ATOM      3  N   UNL     1       3.568  -5.498  -2.724  0.00  0.00    -0.296 N 
ATOM      4  C   UNL     1       5.027  -5.255  -2.822  0.00  0.00    +0.115 C 
ATOM      5  C   UNL     1       5.146  -3.766  -3.202  0.00  0.00    -0.004 C 
ATOM      6  C   UNL     1       6.340  -3.135  -2.493  0.00  0.00    -0.010 C 
ATOM      7  C   UNL     1       7.633  -3.755  -3.030  0.00  0.00    -0.082 C 
ATOM      8  N   UNL     1       7.723  -3.528  -4.477  0.00  0.00    +0.379 N 
ATOM      9  C   UNL     1       6.622  -4.217  -5.161  0.00  0.00    -0.082 C 
ATOM     10  C   UNL     1       5.286  -3.617  -4.714  0.00  0.00    -0.010 C 
ATOM     11  C   UNL     1       2.883  -6.588  -3.127  0.00  0.00    +0.249 C 
ATOM     12  O   UNL     1       1.669  -6.600  -3.063  0.00  0.00    -0.270 OA
ATOM     13  H   UNL     1       7.667  -2.539  -4.665  0.00  0.00    -0.086 HD
ATOM     14  H   UNL     1       8.603  -3.884  -4.818  0.00  0.00    -0.086 HD
ENDROOT
BRANCH  11  15
ATOM     15  C   UNL     1       3.607  -7.765  -3.644  0.00  0.00    +0.072 A 
ATOM     16  C   UNL     1       4.849  -8.115  -3.110  0.00  0.00    +0.019 A 
ATOM     17  C   UNL     1       5.521  -9.215  -3.597  0.00  0.00    +0.039 A 
ATOM     18  C   UNL     1       4.967  -9.975  -4.617  0.00  0.00    +0.126 A 
ATOM     19  C   UNL     1       3.736  -9.635  -5.153  0.00  0.00    +0.077 A 
ATOM     20  C   UNL     1       3.050  -8.537  -4.669  0.00  0.00    +0.138 A 
ATOM     21  F   UNL     1       1.846  -8.209  -5.187  0.00  0.00    -0.205 F 
ATOM     22  F   UNL     1       5.632 -11.052  -5.090  0.00  0.00    -0.205 F 
ENDBRANCH  11  15
BRANCH   1  24
ATOM     23  N   UNL     1       4.241  -0.765  -2.075  0.00  0.00    -0.308 N 
ATOM     24  C   UNL     1       4.125  -2.053  -1.695  0.00  0.00    +0.219 C 
ATOM     25  O   UNL     1       4.253  -2.355  -0.527  0.00  0.00    -0.275 OA
ATOM     26  H   UNL     1       4.211  -0.532  -3.016  0.00  0.00    +0.149 HD
BRANCH  23  27
ATOM     27  C   UNL     1       4.411   0.284  -1.066  0.00  0.00    +0.114 C 
BRANCH  27  31
ATOM     28  C   UNL     1       6.096   3.757  -2.894  0.00  0.00    +0.000 A 
ATOM     29  C   UNL     1       6.515   3.366  -1.636  0.00  0.00    +0.000 A 
ATOM     30  C   UNL     1       5.970   2.242  -1.044  0.00  0.00    +0.005 A 
ATOM     31  C   UNL     1       5.005   1.510  -1.710  0.00  0.00    -0.027 A 
ATOM     32  C   UNL     1       4.585   1.901  -2.968  0.00  0.00    +0.005 A 
ATOM     33  C   UNL     1       5.132   3.024  -3.560  0.00  0.00    +0.000 A 
ENDBRANCH  27  31
BRANCH  27  34
ATOM     34  C   UNL     1       3.050   0.635  -0.460  0.00  0.00    +0.152 C 
BRANCH  34  35
ATOM     35  C   UNL     1       3.243   1.588   0.691  0.00  0.00    +0.358 C 
ATOM     36  O   UNL     1       4.356   2.013   0.950  0.00  0.00    -0.246 OA
ATOM     37  O   UNL     1       2.287   1.935   1.362  0.00  0.00    -0.246 OA
ENDBRANCH  34  35
ENDBRANCH  27  34
ENDBRANCH  23  27
ENDBRANCH   1  24
TORSDOF 6
