REMARK  Name = ZINC39583616
REMARK  6 active torsions:
REMARK  status: ('A' for Active; 'I' for Inactive)
REMARK    1  A    between atoms: C_1  and  C_2
REMARK    2  A    between atoms: C_5  and  C_8
REMARK    3  A    between atoms: C_12  and  S_16
REMARK    4  A    between atoms: N_14  and  C_15
REMARK    5  A    between atoms: S_16  and  C_17
REMARK    6  A    between atoms: C_17  and  C_18
REMARK                            x       y       z     vdW  Elec       q    Type
REMARK                         _______ _______ _______ _____ _____    ______ ____
ROOT
ATOM      1  C   UNL     1       0.081  -4.144   0.108  0.00  0.00    +0.171 C 
ATOM      2  N   UNL     1       0.686  -4.691  -1.127  0.00  0.00    -0.233 NA
ATOM      3  N   UNL     1       1.353  -5.929  -0.693  0.00  0.00    -0.229 NA
ATOM      4  C   UNL     1       1.898  -5.566   0.642  0.00  0.00    +0.200 C 
ATOM      5  N   UNL     1       0.853  -4.700   1.239  0.00  0.00    -0.260 NA
ATOM      6  C   UNL     1      -0.015  -5.468   2.142  0.00  0.00    +0.109 C 
ATOM      7  H   UNL     1      -0.020  -4.885  -1.821  0.00  0.00    +0.143 HD
ATOM      8  H   UNL     1       0.693  -6.688  -0.619  0.00  0.00    +0.143 HD
ENDROOT
BRANCH   1  13
ATOM      9  C   UNL     1       0.444   1.623   0.108  0.00  0.00    +0.044 C 
ATOM     10  C   UNL     1       0.349   0.119   0.108  0.00  0.00    -0.050 A 
ATOM     11  C   UNL     1       0.208  -0.564  -1.085  0.00  0.00    +0.004 A 
ATOM     12  C   UNL     1       0.121  -1.944  -1.085  0.00  0.00    +0.007 A 
ATOM     13  C   UNL     1       0.176  -2.640   0.108  0.00  0.00    -0.015 A 
ATOM     14  C   UNL     1       0.319  -1.956   1.301  0.00  0.00    +0.007 A 
ATOM     15  C   UNL     1       0.410  -0.577   1.300  0.00  0.00    +0.004 A 
ENDBRANCH   1  13
BRANCH   4  16
ATOM     16  S   UNL     1       2.147  -7.052   1.651  0.00  0.00    -0.117 S 
BRANCH  16  17
ATOM     17  C   UNL     1       3.640  -7.810   0.955  0.00  0.00    +0.146 C 
BRANCH  17  18
ATOM     18  C   UNL     1       3.895  -9.133   1.631  0.00  0.00    +0.118 A 
ATOM     19  N   UNL     1       4.642  -9.303   2.754  0.00  0.00    -0.341 N 
ATOM     20  H   UNL     1       5.097  -8.606   3.253  0.00  0.00    +0.167 HD
ATOM     21  C   UNL     1       4.633 -10.650   3.054  0.00  0.00    +0.066 A 
ATOM     22  C   UNL     1       5.202 -11.421   4.059  0.00  0.00    +0.028 A 
ATOM     23  C   UNL     1       4.994 -12.784   4.074  0.00  0.00    +0.002 A 
ATOM     24  C   UNL     1       4.221 -13.389   3.093  0.00  0.00    +0.002 A 
ATOM     25  C   UNL     1       3.653 -12.646   2.097  0.00  0.00    +0.030 A 
ATOM     26  C   UNL     1       3.850 -11.263   2.061  0.00  0.00    +0.089 A 
ATOM     27  N   UNL     1       3.426 -10.278   1.228  0.00  0.00    -0.232 NA
ENDBRANCH  17  18
ENDBRANCH  16  17
ENDBRANCH   4  16
TORSDOF 4
