REMARK  Name = ZINC13773641
REMARK  9 active torsions:
REMARK  status: ('A' for Active; 'I' for Inactive)
REMARK    1  A    between atoms: C_1  and  C_2
REMARK    2  A    between atoms: C_2  and  C_3
REMARK    3  A    between atoms: C_3  and  O_4
REMARK    4  A    between atoms: O_4  and  C_5
REMARK    5  A    between atoms: C_10  and  N_11
REMARK    6  A    between atoms: C_17  and  C_27
REMARK    7  A    between atoms: C_17  and  C_28
REMARK    8  A    between atoms: C_22  and  O_25
REMARK    9  A    between atoms: O_25  and  C_26
REMARK                            x       y       z     vdW  Elec       q    Type
REMARK                         _______ _______ _______ _____ _____    ______ ____
ROOT
ATOM      1  N   UNL     1      -1.971   3.018   3.416  0.00  0.00    -0.236 NA
ATOM      2  C   UNL     1      -2.496   3.516   4.529  0.00  0.00    +0.117 A 
ATOM      3  C   UNL     1      -2.986   2.752   5.628  0.00  0.00    +0.029 A 
ATOM      4  C   UNL     1      -3.506   3.252   6.794  0.00  0.00    +0.030 A 
ATOM      5  S   UNL     1      -3.551   4.985   6.789  0.00  0.00    -0.052 S 
ATOM      6  S   UNL     1      -2.697   5.252   4.899  0.00  0.00    -0.032 S 
ATOM      7  C   UNL     1      -3.977   2.398   7.950  0.00  0.00    +0.059 C 
ATOM      8  N   UNL     1      -4.392   1.087   7.434  0.00  0.00    -0.334 N 
ATOM      9  C   UNL     1      -3.619   0.468   6.443  0.00  0.00    +0.036 A 
ATOM     10  C   UNL     1      -2.925   1.244   5.514  0.00  0.00    +0.010 A 
ATOM     11  C   UNL     1      -2.209   0.653   4.486  0.00  0.00    +0.056 A 
ATOM     12  C   UNL     1      -2.159  -0.733   4.406  0.00  0.00    +0.121 A 
ATOM     13  C   UNL     1      -2.826  -1.507   5.344  0.00  0.00    +0.047 A 
ATOM     14  C   UNL     1      -3.557  -0.914   6.358  0.00  0.00    +0.027 A 
ATOM     15  C   UNL     1      -5.162   3.076   8.639  0.00  0.00    +0.037 C 
ATOM     16  C   UNL     1      -2.836   2.216   8.954  0.00  0.00    +0.037 C 
ATOM     17  H   UNL     1      -5.191   0.656   7.774  0.00  0.00    +0.147 HD
ENDROOT
BRANCH   1  23
ATOM     18  C   UNL     1      -2.252   4.255   1.379  0.00  0.00    +0.146 A 
ATOM     19  C   UNL     1      -1.729   5.110   0.426  0.00  0.00    +0.048 A 
ATOM     20  C   UNL     1      -0.428   5.567   0.543  0.00  0.00    +0.004 A 
ATOM     21  C   UNL     1       0.358   5.175   1.612  0.00  0.00    +0.002 A 
ATOM     22  C   UNL     1      -0.148   4.323   2.572  0.00  0.00    +0.031 A 
ATOM     23  C   UNL     1      -1.461   3.858   2.466  0.00  0.00    +0.107 A 
BRANCH  18  24
ATOM     24  O   UNL     1      -3.531   3.805   1.264  0.00  0.00    -0.490 OA
BRANCH  24  25
ATOM     25  C   UNL     1      -4.278   4.256   0.133  0.00  0.00    +0.229 C 
BRANCH  25  27
ATOM     26  C   UNL     1      -6.482   4.133  -1.037  0.00  0.00    +0.007 C 
ATOM     27  C   UNL     1      -5.682   3.650   0.174  0.00  0.00    +0.038 C 
ENDBRANCH  25  27
ENDBRANCH  24  25
ENDBRANCH  18  24
ENDBRANCH   1  23
BRANCH  12  28
ATOM     28  O   UNL     1      -1.455  -1.331   3.408  0.00  0.00    -0.495 OA
ATOM     29  C   UNL     1      -1.446  -2.760   3.386  0.00  0.00    +0.277 C 
ENDBRANCH  12  28
TORSDOF 5
