REMARK  Name = ZINC50362212
REMARK  7 active torsions:
REMARK  status: ('A' for Active; 'I' for Inactive)
REMARK    1  A    between atoms: C_1  and  C_2
REMARK    2  A    between atoms: C_7  and  N_10
REMARK    3  A    between atoms: N_10  and  C_11
REMARK    4  A    between atoms: N_10  and  C_12
REMARK    5  A    between atoms: C_12  and  C_14
REMARK    6  A    between atoms: C_12  and  C_16
REMARK    7  A    between atoms: C_14  and  N_15
REMARK                            x       y       z     vdW  Elec       q    Type
REMARK                         _______ _______ _______ _____ _____    ______ ____
ROOT
ATOM      1  C   UNL     1       1.278  -4.302   2.894  0.00  0.00    +0.105 C 
ENDROOT
BRANCH   1   2
ATOM      2  C   UNL     1      -0.026  -4.687   2.244  0.00  0.00    +0.123 A 
ATOM      3  C   UNL     1      -0.328  -5.899   1.743  0.00  0.00    +0.062 A 
ATOM      4  C   UNL     1      -1.645  -5.816   1.235  0.00  0.00    +0.070 A 
ATOM      5  C   UNL     1      -2.070  -4.558   1.457  0.00  0.00    +0.184 A 
ATOM      6  O   UNL     1      -1.087  -3.881   2.073  0.00  0.00    -0.450 OA
ATOM      7 BR   UNL     1      -3.765  -3.863   0.987  0.00  0.00    -0.007 Br
ATOM      8 BR   UNL     1      -2.622  -7.206   0.404  0.00  0.00    -0.046 Br
ENDBRANCH   1   2
BRANCH   1   9
ATOM      9  N   UNL     1       1.706  -2.990   2.393  0.00  0.00    -0.294 NA
ATOM     10  C   UNL     1       3.158  -2.820   2.534  0.00  0.00    +0.105 C 
BRANCH   9  16
ATOM     11  C   UNL     1       1.372   0.303  -1.285  0.00  0.00    +0.007 C 
ATOM     12  C   UNL     1       1.112  -1.146  -0.870  0.00  0.00    -0.013 C 
ATOM     13  C   UNL     1       1.908  -2.087  -1.776  0.00  0.00    +0.003 C 
ATOM     14  C   UNL     1       1.648  -3.537  -1.361  0.00  0.00    +0.002 C 
ATOM     15  C   UNL     1       2.084  -3.737   0.091  0.00  0.00    +0.019 C 
ATOM     16  C   UNL     1       1.288  -2.797   0.998  0.00  0.00    +0.057 C 
ATOM     17  C   UNL     1       1.548  -1.347   0.583  0.00  0.00    +0.022 C 
ENDBRANCH   9  16
ENDBRANCH   1   9
BRANCH   1  18
ATOM     18  C   UNL     1       1.091  -4.233   4.411  0.00  0.00    -0.059 C 
BRANCH  18  19
ATOM     19  N   UNL     1       2.340  -3.779   5.038  0.00  0.00    +0.379 N 
ATOM     20  H   UNL     1       3.112  -4.322   4.681  0.00  0.00    -0.090 HD
ATOM     21  H   UNL     1       2.488  -2.804   4.824  0.00  0.00    -0.090 HD
ATOM     22  H   UNL     1       2.277  -3.898   6.037  0.00  0.00    -0.090 HD
ENDBRANCH  18  19
ENDBRANCH   1  18
TORSDOF 5
