REMARK  Name = ZINC13065107
REMARK  12 active torsions:
REMARK  status: ('A' for Active; 'I' for Inactive)
REMARK    1  A    between atoms: C_1  and  C_2
REMARK    2  A    between atoms: C_2  and  C_3
REMARK    3  A    between atoms: C_3  and  C_5
REMARK    4  A    between atoms: C_3  and  N_68
REMARK    5  A    between atoms: N_9  and  C_10
REMARK    6  A    between atoms: C_10  and  C_11
REMARK    7  A    between atoms: C_18  and  C_19
REMARK    8  A    between atoms: C_18  and  N_68
REMARK    9  A    between atoms: C_25  and  C_26
REMARK   10  A    between atoms: C_25  and  N_68
REMARK   11  A    between atoms: C_31  and  C_39
REMARK   12  A    between atoms: C_32  and  C_38
REMARK                            x       y       z     vdW  Elec       q    Type
REMARK                         _______ _______ _______ _____ _____    ______ ____
ROOT
ATOM      1  N   UNL     1       2.886   0.826  -1.469  0.00  0.00    +0.392 N 
ATOM      2  H   UNL     1       3.063   1.782  -1.798  0.00  0.00    -0.080 HD
ENDROOT
BRANCH   1   3
ATOM      3  C   UNL     1       1.835   0.215  -2.310  0.00  0.00    +0.003 C 
BRANCH   3   4
ATOM      4  C   UNL     1       1.681  -1.248  -1.983  0.00  0.00    +0.138 A 
ATOM      5  N   UNL     1       2.646  -2.112  -1.788  0.00  0.00    -0.115 NA
ATOM      6  N   UNL     1       2.110  -3.256  -1.533  0.00  0.00    -0.023 NA
ATOM      7  N   UNL     1       0.828  -3.143  -1.560  0.00  0.00    -0.044 NA
ATOM      8  N   UNL     1       0.524  -1.918  -1.829  0.00  0.00    -0.226 N 
BRANCH   8   9
ATOM      9  C   UNL     1      -0.827  -1.363  -1.949  0.00  0.00    +0.182 C 
BRANCH   9  10
ATOM     10  C   UNL     1      -1.328  -1.561  -3.356  0.00  0.00    -0.026 A 
ATOM     11  C   UNL     1      -1.100  -0.589  -4.313  0.00  0.00    +0.008 A 
ATOM     12  C   UNL     1      -1.555  -0.771  -5.605  0.00  0.00    +0.038 A 
ATOM     13  C   UNL     1      -2.249  -1.922  -5.939  0.00  0.00    +0.123 A 
ATOM     14  C   UNL     1      -2.482  -2.892  -4.978  0.00  0.00    +0.038 A 
ATOM     15  C   UNL     1      -2.021  -2.710  -3.688  0.00  0.00    +0.008 A 
ATOM     16  F   UNL     1      -2.699  -2.099  -7.200  0.00  0.00    -0.205 F 
ENDBRANCH   9  10
ENDBRANCH   8   9
ENDBRANCH   3   4
BRANCH   3  18
ATOM     17  C   UNL     1       2.246   1.855  -4.150  0.00  0.00    +0.002 C 
ATOM     18  C   UNL     1       2.228   0.370  -3.781  0.00  0.00    -0.011 C 
ENDBRANCH   3  18
ENDBRANCH   1   3
BRANCH   1  19
ATOM     19  C   UNL     1       2.440   0.877  -0.061  0.00  0.00    -0.040 C 
BRANCH  19  20
ATOM     20  C   UNL     1       1.416   1.973   0.083  0.00  0.00    -0.046 A 
ATOM     21  C   UNL     1       0.062   1.678   0.051  0.00  0.00    +0.005 A 
ATOM     22  C   UNL     1      -0.844   2.720   0.182  0.00  0.00    +0.020 A 
ATOM     23  C   UNL     1      -0.370   4.007   0.350  0.00  0.00    +0.111 A 
ATOM     24  N   UNL     1       0.926   4.251   0.376  0.00  0.00    -0.263 NA
ATOM     25  C   UNL     1       1.816   3.286   0.249  0.00  0.00    +0.112 A 
ENDBRANCH  19  20
ENDBRANCH   1  19
BRANCH   1  26
ATOM     26  C   UNL     1       4.136   0.044  -1.575  0.00  0.00    -0.036 C 
BRANCH  26  27
ATOM     27  C   UNL     1       5.287   0.912  -1.137  0.00  0.00    +0.001 A 
ATOM     28  C   UNL     1       5.735   0.847   0.141  0.00  0.00    +0.017 A 
ATOM     29  C   UNL     1       6.858   1.701   0.532  0.00  0.00    -0.001 A 
ATOM     30  C   UNL     1       7.368   1.673   1.835  0.00  0.00    +0.010 A 
ATOM     31  C   UNL     1       8.414   2.486   2.170  0.00  0.00    +0.004 A 
ATOM     32  C   UNL     1       8.975   3.339   1.229  0.00  0.00    -0.046 A 
ATOM     33  C   UNL     1       8.489   3.382  -0.060  0.00  0.00    -0.024 A 
ATOM     34  C   UNL     1       7.425   2.564  -0.424  0.00  0.00    +0.052 A 
ATOM     35  N   UNL     1       6.920   2.586  -1.707  0.00  0.00    -0.322 N 
ATOM     36  H   UNL     1       7.312   3.182  -2.365  0.00  0.00    +0.169 HD
ATOM     37  C   UNL     1       5.891   1.795  -2.058  0.00  0.00    +0.251 A 
ATOM     38  O   UNL     1       5.470   1.841  -3.201  0.00  0.00    -0.268 OA
ATOM     39  C   UNL     1       9.109   4.312  -1.071  0.00  0.00    +0.046 C 
ATOM     40  C   UNL     1      10.128   4.227   1.621  0.00  0.00    +0.044 C 
ENDBRANCH  26  27
ENDBRANCH   1  26
TORSDOF 9
