REMARK  Name = ZINC03363900
REMARK  9 active torsions:
REMARK  status: ('A' for Active; 'I' for Inactive)
REMARK    1  A    between atoms: C_1  and  C_2
REMARK    2  A    between atoms: C_15  and  C_17
REMARK    3  A    between atoms: C_17  and  S_18
REMARK    4  A    between atoms: S_18  and  C_19
REMARK    5  A    between atoms: C_22  and  C_25
REMARK    6  A    between atoms: N_23  and  N_24
REMARK    7  A    between atoms: C_25  and  C_26
REMARK    8  A    between atoms: C_26  and  C_28
REMARK    9  A    between atoms: C_26  and  C_29
REMARK                            x       y       z     vdW  Elec       q    Type
REMARK                         _______ _______ _______ _____ _____    ______ ____
ROOT
ATOM      1  S   UNL     1      -0.860   1.669   1.497  0.00  0.00    -0.077 S 
ENDROOT
BRANCH   1   2
ATOM      2  C   UNL     1       0.174   0.961   2.735  0.00  0.00    +0.209 A 
ATOM      3  N   UNL     1       1.240   0.221   2.533  0.00  0.00    -0.121 NA
ATOM      4  N   UNL     1       1.752  -0.124   3.660  0.00  0.00    -0.132 NA
ATOM      5  C   UNL     1       1.046   0.363   4.640  0.00  0.00    +0.152 A 
ATOM      6  N   UNL     1       0.015   1.071   4.087  0.00  0.00    -0.228 N 
BRANCH   6   7
ATOM      7  N   UNL     1      -0.969   1.749   4.749  0.00  0.00    -0.295 N 
ATOM      8  H   UNL     1      -1.763   1.152   4.925  0.00  0.00    +0.163 HD
ATOM      9  H   UNL     1      -0.619   2.148   5.607  0.00  0.00    +0.163 HD
ENDBRANCH   6   7
BRANCH   5  10
ATOM     10  C   UNL     1       1.315   0.180   6.112  0.00  0.00    +0.086 C 
BRANCH  10  11
ATOM     11  C   UNL     1       0.588  -1.071   6.611  0.00  0.00    +0.023 C 
ATOM     12  C   UNL     1      -0.923  -0.862   6.499  0.00  0.00    +0.013 C 
BRANCH  11  13
ATOM     13  C   UNL     1       0.955  -1.324   8.051  0.00  0.00    -0.044 A 
ATOM     14  C   UNL     1       0.683  -0.368   9.011  0.00  0.00    +0.004 A 
ATOM     15  C   UNL     1       1.015  -0.601  10.333  0.00  0.00    +0.000 A 
ATOM     16  C   UNL     1       1.628  -1.787  10.692  0.00  0.00    +0.000 A 
ATOM     17  C   UNL     1       1.905  -2.741   9.730  0.00  0.00    +0.000 A 
ATOM     18  C   UNL     1       1.569  -2.509   8.410  0.00  0.00    +0.004 A 
ENDBRANCH  11  13
ENDBRANCH  10  11
ENDBRANCH   5  10
ENDBRANCH   1   2
BRANCH   1  19
ATOM     19  C   UNL     1      -0.013   1.086   0.008  0.00  0.00    +0.151 C 
BRANCH  19  33
ATOM     20  C   UNL     1      -5.592   4.795  -7.405  0.00  0.00    +0.008 C 
ATOM     21  C   UNL     1      -4.818   3.915  -6.421  0.00  0.00    -0.009 C 
ATOM     22  C   UNL     1      -3.333   3.910  -6.794  0.00  0.00    +0.008 C 
ATOM     23  C   UNL     1      -2.595   2.849  -5.978  0.00  0.00    +0.037 C 
ATOM     24  C   UNL     1      -2.903   3.063  -4.498  0.00  0.00    -0.023 A 
ATOM     25  C   UNL     1      -3.970   3.796  -4.115  0.00  0.00    -0.004 A 
ATOM     26  S   UNL     1      -3.930   3.773  -2.343  0.00  0.00    -0.073 S 
ATOM     27  C   UNL     1      -2.478   2.776  -2.122  0.00  0.00    +0.116 A 
ATOM     28  C   UNL     1      -2.072   2.495  -3.437  0.00  0.00    +0.075 A 
ATOM     29  C   UNL     1      -0.895   1.687  -3.563  0.00  0.00    +0.260 A 
ATOM     30  O   UNL     1      -0.463   1.390  -4.663  0.00  0.00    -0.267 OA
ATOM     31  N   UNL     1      -0.272   1.267  -2.447  0.00  0.00    -0.310 N 
ATOM     32  H   UNL     1       0.528   0.724  -2.525  0.00  0.00    +0.170 HD
ATOM     33  C   UNL     1      -0.742   1.585  -1.213  0.00  0.00    +0.121 A 
ATOM     34  N   UNL     1      -1.811   2.320  -1.066  0.00  0.00    -0.226 NA
ATOM     35  C   UNL     1      -4.968   4.478  -5.000  0.00  0.00    +0.046 C 
ENDBRANCH  19  33
ENDBRANCH   1  19
TORSDOF 7
