REMARK  Name = ZINC02240270
REMARK  4 active torsions:
REMARK  status: ('A' for Active; 'I' for Inactive)
REMARK    1  A    between atoms: C_5  and  O_16
REMARK    2  A    between atoms: C_6  and  C_7
REMARK    3  A    between atoms: C_7  and  N_8
REMARK    4  A    between atoms: N_8  and  C_9
REMARK                            x       y       z     vdW  Elec       q    Type
REMARK                         _______ _______ _______ _____ _____    ______ ____
ROOT
ATOM      1  C   UNL     1      -2.471   0.012   0.026  0.00  0.00    +0.142 C 
ENDROOT
BRANCH   1   7
ATOM      2  C   UNL     1      -4.277  -1.267  -1.142  0.00  0.00    +0.028 A 
ATOM      3  C   UNL     1      -5.322  -2.175  -1.138  0.00  0.00    +0.043 A 
ATOM      4  C   UNL     1      -5.698  -2.795   0.040  0.00  0.00    +0.043 A 
ATOM      5  C   UNL     1      -5.031  -2.507   1.217  0.00  0.00    +0.084 A 
ATOM      6  C   UNL     1      -3.980  -1.600   1.213  0.00  0.00    +0.140 A 
ATOM      7  C   UNL     1      -3.608  -0.977   0.031  0.00  0.00    +0.014 A 
ATOM      8 CL   UNL     1      -5.503  -3.284   2.695  0.00  0.00    -0.080 Cl
ATOM      9 CL   UNL     1      -6.160  -2.538  -2.614  0.00  0.00    -0.083 Cl
BRANCH   6  10
ATOM     10  O   UNL     1      -3.320  -1.319   2.368  0.00  0.00    -0.505 OA
ATOM     11  H   UNL     1      -3.697  -0.583   2.868  0.00  0.00    +0.292 HD
ENDBRANCH   6  10
ENDBRANCH   1   7
BRANCH   1  12
ATOM     12  N   UNL     1      -1.197  -0.710   0.010  0.00  0.00    -0.325 N 
ATOM     13  H   UNL     1      -1.188  -1.679   0.004  0.00  0.00    +0.148 HD
BRANCH  12  14
ATOM     14  C   UNL     1       0.002  -0.004   0.002  0.00  0.00    +0.111 A 
ATOM     15  C   UNL     1       1.210  -0.696  -0.013  0.00  0.00    +0.057 A 
ATOM     16  C   UNL     1       2.395   0.018  -0.020  0.00  0.00    +0.035 A 
ATOM     17  C   UNL     1       2.332   1.406  -0.013  0.00  0.00    +0.035 A 
ATOM     18  C   UNL     1       1.098   2.027   0.003  0.00  0.00    +0.099 A 
ATOM     19 BR   UNL     1       3.919   2.434  -0.023  0.00  0.00    -0.049 Br
ATOM     20 BR   UNL     1       1.231  -2.587  -0.022  0.00  0.00    -0.047 Br
ATOM     21  N   UNL     1      -0.086   1.357   0.010  0.00  0.00    -0.348 N 
ATOM     22  H   UNL     1      -0.989   1.845   0.021  0.00  0.00    +0.167 HD
ENDBRANCH  12  14
ENDBRANCH   1  12
TORSDOF 4
