REMARK  Name = ZINC34787369
REMARK  10 active torsions:
REMARK  status: ('A' for Active; 'I' for Inactive)
REMARK    1  A    between atoms: C_1  and  C_2
REMARK    2  A    between atoms: C_2  and  C_3
REMARK    3  A    between atoms: C_4  and  C_38
REMARK    4  A    between atoms: C_8  and  N_19
REMARK    5  A    between atoms: C_13  and  C_18
REMARK    6  A    between atoms: C_15  and  C_17
REMARK    7  A    between atoms: N_19  and  N_20
REMARK    8  A    between atoms: N_19  and  N_31
REMARK    9  A    between atoms: N_20  and  C_21
REMARK   10  A    between atoms: N_31  and  C_32
REMARK                            x       y       z     vdW  Elec       q    Type
REMARK                         _______ _______ _______ _____ _____    ______ ____
ROOT
ATOM      1  N   UNL     1       2.854   0.023   1.093  0.00  0.00    -0.166 N 
ENDROOT
BRANCH   1   7
ATOM      2  C   UNL     1       4.379  -1.965   2.834  0.00  0.00    -0.025 A 
ATOM      3  C   UNL     1       5.075  -2.950   3.420  0.00  0.00    -0.007 A 
ATOM      4  S   UNL     1       5.471  -4.043   2.069  0.00  0.00    -0.073 S 
ATOM      5  C   UNL     1       4.691  -3.147   0.752  0.00  0.00    +0.116 A 
ATOM      6  C   UNL     1       4.138  -2.022   1.402  0.00  0.00    +0.054 A 
ATOM      7  C   UNL     1       3.433  -1.116   0.562  0.00  0.00    +0.167 A 
ATOM      8  N   UNL     1       3.338  -1.373  -0.731  0.00  0.00    -0.192 NA
ATOM      9  C   UNL     1       3.879  -2.454  -1.277  0.00  0.00    +0.254 A 
ATOM     10  N   UNL     1       4.555  -3.328  -0.547  0.00  0.00    -0.203 NA
ATOM     11  N   UNL     1       3.743  -2.669  -2.648  0.00  0.00    -0.202 N 
ATOM     12  C   UNL     1       4.234  -3.726  -3.346  0.00  0.00    +0.045 A 
ATOM     13  C   UNL     1       3.886  -3.559  -4.642  0.00  0.00    +0.048 A 
ATOM     14  C   UNL     1       3.160  -2.366  -4.744  0.00  0.00    +0.061 A 
ATOM     15  N   UNL     1       3.070  -1.836  -3.552  0.00  0.00    -0.169 NA
ATOM     16  C   UNL     1       2.578  -1.793  -6.010  0.00  0.00    +0.067 C 
ATOM     17  C   UNL     1       5.025  -4.877  -2.779  0.00  0.00    +0.066 C 
ATOM     18  C   UNL     1       5.436  -3.097   4.876  0.00  0.00    +0.052 C 
BRANCH   2  20
ATOM     19  C   UNL     1       2.515  -1.214   4.287  0.00  0.00    +0.009 C 
ATOM     20  C   UNL     1       3.848  -0.815   3.651  0.00  0.00    +0.033 C 
ENDBRANCH   2  20
ENDBRANCH   1   7
BRANCH   1  21
ATOM     21  N   UNL     1       1.461   0.112   1.207  0.00  0.00    -0.248 N 
ATOM     22  H   UNL     1       1.013   0.954   1.028  0.00  0.00    +0.172 HD
BRANCH  21  23
ATOM     23  C   UNL     1       0.719  -1.008   1.576  0.00  0.00    +0.054 A 
ATOM     24  C   UNL     1       1.329  -2.239   1.693  0.00  0.00    +0.025 A 
ATOM     25  C   UNL     1       0.597  -3.363   2.061  0.00  0.00    +0.002 A 
ATOM     26  C   UNL     1      -0.739  -3.281   2.315  0.00  0.00    +0.008 A 
ATOM     27  C   UNL     1      -1.399  -2.045   2.207  0.00  0.00    -0.016 A 
ATOM     28  C   UNL     1      -0.663  -0.891   1.839  0.00  0.00    +0.004 A 
ATOM     29  C   UNL     1      -1.323   0.343   1.736  0.00  0.00    +0.010 A 
ATOM     30  C   UNL     1      -2.657   0.418   1.996  0.00  0.00    +0.001 A 
ATOM     31  C   UNL     1      -3.380  -0.714   2.365  0.00  0.00    +0.001 A 
ATOM     32  C   UNL     1      -2.776  -1.930   2.463  0.00  0.00    +0.008 A 
ENDBRANCH  21  23
ENDBRANCH   1  21
BRANCH   1  33
ATOM     33  N   UNL     1       3.641   1.060   1.507  0.00  0.00    -0.218 NA
ATOM     34  H   UNL     1       3.189   1.588   2.238  0.00  0.00    +0.146 HD
BRANCH  33  35
ATOM     35  C   UNL     1       4.004   1.928   0.379  0.00  0.00    +0.075 C 
ATOM     36  C   UNL     1       5.307   1.430  -0.249  0.00  0.00    +0.020 C 
ATOM     37  C   UNL     1       5.685   2.334  -1.425  0.00  0.00    +0.002 C 
ATOM     38  C   UNL     1       5.875   3.768  -0.925  0.00  0.00    +0.000 C 
ATOM     39  C   UNL     1       4.571   4.266  -0.297  0.00  0.00    +0.002 C 
ATOM     40  C   UNL     1       4.194   3.362   0.878  0.00  0.00    +0.020 C 
ENDBRANCH  33  35
ENDBRANCH   1  33
TORSDOF 6
