REMARK  Name = ZINC10754440
REMARK  7 active torsions:
REMARK  status: ('A' for Active; 'I' for Inactive)
REMARK    1  A    between atoms: C_1  and  C_2
REMARK    2  A    between atoms: N_11  and  C_15
REMARK    3  A    between atoms: C_15  and  C_16
REMARK    4  A    between atoms: C_16  and  O_18
REMARK    5  A    between atoms: O_18  and  C_19
REMARK    6  A    between atoms: C_19  and  C_20
REMARK    7  A    between atoms: N_22  and  C_23
REMARK                            x       y       z     vdW  Elec       q    Type
REMARK                         _______ _______ _______ _____ _____    ______ ____
ROOT
ATOM      1  C   UNL     1       4.494   8.080  -1.097  0.00  0.00    +0.326 C 
ATOM      2  O   UNL     1       5.602   7.655  -0.874  0.00  0.00    -0.249 OA
ENDROOT
BRANCH   1   3
ATOM      3  C   UNL     1       4.310   9.506  -1.548  0.00  0.00    +0.238 C 
BRANCH   3  13
ATOM      4  C   UNL     1       6.368  13.418  -1.893  0.00  0.00    +0.010 C 
ATOM      5  C   UNL     1       7.568  12.851  -1.132  0.00  0.00    +0.018 C 
ATOM      6  C   UNL     1       7.521  13.328   0.322  0.00  0.00    +0.006 C 
ATOM      7  C   UNL     1       8.710  12.743   1.087  0.00  0.00    +0.000 C 
ATOM      8  C   UNL     1       8.634  11.215   1.060  0.00  0.00    +0.003 C 
ATOM      9  C   UNL     1       8.685  10.729  -0.391  0.00  0.00    +0.035 C 
ATOM     10  C   UNL     1       7.519  11.327  -1.171  0.00  0.00    +0.115 C 
ATOM     11  C   UNL     1       6.201  10.831  -0.622  0.00  0.00    +0.247 C 
ATOM     12  O   UNL     1       5.763  10.997   0.496  0.00  0.00    -0.273 OA
ATOM     13  N   UNL     1       5.617  10.162  -1.638  0.00  0.00    -0.213 N 
ATOM     14  C   UNL     1       6.377  10.177  -2.740  0.00  0.00    +0.310 C 
ATOM     15  O   UNL     1       6.061   9.645  -3.786  0.00  0.00    -0.252 OA
ATOM     16  N   UNL     1       7.530  10.848  -2.559  0.00  0.00    -0.285 N 
ATOM     17  H   UNL     1       8.231  10.987  -3.216  0.00  0.00    +0.151 HD
ENDBRANCH   3  13
ENDBRANCH   1   3
BRANCH   1  18
ATOM     18  O   UNL     1       3.425   7.282  -0.944  0.00  0.00    -0.454 OA
BRANCH  18  19
ATOM     19  C   UNL     1       3.677   5.920  -0.507  0.00  0.00    +0.328 C 
BRANCH  19  20
ATOM     20  C   UNL     1       2.370   5.180  -0.392  0.00  0.00    +0.255 C 
ATOM     21  O   UNL     1       1.328   5.744  -0.651  0.00  0.00    -0.272 OA
ATOM     22  N   UNL     1       2.358   3.890   0.001  0.00  0.00    -0.280 N 
ATOM     23  H   UNL     1       3.182   3.460   0.278  0.00  0.00    +0.155 HD
BRANCH  22  24
ATOM     24  C   UNL     1       1.156   3.172   0.008  0.00  0.00    +0.071 A 
ATOM     25  C   UNL     1       0.748   2.486  -1.129  0.00  0.00    +0.065 A 
ATOM     26  C   UNL     1      -0.439   1.777  -1.118  0.00  0.00    +0.042 A 
ATOM     27  C   UNL     1      -1.223   1.755   0.021  0.00  0.00    +0.044 A 
ATOM     28  C   UNL     1      -0.817   2.433   1.157  0.00  0.00    +0.042 A 
ATOM     29  C   UNL     1       0.369   3.143   1.153  0.00  0.00    +0.065 A 
ATOM     30 CL   UNL     1       0.875   3.999   2.576  0.00  0.00    -0.082 Cl
ATOM     31 CL   UNL     1      -2.716   0.870   0.028  0.00  0.00    -0.083 Cl
ATOM     32 CL   UNL     1       1.728   2.518  -2.561  0.00  0.00    -0.082 Cl
ENDBRANCH  22  24
ENDBRANCH  19  20
ENDBRANCH  18  19
ENDBRANCH   1  18
TORSDOF 6
