REMARK  Name = ZINC08328186
REMARK  4 active torsions:
REMARK  status: ('A' for Active; 'I' for Inactive)
REMARK    1  A    between atoms: N_9  and  C_10
REMARK    2  A    between atoms: C_10  and  C_11
REMARK    3  A    between atoms: N_13  and  C_14
REMARK    4  A    between atoms: C_14  and  C_15
REMARK                            x       y       z     vdW  Elec       q    Type
REMARK                         _______ _______ _______ _____ _____    ______ ____
ROOT
ATOM      1  C   UNL     1      -0.014   1.208   0.009  0.00  0.00    +0.243 C 
ATOM      2  O   UNL     1       0.002  -0.004   0.002  0.00  0.00    -0.273 OA
ATOM      3  N   UNL     1      -1.191   1.866   0.018  0.00  0.00    -0.246 N 
ATOM      4  C   UNL     1      -2.381   1.157   0.020  0.00  0.00    +0.168 A 
ATOM      5  N   UNL     1      -3.611   1.615   0.034  0.00  0.00    -0.224 NA
ATOM      6  C   UNL     1      -4.688   0.800   0.030  0.00  0.00    +0.080 A 
ATOM      7  C   UNL     1      -6.056   1.160   0.040  0.00  0.00    +0.029 A 
ATOM      8  C   UNL     1      -7.033   0.200   0.041  0.00  0.00    +0.002 A 
ATOM      9  C   UNL     1      -6.721  -1.152   0.032  0.00  0.00    +0.001 A 
ATOM     10  C   UNL     1      -5.394  -1.541   0.021  0.00  0.00    +0.017 A 
ATOM     11  C   UNL     1      -4.408  -0.586   0.021  0.00  0.00    +0.041 A 
ATOM     12  S   UNL     1      -2.632  -0.612   0.011  0.00  0.00    -0.052 S 
ENDROOT
BRANCH   1  13
ATOM     13  C   UNL     1       1.280   1.980   0.001  0.00  0.00    +0.242 C 
BRANCH  13  22
ATOM     14  C   UNL     1       4.657  -0.837  -2.898  0.00  0.00    +0.002 A 
ATOM     15  C   UNL     1       3.652  -0.001  -3.368  0.00  0.00    +0.002 A 
ATOM     16  C   UNL     1       2.844   0.672  -2.496  0.00  0.00    +0.029 A 
ATOM     17  C   UNL     1       3.029   0.523  -1.125  0.00  0.00    +0.090 A 
ATOM     18  C   UNL     1       4.044  -0.321  -0.644  0.00  0.00    +0.113 A 
ATOM     19  C   UNL     1       4.859  -1.001  -1.559  0.00  0.00    +0.032 A 
ATOM     20  N   UNL     1       4.003  -0.283   0.703  0.00  0.00    -0.129 NA
ATOM     21  N   UNL     1       3.067   0.505   1.099  0.00  0.00    -0.064 NA
ATOM     22  N   UNL     1       2.407   1.043  -0.015  0.00  0.00    -0.235 N 
ENDBRANCH  13  22
ENDBRANCH   1  13
BRANCH   3  23
ATOM     23  C   UNL     1      -1.210   3.331   0.026  0.00  0.00    +0.147 C 
BRANCH  23  24
ATOM     24  C   UNL     1      -1.224   3.849  -1.414  0.00  0.00    +0.136 C 
ATOM     25  C   UNL     1      -1.119   5.390  -1.432  0.00  0.00    +0.035 C 
ATOM     26  C   UNL     1      -2.038   5.815  -2.599  0.00  0.00    +0.031 C 
ATOM     27  C   UNL     1      -2.590   4.481  -3.147  0.00  0.00    +0.160 C 
ATOM     28  O   UNL     1      -2.493   3.558  -2.041  0.00  0.00    -0.375 OA
ENDBRANCH  23  24
ENDBRANCH   3  23
TORSDOF 4
