REMARK  Name = ZINC08918587
REMARK  10 active torsions:
REMARK  status: ('A' for Active; 'I' for Inactive)
REMARK    1  A    between atoms: C_1  and  C_2
REMARK    2  A    between atoms: C_2  and  O_3
REMARK    3  A    between atoms: O_3  and  C_4
REMARK    4  A    between atoms: C_6  and  C_18
REMARK    5  A    between atoms: C_9  and  O_10
REMARK    6  A    between atoms: O_10  and  C_11
REMARK    7  A    between atoms: C_11  and  C_12
REMARK    8  A    between atoms: C_19  and  C_20
REMARK    9  A    between atoms: C_21  and  C_33
REMARK   10  A    between atoms: C_21  and  C_34
REMARK                            x       y       z     vdW  Elec       q    Type
REMARK                         _______ _______ _______ _____ _____    ______ ____
ROOT
ATOM      1  C   UNL     1      -1.267  -0.762   0.010  0.00  0.00    +0.007 C 
ATOM      2  C   UNL     1      -1.247  -2.088   0.002  0.00  0.00    +0.020 C 
ENDROOT
BRANCH   2   3
ATOM      3  C   UNL     1      -2.541  -2.860   0.010  0.00  0.00    +0.131 C 
ATOM      4  C   UNL     1      -2.695  -3.770  -1.229  0.00  0.00    +0.034 C 
ATOM      5  C   UNL     1      -3.506  -2.911  -2.179  0.00  0.00    -0.017 A 
ATOM      6  C   UNL     1      -3.728  -3.009  -3.537  0.00  0.00    +0.006 A 
ATOM      7  C   UNL     1      -4.518  -2.073  -4.179  0.00  0.00    +0.000 A 
ATOM      8  C   UNL     1      -5.087  -1.040  -3.457  0.00  0.00    +0.002 A 
ATOM      9  C   UNL     1      -4.872  -0.941  -2.098  0.00  0.00    +0.023 A 
ATOM     10  C   UNL     1      -4.078  -1.881  -1.443  0.00  0.00    +0.036 A 
ATOM     11  N   UNL     1      -3.736  -1.979  -0.089  0.00  0.00    -0.296 N 
ATOM     12  C   UNL     1      -4.776  -2.742   0.641  0.00  0.00    +0.203 C 
ATOM     13  C   UNL     1      -4.012  -3.611   1.615  0.00  0.00    +0.232 C 
ATOM     14  O   UNL     1      -4.481  -4.170   2.584  0.00  0.00    -0.274 OA
ATOM     15  N   UNL     1      -2.708  -3.662   1.227  0.00  0.00    -0.289 N 
ATOM     16  C   UNL     1      -1.329  -4.102  -1.831  0.00  0.00    +0.020 C 
ATOM     17  C   UNL     1      -3.456  -5.048  -0.871  0.00  0.00    +0.020 C 
ATOM     18  H   UNL     1      -2.000  -4.153   1.672  0.00  0.00    +0.151 HD
ENDBRANCH   2   3
BRANCH   1  21
ATOM     19  C   UNL     1       1.173   2.096   0.002  0.00  0.00    +0.162 A 
ATOM     20  C   UNL     1      -0.017   1.391   0.010  0.00  0.00    +0.057 A 
ATOM     21  C   UNL     1       0.002  -0.004   0.002  0.00  0.00    -0.022 A 
ATOM     22  C   UNL     1       1.222  -0.682  -0.013  0.00  0.00    +0.012 A 
ATOM     23  C   UNL     1       2.405   0.026  -0.021  0.00  0.00    +0.050 A 
ATOM     24  C   UNL     1       2.387   1.413  -0.014  0.00  0.00    +0.162 A 
BRANCH  19  25
ATOM     25  O   UNL     1       1.158   3.456   0.009  0.00  0.00    -0.489 OA
BRANCH  25  27
ATOM     26  C   UNL     1       0.061   5.609   0.030  0.00  0.00    +0.048 C 
ATOM     27  C   UNL     1      -0.122   4.090   0.024  0.00  0.00    +0.226 C 
ENDBRANCH  25  27
ENDBRANCH  19  25
BRANCH  24  28
ATOM     28  O   UNL     1       3.556   2.107  -0.021  0.00  0.00    -0.484 OA
BRANCH  28  29
ATOM     29  C   UNL     1       4.763   1.343  -0.036  0.00  0.00    +0.264 C 
BRANCH  29  30
ATOM     30  C   UNL     1       5.947   2.276  -0.043  0.00  0.00    -0.010 A 
ATOM     31  C   UNL     1       6.482   2.705  -1.243  0.00  0.00    +0.007 A 
ATOM     32  C   UNL     1       7.565   3.565  -1.248  0.00  0.00    +0.000 A 
ATOM     33  C   UNL     1       8.119   3.986  -0.054  0.00  0.00    +0.000 A 
ATOM     34  C   UNL     1       7.588   3.553   1.146  0.00  0.00    +0.000 A 
ATOM     35  C   UNL     1       6.501   2.698   1.152  0.00  0.00    +0.007 A 
ENDBRANCH  29  30
ENDBRANCH  28  29
ENDBRANCH  24  28
ENDBRANCH   1  21
TORSDOF 7
