REMARK  Name = ZINC58326542
REMARK  6 active torsions:
REMARK  status: ('A' for Active; 'I' for Inactive)
REMARK    1  A    between atoms: C_1  and  C_2
REMARK    2  A    between atoms: C_2  and  C_3
REMARK    3  A    between atoms: C_2  and  N_16
REMARK    4  A    between atoms: C_6  and  N_9
REMARK    5  A    between atoms: N_12  and  C_13
REMARK    6  A    between atoms: C_17  and  C_19
REMARK                            x       y       z     vdW  Elec       q    Type
REMARK                         _______ _______ _______ _____ _____    ______ ____
ROOT
ATOM      1  C   UNL     1      -0.217   1.481   0.168  0.00  0.00    +0.033 C 
ATOM      2  C   UNL     1      -0.221  -0.030  -0.075  0.00  0.00    +0.100 C 
ENDROOT
BRANCH   2   3
ATOM      3  C   UNL     1      -1.640  -0.534  -0.079  0.00  0.00    -0.027 A 
ATOM      4  C   UNL     1      -2.420  -0.391  -1.212  0.00  0.00    +0.007 A 
ATOM      5  C   UNL     1      -3.722  -0.852  -1.220  0.00  0.00    +0.023 A 
ATOM      6  C   UNL     1      -4.247  -1.462  -0.088  0.00  0.00    +0.035 A 
ATOM      7  C   UNL     1      -3.462  -1.605   1.048  0.00  0.00    +0.023 A 
ATOM      8  C   UNL     1      -2.159  -1.146   1.047  0.00  0.00    +0.007 A 
BRANCH   6   9
ATOM      9  N   UNL     1      -5.566  -1.930  -0.092  0.00  0.00    -0.269 N 
ATOM     10  C   UNL     1      -6.105  -2.417  -1.228  0.00  0.00    +0.304 C 
ATOM     11  O   UNL     1      -5.418  -2.537  -2.224  0.00  0.00    -0.253 OA
ATOM     12  N   UNL     1      -7.405  -2.771  -1.259  0.00  0.00    -0.296 N 
ATOM     13  H   UNL     1      -6.093  -1.904   0.722  0.00  0.00    +0.156 HD
ATOM     14  H   UNL     1      -7.953  -2.674  -0.465  0.00  0.00    +0.151 HD
BRANCH  12  15
ATOM     15  C   UNL     1      -7.990  -3.300  -2.494  0.00  0.00    +0.075 C 
ATOM     16  C   UNL     1      -9.370  -2.779  -2.901  0.00  0.00    +0.024 C 
ATOM     17  C   UNL     1      -9.218  -4.203  -2.362  0.00  0.00    +0.024 C 
ENDBRANCH  12  15
ENDBRANCH   6   9
ENDBRANCH   2   3
BRANCH   2  18
ATOM     18  N   UNL     1       0.405  -0.318  -1.368  0.00  0.00    -0.305 N 
ATOM     19  C   UNL     1       1.744  -0.437  -1.457  0.00  0.00    +0.250 C 
ATOM     20  O   UNL     1       2.427  -0.395  -0.451  0.00  0.00    -0.270 OA
ATOM     21  H   UNL     1      -0.145  -0.423  -2.160  0.00  0.00    +0.150 HD
BRANCH  19  22
ATOM     22  C   UNL     1       2.381  -0.618  -2.771  0.00  0.00    +0.100 A 
ATOM     23  C   UNL     1       3.755  -0.623  -2.890  0.00  0.00    +0.100 A 
ATOM     24  N   UNL     1       4.369  -0.785  -4.070  0.00  0.00    -0.360 N 
ATOM     25  H   UNL     1       5.339  -0.779  -4.093  0.00  0.00    +0.165 HD
ATOM     26  C   UNL     1       3.682  -0.959  -5.251  0.00  0.00    +0.050 A 
ATOM     27  C   UNL     1       4.369  -1.125  -6.451  0.00  0.00    +0.026 A 
ATOM     28  C   UNL     1       3.671  -1.299  -7.626  0.00  0.00    +0.002 A 
ATOM     29  C   UNL     1       2.283  -1.312  -7.630  0.00  0.00    +0.001 A 
ATOM     30  C   UNL     1       1.583  -1.150  -6.455  0.00  0.00    +0.014 A 
ATOM     31  C   UNL     1       2.277  -0.973  -5.258  0.00  0.00    +0.046 A 
ATOM     32  C   UNL     1       1.562  -0.803  -3.980  0.00  0.00    +0.201 A 
ATOM     33  O   UNL     1       0.344  -0.811  -3.927  0.00  0.00    -0.286 OA
ENDBRANCH  19  22
ENDBRANCH   2  18
TORSDOF 5
