REMARK  Name = ZINC01194179
REMARK  7 active torsions:
REMARK  status: ('A' for Active; 'I' for Inactive)
REMARK    1  A    between atoms: C_4  and  N_7
REMARK    2  A    between atoms: N_7  and  C_8
REMARK    3  A    between atoms: N_7  and  S_20
REMARK    4  A    between atoms: C_8  and  C_9
REMARK    5  A    between atoms: N_11  and  C_12
REMARK    6  A    between atoms: S_20  and  C_23
REMARK    7  A    between atoms: C_28  and  N_29
REMARK                            x       y       z     vdW  Elec       q    Type
REMARK                         _______ _______ _______ _____ _____    ______ ____
ROOT
ATOM      1  N   UNL     1      -2.807   7.942  -0.381  0.00  0.00    -0.194 N 
ENDROOT
BRANCH   1   5
ATOM      2  C   UNL     1      -4.775   8.582  -3.994  0.00  0.00    +0.000 A 
ATOM      3  C   UNL     1      -3.901   7.518  -3.864  0.00  0.00    +0.002 A 
ATOM      4  C   UNL     1      -3.247   7.303  -2.667  0.00  0.00    +0.025 A 
ATOM      5  C   UNL     1      -3.467   8.157  -1.593  0.00  0.00    +0.052 A 
ATOM      6  C   UNL     1      -4.349   9.222  -1.726  0.00  0.00    +0.025 A 
ATOM      7  C   UNL     1      -4.996   9.434  -2.928  0.00  0.00    +0.002 A 
ENDBRANCH   1   5
BRANCH   1   8
ATOM      8  S   UNL     1      -3.466   8.502   1.031  0.00  0.00    +0.077 S 
ATOM      9  O   UNL     1      -4.876   8.490   0.854  0.00  0.00    -0.150 OA
ATOM     10  O   UNL     1      -2.825   7.798   2.086  0.00  0.00    -0.150 OA
BRANCH   8  11
ATOM     11  C   UNL     1      -2.993  10.192   1.193  0.00  0.00    +0.139 A 
ATOM     12  C   UNL     1      -2.009  10.715   0.375  0.00  0.00    +0.031 A 
ATOM     13  C   UNL     1      -1.641  12.042   0.498  0.00  0.00    +0.002 A 
ATOM     14  C   UNL     1      -2.251  12.842   1.447  0.00  0.00    +0.002 A 
ATOM     15  C   UNL     1      -3.231  12.318   2.268  0.00  0.00    +0.035 A 
ATOM     16  C   UNL     1      -3.602  10.992   2.141  0.00  0.00    +0.153 A 
BRANCH  16  17
ATOM     17  N   UNL     1      -4.651  10.430   3.021  0.00  0.00    +0.058 N 
ATOM     18  O   UNL     1      -5.280  11.162   3.764  0.00  0.00    -0.126 OA
ATOM     19  O   UNL     1      -4.886   9.235   3.002  0.00  0.00    -0.126 OA
ENDBRANCH  16  17
ENDBRANCH   8  11
ENDBRANCH   1   8
BRANCH   1  20
ATOM     20  C   UNL     1      -1.532   7.221  -0.359  0.00  0.00    +0.227 C 
BRANCH  20  21
ATOM     21  C   UNL     1      -1.794   5.739  -0.286  0.00  0.00    +0.236 C 
ATOM     22  O   UNL     1      -2.934   5.325  -0.256  0.00  0.00    -0.274 OA
ATOM     23  N   UNL     1      -0.762   4.873  -0.255  0.00  0.00    -0.284 N 
ATOM     24  H   UNL     1       0.149   5.205  -0.212  0.00  0.00    +0.155 HD
BRANCH  23  25
ATOM     25  C   UNL     1      -1.004   3.495  -0.285  0.00  0.00    +0.036 A 
ATOM     26  C   UNL     1      -2.114   2.969   0.363  0.00  0.00    +0.043 A 
ATOM     27  C   UNL     1      -2.350   1.608   0.332  0.00  0.00    +0.044 A 
ATOM     28  C   UNL     1      -1.481   0.768  -0.343  0.00  0.00    +0.040 A 
ATOM     29  C   UNL     1      -0.371   1.289  -0.984  0.00  0.00    +0.044 A 
ATOM     30  C   UNL     1      -0.134   2.651  -0.962  0.00  0.00    +0.043 A 
ATOM     31 CL   UNL     1       0.721   0.232  -1.823  0.00  0.00    -0.083 Cl
ATOM     32 CL   UNL     1      -3.738   0.950   1.141  0.00  0.00    -0.083 Cl
ENDBRANCH  23  25
ENDBRANCH  20  21
ENDBRANCH   1  20
TORSDOF 7
