REMARK  Name = ZINC32792031
REMARK  10 active torsions:
REMARK  status: ('A' for Active; 'I' for Inactive)
REMARK    1  A    between atoms: C_1  and  C_2
REMARK    2  A    between atoms: C_2  and  C_4
REMARK    3  A    between atoms: C_2  and  N_12
REMARK    4  A    between atoms: N_12  and  C_13
REMARK    5  A    between atoms: C_13  and  C_15
REMARK    6  A    between atoms: C_13  and  C_16
REMARK    7  A    between atoms: C_16  and  C_18
REMARK    8  A    between atoms: C_19  and  N_28
REMARK    9  A    between atoms: N_20  and  C_27
REMARK   10  A    between atoms: N_23  and  C_26
REMARK                            x       y       z     vdW  Elec       q    Type
REMARK                         _______ _______ _______ _____ _____    ______ ____
ROOT
ATOM      1  C   UNL     1      -0.979  -0.845   1.251  0.00  0.00    -0.001 C 
ATOM      2  C   UNL     1      -1.687  -1.156  -0.069  0.00  0.00    -0.006 C 
ENDROOT
BRANCH   1   3
ATOM      3  N   UNL     1      -0.735  -2.095   1.982  0.00  0.00    +0.390 N 
ATOM      4  H   UNL     1       0.110  -2.619   1.513  0.00  0.00    -0.084 HD
ATOM      5  H   UNL     1      -1.637  -2.722   1.919  0.00  0.00    -0.084 HD
BRANCH   3   7
ATOM      6  C   UNL     1      -1.723  -1.727   4.193  0.00  0.00    -0.009 C 
ATOM      7  C   UNL     1      -0.423  -1.827   3.393  0.00  0.00    -0.040 C 
BRANCH   7   8
ATOM      8  C   UNL     1       0.421  -2.948   3.942  0.00  0.00    -0.026 A 
ATOM      9  C   UNL     1       0.433  -4.177   3.310  0.00  0.00    +0.007 A 
ATOM     10  C   UNL     1       1.210  -5.205   3.809  0.00  0.00    +0.039 A 
ATOM     11  C   UNL     1       1.970  -5.007   4.950  0.00  0.00    +0.126 A 
ATOM     12  C   UNL     1       1.954  -3.779   5.588  0.00  0.00    +0.076 A 
ATOM     13  C   UNL     1       1.179  -2.748   5.083  0.00  0.00    +0.128 A 
ATOM     14  F   UNL     1       1.163  -1.549   5.704  0.00  0.00    -0.205 F 
ATOM     15  F   UNL     1       2.726  -6.013   5.441  0.00  0.00    -0.205 F 
ENDBRANCH   7   8
ENDBRANCH   3   7
ENDBRANCH   1   3
BRANCH   1  16
ATOM     16  C   UNL     1       0.335  -0.164   0.967  0.00  0.00    +0.158 C 
ATOM     17  O   UNL     1       1.368  -0.802   0.998  0.00  0.00    -0.294 OA
BRANCH  16  18
ATOM     18  C   UNL     1       0.365   1.215   0.666  0.00  0.00    +0.118 A 
ATOM     19  C   UNL     1       1.561   1.848   0.285  0.00  0.00    +0.116 A 
ATOM     20  N   UNL     1       1.540   3.184   0.003  0.00  0.00    -0.284 N 
ATOM     21  C   UNL     1       0.406   3.896   0.084  0.00  0.00    +0.333 A 
ATOM     22  O   UNL     1       0.440   5.083  -0.177  0.00  0.00    -0.246 OA
ATOM     23  N   UNL     1      -0.766   3.346   0.443  0.00  0.00    -0.263 N 
ATOM     24  C   UNL     1      -0.853   2.032   0.735  0.00  0.00    +0.269 A 
ATOM     25  O   UNL     1      -1.917   1.536   1.055  0.00  0.00    -0.267 OA
ATOM     26  C   UNL     1      -1.967   4.183   0.510  0.00  0.00    +0.157 C 
ATOM     27  C   UNL     1       2.781   3.853  -0.395  0.00  0.00    +0.155 C 
BRANCH  19  28
ATOM     28  N   UNL     1       2.720   1.141   0.198  0.00  0.00    -0.344 N 
ATOM     29  H   UNL     1       3.651   1.645  -0.102  0.00  0.00    +0.144 HD
ATOM     30  H   UNL     1       2.727   0.065   0.427  0.00  0.00    +0.144 HD
ENDBRANCH  19  28
ENDBRANCH  16  18
ENDBRANCH   1  16
TORSDOF 6
