REMARK  Name = ZINC13027544
REMARK  11 active torsions:
REMARK  status: ('A' for Active; 'I' for Inactive)
REMARK    1  A    between atoms: C_1  and  C_2
REMARK    2  A    between atoms: C_5  and  N_9
REMARK    3  A    between atoms: C_6  and  C_8
REMARK    4  A    between atoms: N_9  and  C_10
REMARK    5  A    between atoms: C_10  and  C_12
REMARK    6  A    between atoms: C_10  and  C_19
REMARK    7  A    between atoms: N_21  and  C_22
REMARK    8  A    between atoms: C_27  and  C_29
REMARK    9  A    between atoms: C_29  and  C_30
REMARK   10  A    between atoms: C_30  and  C_31
REMARK   11  A    between atoms: C_31  and  C_32
REMARK                            x       y       z     vdW  Elec       q    Type
REMARK                         _______ _______ _______ _____ _____    ______ ____
ROOT
ATOM      1  N   UNL     1      -0.318   1.748   1.794  0.00  0.00    -0.255 N 
ATOM      2  C   UNL     1      -0.881   0.812   2.584  0.00  0.00    +0.221 C 
ATOM      3  O   UNL     1      -1.099  -0.298   2.148  0.00  0.00    -0.275 OA
ENDROOT
BRANCH   1   8
ATOM      4  C   UNL     1       0.704   6.942   3.834  0.00  0.00    +0.044 C 
ATOM      5  C   UNL     1       0.433   5.562   3.292  0.00  0.00    -0.050 A 
ATOM      6  C   UNL     1      -0.857   5.196   2.951  0.00  0.00    +0.005 A 
ATOM      7  C   UNL     1      -1.108   3.934   2.449  0.00  0.00    +0.024 A 
ATOM      8  C   UNL     1      -0.066   3.029   2.298  0.00  0.00    +0.040 A 
ATOM      9  C   UNL     1       1.228   3.399   2.642  0.00  0.00    -0.029 A 
ATOM     10  C   UNL     1       1.473   4.665   3.138  0.00  0.00    +0.008 A 
ATOM     11  C   UNL     1       2.362   2.421   2.474  0.00  0.00    +0.045 C 
ENDBRANCH   1   8
BRANCH   1  12
ATOM     12  C   UNL     1       0.031   1.423   0.409  0.00  0.00    +0.197 C 
BRANCH  12  13
ATOM     13  C   UNL     1      -1.229   1.187  -0.384  0.00  0.00    -0.018 A 
ATOM     14  C   UNL     1      -2.273   2.090  -0.308  0.00  0.00    +0.009 A 
ATOM     15  C   UNL     1      -3.426   1.876  -1.038  0.00  0.00    +0.038 A 
ATOM     16  C   UNL     1      -3.541   0.752  -1.838  0.00  0.00    +0.123 A 
ATOM     17  C   UNL     1      -2.497  -0.155  -1.909  0.00  0.00    +0.038 A 
ATOM     18  C   UNL     1      -1.342   0.064  -1.182  0.00  0.00    +0.009 A 
ATOM     19  F   UNL     1      -4.671   0.539  -2.547  0.00  0.00    -0.205 F 
ENDBRANCH  12  13
BRANCH  12  20
ATOM     20  C   UNL     1       0.798   2.570  -0.198  0.00  0.00    +0.239 C 
ATOM     21  O   UNL     1       0.529   3.711   0.113  0.00  0.00    -0.273 OA
ATOM     22  N   UNL     1       1.782   2.328  -1.085  0.00  0.00    -0.311 N 
ATOM     23  H   UNL     1       1.998   1.415  -1.334  0.00  0.00    +0.149 HD
BRANCH  22  24
ATOM     24  C   UNL     1       2.528   3.442  -1.675  0.00  0.00    +0.073 C 
ATOM     25  C   UNL     1       1.808   3.948  -2.942  0.00  0.00    +0.022 C 
ATOM     26  C   UNL     1       2.958   4.315  -3.912  0.00  0.00    +0.002 C 
ATOM     27  C   UNL     1       3.999   3.200  -3.645  0.00  0.00    +0.002 C 
ATOM     28  C   UNL     1       3.921   2.966  -2.122  0.00  0.00    +0.022 C 
ENDBRANCH  22  24
ENDBRANCH  12  20
ENDBRANCH   1  12
BRANCH   2  29
ATOM     29  C   UNL     1      -1.239   1.146   4.010  0.00  0.00    +0.097 C 
BRANCH  29  30
ATOM     30  C   UNL     1      -1.859  -0.082   4.680  0.00  0.00    +0.018 C 
BRANCH  30  31
ATOM     31  C   UNL     1      -2.223   0.257   6.127  0.00  0.00    +0.096 C 
BRANCH  31  32
ATOM     32  C   UNL     1      -2.833  -0.953   6.788  0.00  0.00    +0.218 C 
ATOM     33  O   UNL     1      -2.963  -1.984   6.163  0.00  0.00    -0.275 OA
ATOM     34  N   UNL     1      -3.233  -0.888   8.073  0.00  0.00    -0.270 N 
ATOM     35  C   UNL     1      -3.711  -2.031   8.713  0.00  0.00    +0.125 A 
ATOM     36  C   UNL     1      -4.256  -1.930   9.988  0.00  0.00    +0.044 A 
ATOM     37  C   UNL     1      -4.727  -3.072  10.611  0.00  0.00    +0.005 A 
ATOM     38  C   UNL     1      -4.636  -4.281   9.934  0.00  0.00    +0.020 A 
ATOM     39  C   UNL     1      -4.083  -4.308   8.669  0.00  0.00    +0.113 A 
ATOM     40  N   UNL     1      -3.647  -3.201   8.098  0.00  0.00    -0.240 NA
ATOM     41  H   UNL     1      -3.188  -0.047   8.554  0.00  0.00    +0.156 HD
ENDBRANCH  31  32
ENDBRANCH  30  31
ENDBRANCH  29  30
ENDBRANCH   2  29
TORSDOF 9
