REMARK  Name = ZINC40034928
REMARK  9 active torsions:
REMARK  status: ('A' for Active; 'I' for Inactive)
REMARK    1  A    between atoms: C_1  and  C_2
REMARK    2  A    between atoms: C_2  and  O_3
REMARK    3  A    between atoms: O_3  and  C_4
REMARK    4  A    between atoms: C_7  and  N_10
REMARK    5  A    between atoms: N_17  and  N_18
REMARK    6  A    between atoms: C_19  and  C_20
REMARK    7  A    between atoms: C_21  and  C_22
REMARK    8  A    between atoms: C_35  and  C_36
REMARK    9  A    between atoms: C_35  and  C_37
REMARK                            x       y       z     vdW  Elec       q    Type
REMARK                         _______ _______ _______ _____ _____    ______ ____
ROOT
ATOM      1  N   UNL     1      -1.897  -6.252  -0.717  0.00  0.00    -0.248 N 
ATOM      2  C   UNL     1      -3.121  -6.668  -0.326  0.00  0.00    +0.264 A 
ATOM      3  O   UNL     1      -3.992  -5.861  -0.042  0.00  0.00    -0.267 OA
ATOM      4  C   UNL     1      -3.371  -8.044  -0.255  0.00  0.00    +0.049 A 
ATOM      5  C   UNL     1      -2.354  -8.927  -0.588  0.00  0.00    +0.084 A 
ATOM      6  N   UNL     1      -1.159  -8.458  -0.962  0.00  0.00    -0.214 NA
ATOM      7  C   UNL     1      -0.932  -7.162  -1.033  0.00  0.00    +0.223 A 
ATOM      8  N   UNL     1       0.304  -6.719  -1.427  0.00  0.00    -0.206 N 
ATOM      9  C   UNL     1      -2.621 -10.382  -0.528  0.00  0.00    +0.004 A 
ATOM     10  C   UNL     1      -1.575 -11.299  -0.479  0.00  0.00    +0.010 A 
ATOM     11  C   UNL     1      -1.853 -12.650  -0.418  0.00  0.00    +0.001 A 
ATOM     12  C   UNL     1      -3.166 -13.088  -0.405  0.00  0.00    +0.000 A 
ATOM     13  C   UNL     1      -4.208 -12.180  -0.456  0.00  0.00    +0.004 A 
ATOM     14  C   UNL     1      -3.943 -10.827  -0.519  0.00  0.00    -0.037 A 
ATOM     15  C   UNL     1      -5.071  -9.833  -0.588  0.00  0.00    +0.047 C 
ATOM     16  C   UNL     1      -4.713  -8.562   0.179  0.00  0.00    +0.001 C 
ATOM     17  C   UNL     1      -4.675  -8.870   1.677  0.00  0.00    +0.016 C 
ATOM     18  C   UNL     1      -5.776  -7.495  -0.089  0.00  0.00    +0.016 C 
ATOM     19  H   UNL     1       0.468  -5.769  -1.533  0.00  0.00    +0.177 HD
ENDROOT
BRANCH   1  23
ATOM     20  C   UNL     1      -1.071  -2.173  -0.978  0.00  0.00    +0.121 A 
ATOM     21  C   UNL     1      -0.926  -2.833   0.233  0.00  0.00    +0.047 A 
ATOM     22  C   UNL     1      -1.200  -4.184   0.320  0.00  0.00    +0.030 A 
ATOM     23  C   UNL     1      -1.620  -4.881  -0.805  0.00  0.00    +0.053 A 
ATOM     24  C   UNL     1      -1.765  -4.219  -2.017  0.00  0.00    +0.030 A 
ATOM     25  C   UNL     1      -1.497  -2.867  -2.101  0.00  0.00    +0.047 A 
BRANCH  20  26
ATOM     26  O   UNL     1      -0.802  -0.843  -1.063  0.00  0.00    -0.492 OA
BRANCH  26  28
ATOM     27  C   UNL     1      -0.116   1.290  -0.157  0.00  0.00    +0.048 C 
ATOM     28  C   UNL     1      -0.369  -0.191   0.132  0.00  0.00    +0.225 C 
ENDBRANCH  26  28
ENDBRANCH  20  26
ENDBRANCH   1  23
BRANCH   8  29
ATOM     29  N   UNL     1       1.332  -7.638  -1.675  0.00  0.00    -0.188 NA
ATOM     30  C   UNL     1       2.507  -7.217  -2.049  0.00  0.00    +0.130 C 
BRANCH  30  31
ATOM     31  C   UNL     1       3.546  -8.147  -2.300  0.00  0.00    +0.022 C 
ATOM     32  C   UNL     1       4.763  -7.711  -2.688  0.00  0.00    +0.009 C 
BRANCH  32  33
ATOM     33  C   UNL     1       5.842  -8.677  -2.949  0.00  0.00    -0.025 A 
ATOM     34  C   UNL     1       5.609 -10.048  -2.802  0.00  0.00    +0.008 A 
ATOM     35  C   UNL     1       6.626 -10.946  -3.048  0.00  0.00    +0.001 A 
ATOM     36  C   UNL     1       7.874 -10.494  -3.440  0.00  0.00    +0.000 A 
ATOM     37  C   UNL     1       8.113  -9.139  -3.587  0.00  0.00    +0.001 A 
ATOM     38  C   UNL     1       7.104  -8.228  -3.351  0.00  0.00    +0.008 A 
ENDBRANCH  32  33
ENDBRANCH  30  31
ENDBRANCH   8  29
TORSDOF 6
