REMARK  Name = ZINC36690308
REMARK  12 active torsions:
REMARK  status: ('A' for Active; 'I' for Inactive)
REMARK    1  A    between atoms: C_1  and  C_2
REMARK    2  A    between atoms: C_2  and  N_3
REMARK    3  A    between atoms: N_3  and  C_4
REMARK    4  A    between atoms: N_3  and  C_6
REMARK    5  A    between atoms: C_4  and  C_5
REMARK    6  A    between atoms: C_6  and  C_7
REMARK    7  A    between atoms: C_7  and  N_8
REMARK    8  A    between atoms: C_18  and  C_20
REMARK    9  A    between atoms: C_24  and  N_26
REMARK   10  A    between atoms: N_26  and  S_27
REMARK   11  A    between atoms: S_27  and  C_30
REMARK   12  A    between atoms: C_33  and  C_36
REMARK                            x       y       z     vdW  Elec       q    Type
REMARK                         _______ _______ _______ _____ _____    ______ ____
ROOT
ATOM      1  N   UNL     1       1.870  -3.900   2.696  0.00  0.00    -0.248 N 
ATOM      2  C   UNL     1       3.038  -4.444   2.189  0.00  0.00    +0.168 A 
ATOM      3  N   UNL     1       4.242  -3.923   2.159  0.00  0.00    -0.224 NA
ATOM      4  C   UNL     1       5.300  -4.573   1.627  0.00  0.00    +0.080 A 
ATOM      5  C   UNL     1       6.640  -4.129   1.532  0.00  0.00    +0.029 A 
ATOM      6  C   UNL     1       7.600  -4.920   0.957  0.00  0.00    +0.002 A 
ATOM      7  C   UNL     1       7.298  -6.177   0.452  0.00  0.00    +0.001 A 
ATOM      8  C   UNL     1       5.998  -6.643   0.529  0.00  0.00    +0.017 A 
ATOM      9  C   UNL     1       5.030  -5.857   1.102  0.00  0.00    +0.041 A 
ATOM     10  S   UNL     1       3.290  -6.035   1.417  0.00  0.00    -0.052 S 
ATOM     11  C   UNL     1       0.743  -4.639   2.734  0.00  0.00    +0.252 C 
ATOM     12  O   UNL     1       0.772  -5.809   2.405  0.00  0.00    -0.270 OA
ENDROOT
BRANCH  11  13
ATOM     13  C   UNL     1      -0.528  -4.027   3.175  0.00  0.00    +0.039 A 
ATOM     14  C   UNL     1      -0.729  -2.652   3.035  0.00  0.00    +0.013 A 
ATOM     15  C   UNL     1      -1.916  -2.083   3.448  0.00  0.00    +0.003 A 
ATOM     16  C   UNL     1      -2.910  -2.870   4.000  0.00  0.00    +0.024 A 
ATOM     17  C   UNL     1      -2.720  -4.239   4.145  0.00  0.00    +0.049 A 
ATOM     18  C   UNL     1      -1.532  -4.822   3.727  0.00  0.00    +0.037 A 
BRANCH  17  19
ATOM     19  N   UNL     1      -3.727  -5.029   4.704  0.00  0.00    -0.216 N 
ATOM     20  H   UNL     1      -3.504  -5.697   5.373  0.00  0.00    +0.174 HD
BRANCH  19  21
ATOM     21  S   UNL     1      -5.300  -4.827   4.227  0.00  0.00    +0.072 S 
ATOM     22  O   UNL     1      -6.068  -5.781   4.947  0.00  0.00    -0.150 OA
ATOM     23  O   UNL     1      -5.566  -3.433   4.287  0.00  0.00    -0.150 OA
BRANCH  21  24
ATOM     24  C   UNL     1      -5.391  -5.285   2.528  0.00  0.00    +0.109 A 
ATOM     25  C   UNL     1      -5.181  -4.337   1.545  0.00  0.00    +0.029 A 
ATOM     26  C   UNL     1      -5.253  -4.696   0.212  0.00  0.00    +0.005 A 
ATOM     27  C   UNL     1      -5.535  -6.003  -0.138  0.00  0.00    -0.050 A 
ATOM     28  C   UNL     1      -5.745  -6.952   0.846  0.00  0.00    +0.005 A 
ATOM     29  C   UNL     1      -5.669  -6.593   2.179  0.00  0.00    +0.029 A 
ATOM     30  C   UNL     1      -5.615  -6.395  -1.591  0.00  0.00    +0.044 C 
ENDBRANCH  21  24
ENDBRANCH  19  21
ENDBRANCH  17  19
ENDBRANCH  11  13
BRANCH   1  31
ATOM     31  C   UNL     1       1.858  -2.522   3.193  0.00  0.00    +0.097 C 
BRANCH  31  32
ATOM     32  C   UNL     1       1.946  -1.554   2.011  0.00  0.00    -0.059 C 
BRANCH  32  33
ATOM     33  N   UNL     1       1.810  -0.174   2.497  0.00  0.00    +0.380 N 
ATOM     34  H   UNL     1       0.943  -0.080   3.003  0.00  0.00    -0.082 HD
BRANCH  33  36
ATOM     35  C   UNL     1       2.728   1.534   3.993  0.00  0.00    -0.017 C 
ATOM     36  C   UNL     1       2.934   0.143   3.389  0.00  0.00    -0.082 C 
ENDBRANCH  33  36
BRANCH  33  37
ATOM     37  C   UNL     1       1.815   0.750   1.355  0.00  0.00    -0.082 C 
ATOM     38  C   UNL     1       0.579   0.496   0.489  0.00  0.00    -0.017 C 
ENDBRANCH  33  37
ENDBRANCH  32  33
ENDBRANCH  31  32
ENDBRANCH   1  31
TORSDOF 9
