REMARK  Name = ZINC09215850
REMARK  4 active torsions:
REMARK  status: ('A' for Active; 'I' for Inactive)
REMARK    1  A    between atoms: C_4  and  C_7
REMARK    2  A    between atoms: C_7  and  C_8
REMARK    3  A    between atoms: C_8  and  N_9
REMARK    4  A    between atoms: N_24  and  C_27
REMARK                            x       y       z     vdW  Elec       q    Type
REMARK                         _______ _______ _______ _____ _____    ______ ____
ROOT
ATOM      1  N   UNL     1       1.356   2.033   0.000  0.00  0.00    -0.224 N 
ATOM      2  C   UNL     1       1.976   2.257   1.167  0.00  0.00    +0.240 C 
ATOM      3  O   UNL     1       1.383   2.033   2.201  0.00  0.00    -0.274 OA
ATOM      4  C   UNL     1       3.385   2.773   1.231  0.00  0.00    +0.147 C 
ATOM      5  C   UNL     1       3.409   4.093   2.005  0.00  0.00    +0.064 C 
ATOM      6  C   UNL     1       4.829   4.448   2.367  0.00  0.00    -0.025 A 
ATOM      7  C   UNL     1       5.095   5.746   2.774  0.00  0.00    +0.005 A 
ATOM      8  C   UNL     1       6.376   6.123   3.123  0.00  0.00    +0.000 A 
ATOM      9  C   UNL     1       7.405   5.199   3.070  0.00  0.00    +0.002 A 
ATOM     10  C   UNL     1       7.149   3.907   2.664  0.00  0.00    +0.023 A 
ATOM     11  C   UNL     1       5.856   3.522   2.305  0.00  0.00    +0.033 A 
ATOM     12  N   UNL     1       5.662   2.209   1.885  0.00  0.00    -0.322 N 
ATOM     13  C   UNL     1       4.268   1.770   1.983  0.00  0.00    +0.115 C 
ATOM     14  C   UNL     1       4.125   0.384   1.351  0.00  0.00    +0.129 C 
ATOM     15  N   UNL     1       5.023  -0.555   2.038  0.00  0.00    -0.324 N 
ATOM     16  C   UNL     1       6.421  -0.114   1.944  0.00  0.00    +0.124 C 
ATOM     17  C   UNL     1       6.561   1.275   2.574  0.00  0.00    +0.124 C 
ATOM     18  C   UNL     1       3.935   2.988  -0.150  0.00  0.00    +0.238 C 
ATOM     19  O   UNL     1       5.066   3.408  -0.274  0.00  0.00    -0.274 OA
ATOM     20  N   UNL     1       3.212   2.729  -1.248  0.00  0.00    -0.239 N 
ATOM     21  C   UNL     1       1.956   2.265  -1.177  0.00  0.00    +0.315 C 
ATOM     22  O   UNL     1       1.345   2.048  -2.205  0.00  0.00    -0.252 OA
ATOM     23  H   UNL     1       3.609   2.882  -2.120  0.00  0.00    +0.159 HD
ENDROOT
BRANCH  15  24
ATOM     24  C   UNL     1       4.872  -1.852   1.536  0.00  0.00    +0.065 A 
ATOM     25  C   UNL     1       5.113  -2.110   0.194  0.00  0.00    +0.026 A 
ATOM     26  C   UNL     1       4.967  -3.393  -0.299  0.00  0.00    +0.002 A 
ATOM     27  C   UNL     1       4.572  -4.417   0.541  0.00  0.00    +0.003 A 
ATOM     28  C   UNL     1       4.326  -4.164   1.878  0.00  0.00    +0.040 A 
ATOM     29  C   UNL     1       4.474  -2.884   2.379  0.00  0.00    +0.144 A 
ATOM     30  F   UNL     1       4.233  -2.636   3.685  0.00  0.00    -0.204 F 
ENDBRANCH  15  24
BRANCH   1  31
ATOM     31  C   UNL     1      -0.019   1.526   0.010  0.00  0.00    +0.122 C 
BRANCH  31  32
ATOM     32  C   UNL     1       0.002  -0.004   0.002  0.00  0.00    +0.054 C 
BRANCH  32  36
ATOM     33  C   UNL     1      -4.005  -1.483   0.032  0.00  0.00    +0.000 A 
ATOM     34  C   UNL     1      -3.369  -1.237  -1.170  0.00  0.00    +0.000 A 
ATOM     35  C   UNL     1      -2.072  -0.758  -1.179  0.00  0.00    +0.004 A 
ATOM     36  C   UNL     1      -1.412  -0.526   0.013  0.00  0.00    -0.046 A 
ATOM     37  C   UNL     1      -2.047  -0.777   1.215  0.00  0.00    +0.004 A 
ATOM     38  C   UNL     1      -3.345  -1.251   1.224  0.00  0.00    +0.000 A 
ENDBRANCH  32  36
ENDBRANCH  31  32
ENDBRANCH   1  31
TORSDOF 4
