REMARK  Name = ZINC18191077
REMARK  5 active torsions:
REMARK  status: ('A' for Active; 'I' for Inactive)
REMARK    1  A    between atoms: C_4  and  N_7
REMARK    2  A    between atoms: N_7  and  C_8
REMARK    3  A    between atoms: C_14  and  C_16
REMARK    4  A    between atoms: C_17  and  N_28
REMARK    5  A    between atoms: C_20  and  C_26
REMARK                            x       y       z     vdW  Elec       q    Type
REMARK                         _______ _______ _______ _____ _____    ______ ____
ROOT
ATOM      1  C   UNL     1      -0.328  -2.727   0.674  0.00  0.00    +0.098 A 
ATOM      2  C   UNL     1       0.931  -2.176   0.780  0.00  0.00    +0.053 A 
ATOM      3  C   UNL     1       1.046  -0.800   1.239  0.00  0.00    +0.030 A 
ATOM      4  C   UNL     1       2.219  -0.031   1.425  0.00  0.00    +0.034 A 
ATOM      5  C   UNL     1       2.103   1.277   1.875  0.00  0.00    +0.092 A 
ATOM      6  C   UNL     1       0.828   1.820   2.140  0.00  0.00    +0.135 A 
ATOM      7  N   UNL     1      -0.256   1.084   1.959  0.00  0.00    -0.224 NA
ATOM      8  C   UNL     1      -0.182  -0.161   1.533  0.00  0.00    +0.113 A 
ATOM      9  S   UNL     1      -1.404  -1.404   1.190  0.00  0.00    -0.062 S 
ATOM     10  N   UNL     1       0.711   3.123   2.587  0.00  0.00    -0.342 N 
ATOM     11  H   UNL     1      -0.165   3.497   2.769  0.00  0.00    +0.144 HD
ATOM     12  H   UNL     1       1.506   3.663   2.720  0.00  0.00    +0.144 HD
ENDROOT
BRANCH   1  14
ATOM     13  N   UNL     1      -1.979  -4.362   0.102  0.00  0.00    -0.236 N 
ATOM     14  C   UNL     1      -0.681  -4.032   0.256  0.00  0.00    +0.264 C 
ATOM     15  O   UNL     1       0.187  -4.856   0.034  0.00  0.00    -0.269 OA
BRANCH  13  19
ATOM     16  C   UNL     1      -3.042  -8.307  -0.711  0.00  0.00    +0.000 A 
ATOM     17  C   UNL     1      -1.738  -8.000  -0.372  0.00  0.00    +0.002 A 
ATOM     18  C   UNL     1      -1.382  -6.693  -0.102  0.00  0.00    +0.024 A 
ATOM     19  C   UNL     1      -2.336  -5.687  -0.171  0.00  0.00    +0.042 A 
ATOM     20  C   UNL     1      -3.647  -5.999  -0.507  0.00  0.00    +0.024 A 
ATOM     21  C   UNL     1      -3.995  -7.307  -0.782  0.00  0.00    +0.002 A 
ENDBRANCH  13  19
BRANCH  13  22
ATOM     22  C   UNL     1      -2.969  -3.379   0.215  0.00  0.00    +0.042 A 
ATOM     23  C   UNL     1      -3.117  -2.422  -0.780  0.00  0.00    +0.024 A 
ATOM     24  C   UNL     1      -4.099  -1.458  -0.668  0.00  0.00    +0.002 A 
ATOM     25  C   UNL     1      -4.927  -1.437   0.440  0.00  0.00    +0.000 A 
ATOM     26  C   UNL     1      -4.778  -2.385   1.435  0.00  0.00    +0.002 A 
ATOM     27  C   UNL     1      -3.802  -3.356   1.326  0.00  0.00    +0.024 A 
ENDBRANCH  13  22
ENDBRANCH   1  14
BRANCH   2  28
ATOM     28  N   UNL     1       2.060  -2.915   0.459  0.00  0.00    -0.356 N 
ATOM     29  H   UNL     1       1.969  -3.832   0.155  0.00  0.00    +0.142 HD
ATOM     30  H   UNL     1       2.940  -2.515   0.539  0.00  0.00    +0.142 HD
ENDBRANCH   2  28
BRANCH   5  31
ATOM     31  C   UNL     1       3.276   2.074   2.071  0.00  0.00    +0.103 C 
ATOM     32  N   UNL     1       4.207   2.707   2.226  0.00  0.00    -0.191 NA
ENDBRANCH   5  31
TORSDOF 5
