REMARK  Name = ZINC37562683
REMARK  4 active torsions:
REMARK  status: ('A' for Active; 'I' for Inactive)
REMARK    1  A    between atoms: C_3  and  N_8
REMARK    2  A    between atoms: N_8  and  C_9
REMARK    3  A    between atoms: C_9  and  C_10
REMARK    4  A    between atoms: C_12  and  N_15
REMARK                            x       y       z     vdW  Elec       q    Type
REMARK                         _______ _______ _______ _____ _____    ______ ____
ROOT
ATOM      1  N   UNL     1       3.582   2.123  -0.021  0.00  0.00    -0.340 N 
ATOM      2  H   UNL     1       3.570   3.093  -0.016  0.00  0.00    +0.146 HD
ENDROOT
BRANCH   1   5
ATOM      3  C   UNL     1      -0.017   1.378   0.010  0.00  0.00    +0.003 A 
ATOM      4  C   UNL     1       1.169   2.087   0.002  0.00  0.00    +0.023 A 
ATOM      5  C   UNL     1       2.381   1.409  -0.013  0.00  0.00    +0.028 A 
ATOM      6  C   UNL     1       2.397   0.020  -0.021  0.00  0.00    +0.037 A 
ATOM      7  C   UNL     1       1.208  -0.682  -0.013  0.00  0.00    +0.015 A 
ATOM      8  C   UNL     1       0.002  -0.004   0.002  0.00  0.00    +0.014 A 
ATOM      9  I   UNL     1       1.230  -2.777  -0.025  0.00  0.00    -0.044 I 
ENDBRANCH   1   5
BRANCH   1  10
ATOM     10  C   UNL     1       4.860   1.407  -0.037  0.00  0.00    +0.137 C 
BRANCH  10  11
ATOM     11  C   UNL     1       5.993   2.400  -0.043  0.00  0.00    -0.021 A 
ATOM     12  C   UNL     1       6.505   2.873  -1.237  0.00  0.00    +0.045 A 
ATOM     13  C   UNL     1       7.524   3.766  -1.207  0.00  0.00    +0.164 A 
ATOM     14  S   UNL     1       7.789   3.966   0.547  0.00  0.00    -0.073 S 
ATOM     15  C   UNL     1       6.521   2.848   1.122  0.00  0.00    +0.052 A 
BRANCH  13  16
ATOM     16  N   UNL     1       8.233   4.410  -2.336  0.00  0.00    +0.063 N 
ATOM     17  O   UNL     1       7.916   4.153  -3.474  0.00  0.00    -0.126 OA
ATOM     18  O   UNL     1       9.129   5.192  -2.120  0.00  0.00    -0.126 OA
ENDBRANCH  13  16
ENDBRANCH  10  11
ENDBRANCH   1  10
TORSDOF 4
