REMARK  Name = ZINC19482170
REMARK  4 active torsions:
REMARK  status: ('A' for Active; 'I' for Inactive)
REMARK    1  A    between atoms: C_1  and  C_2
REMARK    2  A    between atoms: C_2  and  N_3
REMARK    3  A    between atoms: N_3  and  C_4
REMARK    4  A    between atoms: C_10  and  C_12
REMARK                            x       y       z     vdW  Elec       q    Type
REMARK                         _______ _______ _______ _____ _____    ______ ____
ROOT
ATOM      1  N   UNL     1       7.163   1.891  -0.481  0.00  0.00    -0.269 N 
ATOM      2  C   UNL     1       5.991   2.445  -0.111  0.00  0.00    +0.262 C 
ATOM      3  O   UNL     1       5.972   3.555   0.377  0.00  0.00    -0.271 OA
ENDROOT
BRANCH   2   4
ATOM      4  C   UNL     1       4.705   1.684  -0.304  0.00  0.00    +0.276 C 
ATOM      5  C   UNL     1       4.668   0.485   0.655  0.00  0.00    +0.155 C 
ATOM      6  N   UNL     1       3.375  -0.196   0.466  0.00  0.00    -0.337 N 
ATOM      7  C   UNL     1       2.230   0.604   0.328  0.00  0.00    +0.070 A 
ATOM      8  C   UNL     1       0.970   0.037   0.432  0.00  0.00    +0.026 A 
ATOM      9  C   UNL     1      -0.155   0.828   0.289  0.00  0.00    +0.002 A 
ATOM     10  C   UNL     1      -0.023   2.182   0.044  0.00  0.00    +0.004 A 
ATOM     11  C   UNL     1       1.231   2.753  -0.060  0.00  0.00    +0.047 A 
ATOM     12  C   UNL     1       2.365   1.968   0.082  0.00  0.00    +0.142 A 
ATOM     13  O   UNL     1       3.595   2.538  -0.017  0.00  0.00    -0.476 OA
ATOM     14  H   UNL     1       3.332  -1.295   0.436  0.00  0.00    +0.146 HD
ENDBRANCH   2   4
BRANCH   1  15
ATOM     15  C   UNL     1       8.367   2.542  -0.190  0.00  0.00    +0.036 A 
ATOM     16  C   UNL     1       9.562   2.059  -0.707  0.00  0.00    +0.023 A 
ATOM     17  C   UNL     1      10.748   2.707  -0.422  0.00  0.00    +0.002 A 
ATOM     18  C   UNL     1      10.748   3.828   0.387  0.00  0.00    +0.000 A 
ATOM     19  C   UNL     1       9.560   4.308   0.908  0.00  0.00    +0.002 A 
ATOM     20  C   UNL     1       8.370   3.669   0.622  0.00  0.00    +0.023 A 
ENDBRANCH   1  15
BRANCH   1  22
ATOM     21  C   UNL     1       7.017   0.853  -2.691  0.00  0.00    +0.025 C 
ATOM     22  C   UNL     1       7.177   0.609  -1.189  0.00  0.00    +0.110 C 
ENDBRANCH   1  22
TORSDOF 3
