REMARK  Name = ZINC14887422
REMARK  8 active torsions:
REMARK  status: ('A' for Active; 'I' for Inactive)
REMARK    1  A    between atoms: C_1  and  C_2
REMARK    2  A    between atoms: C_6  and  C_28
REMARK    3  A    between atoms: C_16  and  C_19
REMARK    4  A    between atoms: N_30  and  C_31
REMARK    5  A    between atoms: C_31  and  C_33
REMARK    6  A    between atoms: C_31  and  C_34
REMARK    7  A    between atoms: C_34  and  O_35
REMARK    8  A    between atoms: O_35  and  C_36
REMARK                            x       y       z     vdW  Elec       q    Type
REMARK                         _______ _______ _______ _____ _____    ______ ____
ROOT
ATOM      1  C   UNL     1      -5.648  10.766  -0.170  0.00  0.00    +0.064 C 
ATOM      2  C   UNL     1      -4.794  10.153   0.909  0.00  0.00    +0.025 A 
ATOM      3  C   UNL     1      -4.712  10.768   2.105  0.00  0.00    +0.073 A 
ATOM      4  C   UNL     1      -3.893  10.208   3.116  0.00  0.00    +0.194 A 
ATOM      5  O   UNL     1      -3.843  10.700   4.233  0.00  0.00    -0.287 OA
ATOM      6  C   UNL     1      -3.106   9.014   2.776  0.00  0.00    +0.103 A 
ATOM      7  C   UNL     1      -3.251   8.467   1.513  0.00  0.00    +0.041 A 
ATOM      8  N   UNL     1      -4.128   8.993   0.646  0.00  0.00    -0.315 N 
ATOM      9  C   UNL     1      -4.425   8.318  -0.551  0.00  0.00    +0.060 A 
ATOM     10  C   UNL     1      -4.356   8.984  -1.765  0.00  0.00    +0.027 A 
ATOM     11  C   UNL     1      -4.649   8.307  -2.935  0.00  0.00    +0.002 A 
ATOM     12  C   UNL     1      -5.008   6.972  -2.899  0.00  0.00    +0.001 A 
ATOM     13  C   UNL     1      -5.079   6.301  -1.692  0.00  0.00    +0.017 A 
ATOM     14  C   UNL     1      -4.788   6.976  -0.517  0.00  0.00    +0.032 A 
ATOM     15  S   UNL     1      -4.875   6.147   1.039  0.00  0.00    -0.115 S 
ATOM     16  C   UNL     1      -3.120   5.967   1.503  0.00  0.00    +0.087 C 
ATOM     17  C   UNL     1      -2.411   7.280   1.138  0.00  0.00    +0.074 C 
ENDROOT
BRANCH  16  18
ATOM     18  C   UNL     1      -2.504   4.822   0.740  0.00  0.00    -0.030 A 
ATOM     19  C   UNL     1      -2.516   4.830  -0.643  0.00  0.00    +0.008 A 
ATOM     20  C   UNL     1      -1.951   3.783  -1.347  0.00  0.00    +0.050 A 
ATOM     21  C   UNL     1      -1.373   2.723  -0.668  0.00  0.00    +0.166 A 
ATOM     22  C   UNL     1      -1.361   2.715   0.724  0.00  0.00    +0.167 A 
ATOM     23  C   UNL     1      -1.929   3.768   1.424  0.00  0.00    +0.054 A 
ATOM     24  O   UNL     1      -0.738   1.576   1.151  0.00  0.00    -0.453 OA
ATOM     25  C   UNL     1      -0.013   1.086   0.008  0.00  0.00    +0.466 C 
ATOM     26  O   UNL     1      -0.760   1.588  -1.116  0.00  0.00    -0.453 OA
ENDBRANCH  16  18
BRANCH   6  27
ATOM     27  C   UNL     1      -2.185   8.415   3.756  0.00  0.00    +0.250 C 
ATOM     28  O   UNL     1      -1.026   8.782   3.805  0.00  0.00    -0.270 OA
ATOM     29  N   UNL     1      -2.625   7.459   4.598  0.00  0.00    -0.306 N 
ATOM     30  H   UNL     1      -3.549   7.167   4.559  0.00  0.00    +0.149 HD
BRANCH  29  31
ATOM     31  C   UNL     1      -1.709   6.863   5.573  0.00  0.00    +0.096 C 
ATOM     32  C   UNL     1      -0.936   5.719   4.913  0.00  0.00    +0.030 C 
BRANCH  31  33
ATOM     33  C   UNL     1      -2.508   6.320   6.759  0.00  0.00    +0.181 C 
BRANCH  33  34
ATOM     34  O   UNL     1      -3.344   5.247   6.320  0.00  0.00    -0.381 OA
ATOM     35  C   UNL     1      -4.137   4.667   7.357  0.00  0.00    +0.194 C 
ENDBRANCH  33  34
ENDBRANCH  31  33
ENDBRANCH  29  31
ENDBRANCH   6  27
TORSDOF 5
