REMARK  Name = ZINC50441543
REMARK  10 active torsions:
REMARK  status: ('A' for Active; 'I' for Inactive)
REMARK    1  A    between atoms: C_1  and  C_2
REMARK    2  A    between atoms: C_2  and  O_3
REMARK    3  A    between atoms: O_3  and  C_4
REMARK    4  A    between atoms: C_4  and  C_6
REMARK    5  A    between atoms: C_6  and  C_7
REMARK    6  A    between atoms: C_6  and  C_8
REMARK    7  A    between atoms: C_6  and  N_21
REMARK    8  A    between atoms: C_8  and  O_9
REMARK    9  A    between atoms: O_9  and  C_10
REMARK   10  A    between atoms: C_13  and  N_17
REMARK                            x       y       z     vdW  Elec       q    Type
REMARK                         _______ _______ _______ _____ _____    ______ ____
ROOT
ATOM      1  C   UNL     1      -2.828  -3.832   0.618  0.00  0.00    +0.227 C 
ENDROOT
BRANCH   1   2
ATOM      2  C   UNL     1      -2.881  -2.427   0.017  0.00  0.00    +0.060 C 
ATOM      3  C   UNL     1      -3.413  -2.505  -1.416  0.00  0.00    +0.004 C 
BRANCH   2   4
ATOM      4  N   UNL     1      -3.771  -1.582   0.824  0.00  0.00    +0.391 N 
ATOM      5  H   UNL     1      -3.806  -0.655   0.427  0.00  0.00    -0.088 HD
ATOM      6  H   UNL     1      -4.698  -1.980   0.831  0.00  0.00    -0.088 HD
ATOM      7  H   UNL     1      -3.420  -1.530   1.769  0.00  0.00    -0.088 HD
ENDBRANCH   2   4
BRANCH   2   8
ATOM      8  C   UNL     1      -1.496  -1.832   0.006  0.00  0.00    +0.299 C 
ATOM      9  O   UNL     1      -0.528  -2.555  -0.007  0.00  0.00    -0.252 OA
BRANCH   8  10
ATOM     10  O   UNL     1      -1.339  -0.499   0.012  0.00  0.00    -0.466 OA
BRANCH  10  12
ATOM     11  C   UNL     1      -0.019   1.526   0.010  0.00  0.00    +0.048 C 
ATOM     12  C   UNL     1       0.002  -0.004   0.002  0.00  0.00    +0.228 C 
ENDBRANCH  10  12
ENDBRANCH   8  10
ENDBRANCH   2   8
ENDBRANCH   1   2
BRANCH   1  13
ATOM     13  O   UNL     1      -4.141  -4.396   0.628  0.00  0.00    -0.491 OA
BRANCH  13  14
ATOM     14  C   UNL     1      -4.269  -5.651   1.134  0.00  0.00    +0.148 A 
ATOM     15  C   UNL     1      -4.140  -6.754   0.301  0.00  0.00    +0.063 A 
ATOM     16  C   UNL     1      -4.271  -8.029   0.819  0.00  0.00    +0.051 A 
ATOM     17  C   UNL     1      -4.531  -8.206   2.165  0.00  0.00    +0.129 A 
ATOM     18  C   UNL     1      -4.661  -7.110   2.997  0.00  0.00    +0.051 A 
ATOM     19  C   UNL     1      -4.525  -5.833   2.486  0.00  0.00    +0.063 A 
ATOM     20 BR   UNL     1      -4.695  -4.334   3.626  0.00  0.00    -0.046 Br
ATOM     21 BR   UNL     1      -3.784  -6.512  -1.540  0.00  0.00    -0.046 Br
BRANCH  17  22
ATOM     22  N   UNL     1      -4.672  -9.573   2.716  0.00  0.00    +0.056 N 
ATOM     23  O   UNL     1      -4.559 -10.532   1.990  0.00  0.00    -0.126 OA
ATOM     24  O   UNL     1      -4.900  -9.729   3.893  0.00  0.00    -0.126 OA
ENDBRANCH  17  22
ENDBRANCH  13  14
ENDBRANCH   1  13
TORSDOF 8
