REMARK  Name = ZINC39480671
REMARK  9 active torsions:
REMARK  status: ('A' for Active; 'I' for Inactive)
REMARK    1  A    between atoms: C_4  and  C_7
REMARK    2  A    between atoms: C_7  and  C_8
REMARK    3  A    between atoms: C_11  and  N_28
REMARK    4  A    between atoms: C_12  and  N_14
REMARK    5  A    between atoms: C_18  and  C_21
REMARK    6  A    between atoms: C_21  and  C_22
REMARK    7  A    between atoms: N_28  and  S_29
REMARK    8  A    between atoms: S_29  and  C_32
REMARK    9  A    between atoms: C_37  and  O_38
REMARK                            x       y       z     vdW  Elec       q    Type
REMARK                         _______ _______ _______ _____ _____    ______ ____
ROOT
ATOM      1  C   UNL     1       3.145  -0.679   2.120  0.00  0.00    -0.041 A 
ATOM      2  C   UNL     1       4.122   0.198   2.553  0.00  0.00    +0.006 A 
ATOM      3  C   UNL     1       4.845  -0.078   3.700  0.00  0.00    +0.026 A 
ATOM      4  C   UNL     1       4.590  -1.236   4.418  0.00  0.00    +0.069 A 
ATOM      5  C   UNL     1       3.604  -2.120   3.981  0.00  0.00    +0.053 A 
ATOM      6  C   UNL     1       2.881  -1.834   2.833  0.00  0.00    +0.029 A 
ENDROOT
BRANCH   5   7
ATOM      7  N   UNL     1       3.342  -3.292   4.702  0.00  0.00    -0.332 N 
ATOM      8  C   UNL     1       2.337  -3.310   5.777  0.00  0.00    +0.086 C 
ATOM      9  C   UNL     1       2.972  -3.932   7.025  0.00  0.00    -0.063 C 
ATOM     10  N   UNL     1       3.522  -5.251   6.687  0.00  0.00    +0.383 N 
ATOM     11  C   UNL     1       4.616  -5.104   5.718  0.00  0.00    -0.050 C 
ATOM     12  C   UNL     1       4.059  -4.541   4.402  0.00  0.00    +0.089 C 
ATOM     13  H   UNL     1       3.873  -5.693   7.524  0.00  0.00    -0.085 HD
ATOM     14  H   UNL     1       2.795  -5.825   6.286  0.00  0.00    -0.085 HD
BRANCH  11  15
ATOM     15  C   UNL     1       5.254  -6.470   5.458  0.00  0.00    +0.021 C 
BRANCH  15  16
ATOM     16  C   UNL     1       5.905  -6.970   6.721  0.00  0.00    -0.049 A 
ATOM     17  C   UNL     1       7.225  -6.657   6.990  0.00  0.00    +0.003 A 
ATOM     18  C   UNL     1       7.822  -7.115   8.149  0.00  0.00    +0.000 A 
ATOM     19  C   UNL     1       7.099  -7.886   9.040  0.00  0.00    +0.000 A 
ATOM     20  C   UNL     1       5.780  -8.199   8.773  0.00  0.00    +0.000 A 
ATOM     21  C   UNL     1       5.181  -7.737   7.615  0.00  0.00    +0.003 A 
ENDBRANCH  15  16
ENDBRANCH  11  15
ENDBRANCH   5   7
BRANCH   4  22
ATOM     22  N   UNL     1       5.320  -1.517   5.579  0.00  0.00    -0.214 N 
ATOM     23  H   UNL     1       5.550  -2.434   5.798  0.00  0.00    +0.174 HD
BRANCH  22  24
ATOM     24  S   UNL     1       5.793  -0.284   6.579  0.00  0.00    +0.076 S 
ATOM     25  O   UNL     1       4.658   0.553   6.756  0.00  0.00    -0.150 OA
ATOM     26  O   UNL     1       6.473  -0.886   7.672  0.00  0.00    -0.150 OA
BRANCH  24  27
ATOM     27  C   UNL     1       6.989   0.668   5.703  0.00  0.00    +0.150 A 
ATOM     28  C   UNL     1       6.726   1.987   5.387  0.00  0.00    +0.032 A 
ATOM     29  C   UNL     1       7.663   2.735   4.699  0.00  0.00    +0.002 A 
ATOM     30  C   UNL     1       8.867   2.165   4.327  0.00  0.00    +0.004 A 
ATOM     31  C   UNL     1       9.135   0.847   4.641  0.00  0.00    +0.047 A 
ATOM     32  C   UNL     1       8.197   0.096   5.336  0.00  0.00    +0.143 A 
BRANCH  32  33
ATOM     33  O   UNL     1       8.461  -1.200   5.651  0.00  0.00    -0.505 OA
ATOM     34  H   UNL     1       8.199  -1.832   4.968  0.00  0.00    +0.292 HD
ENDBRANCH  32  33
ENDBRANCH  24  27
ENDBRANCH  22  24
ENDBRANCH   4  22
BRANCH   1  35
ATOM     35  C   UNL     1       2.361  -0.373   0.870  0.00  0.00    +0.070 C 
BRANCH  35  39
ATOM     36  C   UNL     1      -1.110   1.900   1.883  0.00  0.00    +0.000 A 
ATOM     37  C   UNL     1       0.074   2.545   1.579  0.00  0.00    +0.000 A 
ATOM     38  C   UNL     1       1.197   1.810   1.251  0.00  0.00    +0.004 A 
ATOM     39  C   UNL     1       1.137   0.429   1.228  0.00  0.00    -0.043 A 
ATOM     40  C   UNL     1      -0.047  -0.216   1.533  0.00  0.00    +0.004 A 
ATOM     41  C   UNL     1      -1.171   0.519   1.860  0.00  0.00    +0.000 A 
ENDBRANCH  35  39
ENDBRANCH   1  35
TORSDOF 9
