REMARK  Name = ZINC24888840
REMARK  8 active torsions:
REMARK  status: ('A' for Active; 'I' for Inactive)
REMARK    1  A    between atoms: C_1  and  C_2
REMARK    2  A    between atoms: C_2  and  C_4
REMARK    3  A    between atoms: C_2  and  O_13
REMARK    4  A    between atoms: N_6  and  C_7
REMARK    5  A    between atoms: O_13  and  C_14
REMARK    6  A    between atoms: C_14  and  C_16
REMARK    7  A    between atoms: C_18  and  S_23
REMARK    8  A    between atoms: S_23  and  N_26
REMARK                            x       y       z     vdW  Elec       q    Type
REMARK                         _______ _______ _______ _____ _____    ______ ____
ROOT
ATOM      1  C   UNL     1      -0.088  -0.673  -2.267  0.00  0.00    +0.341 C 
ATOM      2  O   UNL     1      -1.285  -0.469  -2.224  0.00  0.00    -0.245 OA
ENDROOT
BRANCH   1   3
ATOM      3  C   UNL     1       0.535  -1.149  -3.518  0.00  0.00    +0.075 A 
ATOM      4  C   UNL     1       1.910  -1.391  -3.570  0.00  0.00    +0.044 A 
ATOM      5  C   UNL     1       2.485  -1.835  -4.742  0.00  0.00    +0.106 A 
ATOM      6  C   UNL     1       1.704  -2.043  -5.866  0.00  0.00    +0.029 A 
ATOM      7  C   UNL     1       0.342  -1.806  -5.823  0.00  0.00    +0.018 A 
ATOM      8  C   UNL     1      -0.249  -1.366  -4.654  0.00  0.00    +0.032 A 
ATOM      9 BR   UNL     1      -2.112  -1.051  -4.595  0.00  0.00    -0.049 Br
BRANCH   5  10
ATOM     10  S   UNL     1       4.219  -2.139  -4.809  0.00  0.00    +0.056 S 
ATOM     11  O   UNL     1       4.599  -2.028  -6.174  0.00  0.00    -0.153 OA
ATOM     12  O   UNL     1       4.810  -1.349  -3.787  0.00  0.00    -0.153 OA
BRANCH  10  13
ATOM     13  N   UNL     1       4.456  -3.721  -4.380  0.00  0.00    -0.204 NA
ATOM     14  H   UNL     1       5.207  -4.215  -4.744  0.00  0.00    +0.144 HD
ATOM     15  H   UNL     1       3.844  -4.154  -3.764  0.00  0.00    +0.144 HD
ENDBRANCH  10  13
ENDBRANCH   5  10
ENDBRANCH   1   3
BRANCH   1  16
ATOM     16  O   UNL     1       0.671  -0.465  -1.174  0.00  0.00    -0.449 OA
BRANCH  16  18
ATOM     17  C   UNL     1      -0.019   1.526   0.010  0.00  0.00    +0.062 C 
ATOM     18  C   UNL     1       0.002  -0.004   0.002  0.00  0.00    +0.259 C 
BRANCH  18  19
ATOM     19  C   UNL     1       0.731  -0.503   1.223  0.00  0.00    +0.254 C 
ATOM     20  O   UNL     1       1.774  -1.109   1.101  0.00  0.00    -0.272 OA
ATOM     21  N   UNL     1       0.223  -0.277   2.451  0.00  0.00    -0.309 N 
ATOM     22  H   UNL     1      -0.611   0.208   2.548  0.00  0.00    +0.149 HD
BRANCH  21  23
ATOM     23  C   UNL     1       0.932  -0.762   3.638  0.00  0.00    +0.073 C 
ATOM     24  C   UNL     1       0.541  -2.217   3.905  0.00  0.00    +0.022 C 
ATOM     25  C   UNL     1       1.281  -2.724   5.145  0.00  0.00    +0.002 C 
ATOM     26  C   UNL     1       0.902  -1.863   6.352  0.00  0.00    +0.000 C 
ATOM     27  C   UNL     1       1.293  -0.408   6.084  0.00  0.00    +0.002 C 
ATOM     28  C   UNL     1       0.553   0.098   4.845  0.00  0.00    +0.022 C 
ENDBRANCH  21  23
ENDBRANCH  18  19
ENDBRANCH  16  18
ENDBRANCH   1  16
TORSDOF 7
