REMARK  Name = ZINC40008968
REMARK  19 active torsions:
REMARK  status: ('A' for Active; 'I' for Inactive)
REMARK    1  A    between atoms: C_1  and  C_2
REMARK    2  A    between atoms: C_2  and  C_3
REMARK    3  A    between atoms: C_3  and  C_4
REMARK    4  A    between atoms: C_4  and  N_5
REMARK    5  A    between atoms: N_5  and  C_6
REMARK    6  A    between atoms: N_5  and  C_10
REMARK    7  A    between atoms: C_6  and  C_7
REMARK    8  A    between atoms: C_7  and  C_8
REMARK    9  A    between atoms: C_8  and  C_9
REMARK   10  A    between atoms: C_10  and  C_11
REMARK   11  A    between atoms: C_11  and  C_12
REMARK   12  A    between atoms: C_12  and  N_13
REMARK   13  A    between atoms: C_14  and  C_31
REMARK   14  A    between atoms: C_21  and  C_30
REMARK   15  A    between atoms: C_22  and  C_29
REMARK   16  A    between atoms: C_34  and  O_40
REMARK   17  A    between atoms: C_35  and  O_37
REMARK   18  A    between atoms: O_37  and  C_38
REMARK   19  A    between atoms: C_38  and  C_39
REMARK                            x       y       z     vdW  Elec       q    Type
REMARK                         _______ _______ _______ _____ _____    ______ ____
ROOT
ATOM      1  N   UNL     1      -5.702  -6.706   0.108  0.00  0.00    -0.284 N 
ATOM      2  C   UNL     1      -6.669  -6.853   1.208  0.00  0.00    +0.145 C 
ATOM      3  C   UNL     1      -7.911  -7.404   0.587  0.00  0.00    +0.072 A 
ATOM      4  C   UNL     1      -9.205  -7.768   1.174  0.00  0.00    +0.199 A 
ATOM      5  O   UNL     1      -9.519  -7.495   2.319  0.00  0.00    -0.287 OA
ATOM      6  C   UNL     1     -10.097  -8.499   0.239  0.00  0.00    +0.065 A 
ATOM      7  C   UNL     1     -11.274  -9.087   0.700  0.00  0.00    +0.019 A 
ATOM      8  C   UNL     1     -12.082  -9.761  -0.173  0.00  0.00    -0.047 A 
ATOM      9  C   UNL     1     -11.733  -9.863  -1.512  0.00  0.00    -0.044 A 
ATOM     10  C   UNL     1     -10.575  -9.288  -1.985  0.00  0.00    +0.050 A 
ATOM     11  C   UNL     1      -9.735  -8.592  -1.115  0.00  0.00    +0.140 A 
ATOM     12  O   UNL     1      -8.607  -8.027  -1.603  0.00  0.00    -0.450 OA
ATOM     13  C   UNL     1      -7.677  -7.553  -0.750  0.00  0.00    +0.199 A 
ATOM     14  C   UNL     1      -6.299  -7.112  -1.030  0.00  0.00    +0.283 C 
ATOM     15  O   UNL     1      -5.777  -7.116  -2.127  0.00  0.00    -0.267 OA
ATOM     16  C   UNL     1     -12.632 -10.613  -2.461  0.00  0.00    +0.044 C 
ATOM     17  C   UNL     1     -13.356 -10.398   0.321  0.00  0.00    +0.044 C 
ENDROOT
BRANCH   2  18
ATOM     18  C   UNL     1      -6.951  -5.511   1.835  0.00  0.00    -0.019 A 
ATOM     19  C   UNL     1      -7.085  -4.391   1.036  0.00  0.00    +0.009 A 
ATOM     20  C   UNL     1      -7.343  -3.159   1.607  0.00  0.00    +0.049 A 
ATOM     21  C   UNL     1      -7.469  -3.044   2.982  0.00  0.00    +0.158 A 
ATOM     22  C   UNL     1      -7.334  -4.172   3.786  0.00  0.00    +0.162 A 
ATOM     23  C   UNL     1      -7.080  -5.405   3.208  0.00  0.00    +0.055 A 
BRANCH  21  24
ATOM     24  O   UNL     1      -7.722  -1.833   3.545  0.00  0.00    -0.503 OA
ATOM     25  H   UNL     1      -8.664  -1.633   3.641  0.00  0.00    +0.292 HD
ENDBRANCH  21  24
BRANCH  22  26
ATOM     26  O   UNL     1      -7.456  -4.065   5.136  0.00  0.00    -0.489 OA
BRANCH  26  27
ATOM     27  C   UNL     1      -7.306  -5.265   5.898  0.00  0.00    +0.226 C 
ATOM     28  C   UNL     1      -7.475  -4.949   7.386  0.00  0.00    +0.048 C 
ENDBRANCH  26  27
ENDBRANCH  22  26
ENDBRANCH   2  18
BRANCH   1  29
ATOM     29  C   UNL     1      -4.332  -6.201   0.229  0.00  0.00    +0.107 C 
BRANCH  29  30
ATOM     30  C   UNL     1      -4.330  -4.683   0.040  0.00  0.00    +0.000 C 
BRANCH  30  31
ATOM     31  C   UNL     1      -2.899  -4.155   0.166  0.00  0.00    -0.077 C 
BRANCH  31  32
ATOM     32  N   UNL     1      -2.878  -2.718  -0.137  0.00  0.00    +0.380 N 
ATOM     33  H   UNL     1      -3.289  -2.560  -1.046  0.00  0.00    -0.082 HD
BRANCH  32  34
ATOM     34  C   UNL     1      -3.648  -1.991   0.881  0.00  0.00    -0.079 C 
BRANCH  34  35
ATOM     35  C   UNL     1      -3.732  -0.512   0.498  0.00  0.00    -0.019 C 
BRANCH  35  37
ATOM     36  C   UNL     1      -4.618   1.723   1.176  0.00  0.00    +0.004 C 
ATOM     37  C   UNL     1      -4.534   0.244   1.559  0.00  0.00    -0.005 C 
ENDBRANCH  35  37
ENDBRANCH  34  35
ENDBRANCH  32  34
BRANCH  32  38
ATOM     38  C   UNL     1      -1.490  -2.237  -0.137  0.00  0.00    -0.079 C 
BRANCH  38  39
ATOM     39  C   UNL     1      -0.729  -2.877  -1.300  0.00  0.00    -0.019 C 
BRANCH  39  40
ATOM     40  C   UNL     1       0.735  -2.436  -1.255  0.00  0.00    -0.005 C 
ATOM     41  C   UNL     1       1.497  -3.076  -2.417  0.00  0.00    +0.004 C 
ENDBRANCH  39  40
ENDBRANCH  38  39
ENDBRANCH  32  38
ENDBRANCH  31  32
ENDBRANCH  30  31
ENDBRANCH  29  30
ENDBRANCH   1  29
TORSDOF 14
