REMARK  Name = ZINC46914932
REMARK  10 active torsions:
REMARK  status: ('A' for Active; 'I' for Inactive)
REMARK    1  A    between atoms: C_1  and  C_2
REMARK    2  A    between atoms: C_4  and  C_32
REMARK    3  A    between atoms: C_6  and  N_8
REMARK    4  A    between atoms: C_9  and  C_11
REMARK    5  A    between atoms: C_11  and  N_12
REMARK    6  A    between atoms: C_13  and  N_31
REMARK    7  A    between atoms: C_14  and  C_19
REMARK    8  A    between atoms: C_15  and  S_17
REMARK    9  A    between atoms: S_17  and  C_18
REMARK   10  A    between atoms: C_21  and  C_24
REMARK                            x       y       z     vdW  Elec       q    Type
REMARK                         _______ _______ _______ _____ _____    ______ ____
ROOT
ATOM      1  N   UNL     1       0.370  -1.959   5.973  0.00  0.00    -0.240 N 
ATOM      2  C   UNL     1       1.508  -1.433   6.470  0.00  0.00    +0.129 A 
ATOM      3  C   UNL     1       1.151  -0.593   7.519  0.00  0.00    +0.112 A 
ATOM      4  C   UNL     1      -0.263  -0.641   7.627  0.00  0.00    +0.133 A 
ATOM      5  N   UNL     1      -0.712  -1.450   6.700  0.00  0.00    -0.162 NA
ENDROOT
BRANCH   3   6
ATOM      6  C   UNL     1       2.065   0.195   8.358  0.00  0.00    +0.265 A 
ATOM      7  N   UNL     1       1.715   0.983   9.353  0.00  0.00    -0.187 NA
ATOM      8  C   UNL     1       2.806   1.544   9.897  0.00  0.00    +0.202 A 
ATOM      9  N   UNL     1       3.867   1.119   9.254  0.00  0.00    -0.056 NA
ATOM     10  O   UNL     1       3.406   0.231   8.247  0.00  0.00    -0.332 OA
BRANCH   8  11
ATOM     11  C   UNL     1       2.811   2.491  11.040  0.00  0.00    +0.023 A 
ATOM     12  C   UNL     1       1.612   2.862  11.645  0.00  0.00    +0.013 A 
ATOM     13  C   UNL     1       1.622   3.743  12.707  0.00  0.00    +0.021 A 
ATOM     14  C   UNL     1       2.821   4.256  13.172  0.00  0.00    +0.041 A 
ATOM     15  C   UNL     1       4.014   3.890  12.575  0.00  0.00    +0.021 A 
ATOM     16  C   UNL     1       4.015   3.006  11.515  0.00  0.00    +0.013 A 
ATOM     17 CL   UNL     1       2.827   5.364  14.509  0.00  0.00    -0.084 Cl
ENDBRANCH   8  11
ENDBRANCH   3   6
BRANCH   2  18
ATOM     18  N   UNL     1       2.792  -1.683   6.020  0.00  0.00    -0.343 N 
ATOM     19  H   UNL     1       2.935  -2.289   5.276  0.00  0.00    +0.144 HD
ATOM     20  H   UNL     1       3.548  -1.253   6.448  0.00  0.00    +0.144 HD
ENDBRANCH   2  18
BRANCH   4  21
ATOM     21  S   UNL     1      -1.243   0.238   8.797  0.00  0.00    -0.107 S 
ATOM     22  C   UNL     1      -2.944  -0.256   8.404  0.00  0.00    +0.091 C 
ENDBRANCH   4  21
BRANCH   1  23
ATOM     23  C   UNL     1       0.280  -2.900   4.854  0.00  0.00    +0.241 C 
BRANCH  23  25
ATOM     24  N   UNL     1       0.052  -2.797   2.393  0.00  0.00    -0.284 N 
ATOM     25  C   UNL     1       0.150  -2.134   3.562  0.00  0.00    +0.239 C 
ATOM     26  O   UNL     1       0.134  -0.922   3.575  0.00  0.00    -0.273 OA
ATOM     27  H   UNL     1      -0.012  -3.765   2.388  0.00  0.00    +0.155 HD
BRANCH  24  33
ATOM     28  C   UNL     1      -1.512  -2.365  -2.248  0.00  0.00    +0.044 C 
ATOM     29  C   UNL     1      -0.707  -1.857  -1.080  0.00  0.00    -0.048 A 
ATOM     30  C   UNL     1       0.025  -0.690  -1.201  0.00  0.00    +0.006 A 
ATOM     31  C   UNL     1       0.765  -0.220  -0.131  0.00  0.00    -0.048 A 
ATOM     32  C   UNL     1       0.776  -0.917   1.061  0.00  0.00    +0.026 A 
ATOM     33  C   UNL     1       0.043  -2.089   1.186  0.00  0.00    +0.034 A 
ATOM     34  C   UNL     1      -0.704  -2.555   0.112  0.00  0.00    +0.026 A 
ATOM     35  C   UNL     1       1.561   1.052  -0.268  0.00  0.00    +0.044 C 
ENDBRANCH  24  33
ENDBRANCH  23  25
ENDBRANCH   1  23
TORSDOF 7
