REMARK  Name = ZINC39551727
REMARK  8 active torsions:
REMARK  status: ('A' for Active; 'I' for Inactive)
REMARK    1  A    between atoms: C_1  and  C_2
REMARK    2  A    between atoms: C_2  and  C_3
REMARK    3  A    between atoms: C_5  and  C_22
REMARK    4  A    between atoms: C_10  and  C_21
REMARK    5  A    between atoms: N_11  and  C_12
REMARK    6  A    between atoms: C_12  and  C_13
REMARK    7  A    between atoms: N_18  and  C_19
REMARK    8  A    between atoms: C_19  and  C_20
REMARK                            x       y       z     vdW  Elec       q    Type
REMARK                         _______ _______ _______ _____ _____    ______ ____
ROOT
ATOM      1  C   UNL     1      -1.440  -0.537   0.013  0.00  0.00    +0.092 C 
ATOM      2  C   UNL     1      -1.429  -2.051  -0.230  0.00  0.00    +0.166 C 
ATOM      3  C   UNL     1      -0.847  -2.737   0.980  0.00  0.00    +0.171 C 
ATOM      4  O   UNL     1      -0.284  -3.807   0.854  0.00  0.00    -0.292 OA
ATOM      5  C   UNL     1      -0.948  -2.151   2.247  0.00  0.00    +0.065 C 
ATOM      6  C   UNL     1      -1.551  -0.950   2.412  0.00  0.00    +0.007 C 
ATOM      7  N   UNL     1      -2.053  -0.287   1.327  0.00  0.00    -0.331 N 
ATOM      8  C   UNL     1      -1.668  -0.345   3.788  0.00  0.00    +0.060 C 
ENDROOT
BRANCH   2   9
ATOM      9  C   UNL     1      -0.589  -2.362  -1.442  0.00  0.00    +0.228 C 
ATOM     10  O   UNL     1       0.576  -2.670  -1.310  0.00  0.00    -0.275 OA
ATOM     11  N   UNL     1      -1.133  -2.297  -2.673  0.00  0.00    -0.295 N 
ATOM     12  C   UNL     1      -0.367  -2.710  -3.859  0.00  0.00    +0.113 C 
ATOM     13  C   UNL     1      -1.047  -3.930  -4.491  0.00  0.00    +0.056 C 
ATOM     14  C   UNL     1      -2.533  -3.685  -4.557  0.00  0.00    -0.016 A 
ATOM     15  C   UNL     1      -3.521  -4.369  -5.367  0.00  0.00    +0.003 A 
ATOM     16  C   UNL     1      -3.429  -5.410  -6.295  0.00  0.00    +0.010 A 
ATOM     17  C   UNL     1      -4.598  -5.818  -6.888  0.00  0.00    +0.001 A 
ATOM     18  C   UNL     1      -5.817  -5.232  -6.591  0.00  0.00    +0.002 A 
ATOM     19  C   UNL     1      -5.938  -4.200  -5.676  0.00  0.00    +0.026 A 
ATOM     20  C   UNL     1      -4.767  -3.765  -5.058  0.00  0.00    +0.047 A 
ATOM     21  N   UNL     1      -4.529  -2.793  -4.129  0.00  0.00    -0.356 N 
ATOM     22  C   UNL     1      -3.192  -2.751  -3.837  0.00  0.00    +0.038 A 
ATOM     23  H   UNL     1      -5.205  -2.219  -3.736  0.00  0.00    +0.166 HD
ATOM     24  C   UNL     1      -2.513  -1.817  -2.866  0.00  0.00    +0.161 C 
ENDBRANCH   2   9
BRANCH   1  26
ATOM     25  C   UNL     1      -0.028   1.519   0.168  0.00  0.00    +0.006 C 
ATOM     26  C   UNL     1      -0.006  -0.002   0.002  0.00  0.00    +0.020 C 
ENDBRANCH   1  26
BRANCH   7  27
ATOM     27  C   UNL     1      -3.173   0.646   1.467  0.00  0.00    +0.090 C 
BRANCH  27  28
ATOM     28  C   UNL     1      -4.491  -0.108   1.288  0.00  0.00    -0.051 C 
ATOM     29  C   UNL     1      -5.678   0.827   1.600  0.00  0.00    -0.016 C 
ATOM     30  C   UNL     1      -6.676  -0.106   2.335  0.00  0.00    -0.020 C 
ATOM     31  C   UNL     1      -5.716  -1.021   3.136  0.00  0.00    -0.078 C 
ATOM     32  N   UNL     1      -4.558  -1.235   2.237  0.00  0.00    +0.382 N 
ATOM     33  H   UNL     1      -3.708  -1.272   2.779  0.00  0.00    -0.081 HD
BRANCH  32  34
ATOM     34  C   UNL     1      -4.727  -2.494   1.499  0.00  0.00    -0.082 C 
ATOM     35  C   UNL     1      -4.670  -3.669   2.476  0.00  0.00    -0.017 C 
ENDBRANCH  32  34
ENDBRANCH  27  28
ENDBRANCH   7  27
TORSDOF 5
