REMARK  Name = ZINC06441906
REMARK  7 active torsions:
REMARK  status: ('A' for Active; 'I' for Inactive)
REMARK    1  A    between atoms: C_1  and  C_2
REMARK    2  A    between atoms: C_7  and  C_15
REMARK    3  A    between atoms: C_13  and  C_14
REMARK    4  A    between atoms: C_15  and  C_17
REMARK    5  A    between atoms: C_15  and  N_30
REMARK    6  A    between atoms: N_21  and  C_22
REMARK    7  A    between atoms: C_22  and  C_23
REMARK                            x       y       z     vdW  Elec       q    Type
REMARK                         _______ _______ _______ _____ _____    ______ ____
ROOT
ATOM      1  C   UNL     1      -5.521   1.223   0.219  0.00  0.00    +0.179 C 
ENDROOT
BRANCH   1   8
ATOM      2  C   UNL     1       1.124   5.606  -0.283  0.00  0.00    +0.044 C 
ATOM      3  C   UNL     1      -0.133   4.840   0.037  0.00  0.00    -0.046 A 
ATOM      4  C   UNL     1      -0.626   4.840   1.335  0.00  0.00    +0.004 A 
ATOM      5  C   UNL     1      -1.764   4.152   1.647  0.00  0.00    +0.010 A 
ATOM      6  C   UNL     1      -2.437   3.437   0.650  0.00  0.00    -0.001 A 
ATOM      7  C   UNL     1      -3.656   2.683   0.950  0.00  0.00    +0.021 A 
ATOM      8  C   UNL     1      -4.264   2.008  -0.056  0.00  0.00    +0.045 A 
ATOM      9  C   UNL     1      -3.725   2.038  -1.360  0.00  0.00    +0.255 A 
ATOM     10  O   UNL     1      -4.288   1.424  -2.249  0.00  0.00    -0.268 OA
ATOM     11  N   UNL     1      -2.613   2.737  -1.648  0.00  0.00    -0.322 N 
ATOM     12  H   UNL     1      -2.270   2.737  -2.555  0.00  0.00    +0.169 HD
ATOM     13  C   UNL     1      -1.944   3.439  -0.668  0.00  0.00    +0.052 A 
ATOM     14  C   UNL     1      -0.783   4.147  -0.962  0.00  0.00    -0.024 A 
ATOM     15  C   UNL     1      -0.237   4.157  -2.367  0.00  0.00    +0.046 C 
ENDBRANCH   1   8
BRANCH   1  16
ATOM     16  N   UNL     1      -6.606   1.720  -0.637  0.00  0.00    -0.316 N 
ATOM     17  C   UNL     1      -6.715   3.178  -0.553  0.00  0.00    +0.106 C 
ATOM     18  C   UNL     1      -7.879   3.634  -1.442  0.00  0.00    +0.024 C 
ATOM     19  C   UNL     1      -9.180   3.139  -0.807  0.00  0.00    +0.038 C 
ATOM     20  C   UNL     1      -9.038   1.687  -0.427  0.00  0.00    -0.026 A 
ATOM     21  C   UNL     1      -7.804   1.064  -0.357  0.00  0.00    +0.034 A 
ATOM     22  C   UNL     1      -7.736  -0.282   0.008  0.00  0.00    +0.023 A 
ATOM     23  C   UNL     1      -8.885  -0.987   0.292  0.00  0.00    +0.002 A 
ATOM     24  C   UNL     1     -10.116  -0.361   0.216  0.00  0.00    +0.000 A 
ATOM     25  C   UNL     1     -10.190   0.970  -0.143  0.00  0.00    +0.005 A 
ENDBRANCH   1  16
BRANCH   1  26
ATOM     26  C   UNL     1      -5.908   1.386   1.667  0.00  0.00    +0.177 A 
ATOM     27  N   UNL     1      -6.478   2.433   2.211  0.00  0.00    -0.111 NA
ATOM     28  N   UNL     1      -6.647   2.188   3.464  0.00  0.00    -0.023 NA
ATOM     29  N   UNL     1      -6.201   1.010   3.733  0.00  0.00    -0.044 NA
ATOM     30  N   UNL     1      -5.742   0.482   2.650  0.00  0.00    -0.223 N 
BRANCH  30  31
ATOM     31  C   UNL     1      -5.149  -0.851   2.515  0.00  0.00    +0.182 C 
BRANCH  31  32
ATOM     32  C   UNL     1      -3.688  -0.789   2.880  0.00  0.00    -0.026 A 
ATOM     33  C   UNL     1      -2.735  -0.631   1.892  0.00  0.00    +0.008 A 
ATOM     34  C   UNL     1      -1.395  -0.570   2.226  0.00  0.00    +0.038 A 
ATOM     35  C   UNL     1      -1.007  -0.677   3.551  0.00  0.00    +0.123 A 
ATOM     36  C   UNL     1      -1.962  -0.841   4.540  0.00  0.00    +0.038 A 
ATOM     37  C   UNL     1      -3.302  -0.897   4.203  0.00  0.00    +0.008 A 
ATOM     38  F   UNL     1       0.302  -0.622   3.878  0.00  0.00    -0.205 F 
ENDBRANCH  31  32
ENDBRANCH  30  31
ENDBRANCH   1  26
TORSDOF 5
