REMARK  Name = ZINC37285722
REMARK  4 active torsions:
REMARK  status: ('A' for Active; 'I' for Inactive)
REMARK    1  A    between atoms: C_8  and  S_10
REMARK    2  A    between atoms: S_10  and  C_11
REMARK    3  A    between atoms: C_11  and  C_12
REMARK    4  A    between atoms: C_17  and  N_22
REMARK                            x       y       z     vdW  Elec       q    Type
REMARK                         _______ _______ _______ _____ _____    ______ ____
ROOT
ATOM      1  C   UNL     1       6.412  -4.280  -0.086  0.00  0.00    +0.119 A 
ATOM      2  N   UNL     1       6.882  -4.917   1.022  0.00  0.00    -0.341 N 
ATOM      3  H   UNL     1       6.703  -4.675   1.944  0.00  0.00    +0.167 HD
ATOM      4  C   UNL     1       7.661  -5.971   0.590  0.00  0.00    +0.068 A 
ATOM      5  C   UNL     1       8.392  -6.960   1.234  0.00  0.00    +0.050 A 
ATOM      6  C   UNL     1       9.085  -7.897   0.486  0.00  0.00    +0.027 A 
ATOM      7  C   UNL     1       9.050  -7.850  -0.906  0.00  0.00    +0.025 A 
ATOM      8  C   UNL     1       8.335  -6.883  -1.552  0.00  0.00    +0.031 A 
ATOM      9  C   UNL     1       7.629  -5.928  -0.815  0.00  0.00    +0.089 A 
ATOM     10  N   UNL     1       6.844  -4.874  -1.159  0.00  0.00    -0.232 NA
ENDROOT
BRANCH   6  11
ATOM     11  N   UNL     1       9.823  -8.895   1.131  0.00  0.00    -0.358 N 
ATOM     12  H   UNL     1       9.848  -8.929   2.100  0.00  0.00    +0.142 HD
ATOM     13  H   UNL     1      10.309  -9.552   0.609  0.00  0.00    +0.142 HD
ENDBRANCH   6  11
BRANCH   1  14
ATOM     14  C   UNL     1       5.517  -3.068  -0.070  0.00  0.00    +0.153 C 
BRANCH  14  15
ATOM     15  S   UNL     1       3.782  -3.598  -0.055  0.00  0.00    -0.059 S 
BRANCH  15  23
ATOM     16  C   UNL     1      -0.017   1.373   0.010  0.00  0.00    +0.002 A 
ATOM     17  C   UNL     1       1.170   2.091   0.002  0.00  0.00    +0.004 A 
ATOM     18  C   UNL     1       2.384   1.435  -0.013  0.00  0.00    +0.048 A 
ATOM     19  C   UNL     1       2.421   0.051  -0.021  0.00  0.00    +0.156 A 
ATOM     20  C   UNL     1       1.223  -0.680  -0.013  0.00  0.00    +0.110 A 
ATOM     21  C   UNL     1       0.002  -0.004   0.002  0.00  0.00    +0.031 A 
ATOM     22  N   UNL     1       1.569  -1.996  -0.024  0.00  0.00    -0.203 NA
ATOM     23  C   UNL     1       2.875  -2.087  -0.038  0.00  0.00    +0.258 A 
ATOM     24  O   UNL     1       3.423  -0.859  -0.036  0.00  0.00    -0.431 OA
ENDBRANCH  15  23
ENDBRANCH  14  15
ENDBRANCH   1  14
TORSDOF 4
