REMARK  Name = ZINC01444062
REMARK  6 active torsions:
REMARK  status: ('A' for Active; 'I' for Inactive)
REMARK    1  A    between atoms: C_4  and  C_7
REMARK    2  A    between atoms: N_9  and  C_10
REMARK    3  A    between atoms: C_10  and  C_19
REMARK    4  A    between atoms: C_11  and  C_12
REMARK    5  A    between atoms: C_17  and  O_18
REMARK    6  A    between atoms: N_21  and  N_22
REMARK                            x       y       z     vdW  Elec       q    Type
REMARK                         _______ _______ _______ _____ _____    ______ ____
ROOT
ATOM      1  C   UNL     1       5.203  -3.453  -0.159  0.00  0.00    +0.098 C 
ATOM      2  C   UNL     1       6.169  -2.502  -0.210  0.00  0.00    +0.040 C 
ENDROOT
BRANCH   2   3
ATOM      3  C   UNL     1       5.809  -1.083  -0.091  0.00  0.00    +0.018 A 
ATOM      4  C   UNL     1       4.754  -0.691   0.740  0.00  0.00    +0.011 A 
ATOM      5  C   UNL     1       4.426   0.642   0.851  0.00  0.00    +0.001 A 
ATOM      6  C   UNL     1       5.128   1.597   0.134  0.00  0.00    +0.004 A 
ATOM      7  C   UNL     1       6.169   1.224  -0.696  0.00  0.00    +0.046 A 
ATOM      8  C   UNL     1       6.518  -0.112  -0.816  0.00  0.00    +0.124 A 
BRANCH   8   9
ATOM      9  O   UNL     1       7.540  -0.479  -1.630  0.00  0.00    -0.506 OA
ATOM     10  H   UNL     1       7.270  -0.673  -2.538  0.00  0.00    +0.292 HD
ENDBRANCH   8   9
ENDBRANCH   2   3
BRANCH   1  13
ATOM     11  C   UNL     1       4.603  -5.754  -0.210  0.00  0.00    +0.248 C 
ATOM     12  O   UNL     1       3.449  -5.437  -0.426  0.00  0.00    -0.270 OA
ATOM     13  N   UNL     1       5.556  -4.806  -0.115  0.00  0.00    -0.277 N 
ATOM     14  H   UNL     1       6.486  -5.062  -0.016  0.00  0.00    +0.155 HD
BRANCH  11  18
ATOM     15  C   UNL     1       5.629  -9.850   0.243  0.00  0.00    +0.000 A 
ATOM     16  C   UNL     1       4.315  -9.493  -0.003  0.00  0.00    +0.001 A 
ATOM     17  C   UNL     1       3.975  -8.164  -0.151  0.00  0.00    +0.013 A 
ATOM     18  C   UNL     1       4.960  -7.180  -0.053  0.00  0.00    +0.037 A 
ATOM     19  C   UNL     1       6.284  -7.548   0.189  0.00  0.00    +0.013 A 
ATOM     20  C   UNL     1       6.610  -8.880   0.341  0.00  0.00    +0.001 A 
ENDBRANCH  11  18
ENDBRANCH   1  13
BRANCH   1  21
ATOM     21  C   UNL     1       3.790  -3.063  -0.151  0.00  0.00    +0.277 C 
ATOM     22  O   UNL     1       3.072  -3.395   0.774  0.00  0.00    -0.267 OA
ATOM     23  N   UNL     1       3.285  -2.335  -1.167  0.00  0.00    -0.201 N 
ATOM     24  H   UNL     1       3.837  -2.132  -1.939  0.00  0.00    +0.178 HD
BRANCH  23  25
ATOM     25  N   UNL     1       1.964  -1.873  -1.110  0.00  0.00    -0.174 NA
ATOM     26  C   UNL     1       1.441  -1.251  -2.139  0.00  0.00    +0.153 C 
ATOM     27  C   UNL     1       0.043  -0.789  -2.300  0.00  0.00    +0.030 A 
ATOM     28  C   UNL     1      -1.081  -0.856  -1.483  0.00  0.00    +0.027 A 
ATOM     29  C   UNL     1      -2.278  -0.322  -1.920  0.00  0.00    +0.020 A 
ATOM     30  C   UNL     1      -2.357   0.278  -3.167  0.00  0.00    +0.032 A 
ATOM     31  C   UNL     1      -1.244   0.353  -3.982  0.00  0.00    +0.041 A 
ATOM     32  C   UNL     1      -0.032  -0.184  -3.560  0.00  0.00    +0.057 A 
ATOM     33  N   UNL     1       1.215  -0.244  -4.174  0.00  0.00    -0.279 N 
ATOM     34  C   UNL     1       2.119  -0.858  -3.390  0.00  0.00    +0.269 C 
ATOM     35  O   UNL     1       3.288  -1.054  -3.664  0.00  0.00    -0.268 OA
ATOM     36 BR   UNL     1      -1.373   1.176  -5.679  0.00  0.00    -0.048 Br
ATOM     37 BR   UNL     1      -3.810  -0.409  -0.816  0.00  0.00    -0.050 Br
ATOM     38  H   UNL     1       1.408   0.111  -5.056  0.00  0.00    +0.155 HD
ENDBRANCH  23  25
ENDBRANCH   1  21
TORSDOF 6
