REMARK  Name = ZINC34793331
REMARK  9 active torsions:
REMARK  status: ('A' for Active; 'I' for Inactive)
REMARK    1  A    between atoms: C_1  and  C_2
REMARK    2  A    between atoms: C_2  and  N_3
REMARK    3  A    between atoms: C_6  and  C_11
REMARK    4  A    between atoms: N_21  and  C_23
REMARK    5  A    between atoms: C_23  and  C_24
REMARK    6  A    between atoms: N_26  and  C_27
REMARK    7  A    between atoms: C_27  and  C_28
REMARK    8  A    between atoms: C_28  and  C_29
REMARK    9  A    between atoms: C_29  and  C_30
REMARK                            x       y       z     vdW  Elec       q    Type
REMARK                         _______ _______ _______ _____ _____    ______ ____
ROOT
ATOM      1  N   UNL     1       0.688  -0.476  -1.203  0.00  0.00    -0.257 N 
ATOM      2  C   UNL     1      -0.057  -0.690  -2.328  0.00  0.00    +0.042 C 
ATOM      3  C   UNL     1       0.512  -1.125  -3.471  0.00  0.00    +0.058 C 
ATOM      4  C   UNL     1       2.007  -1.367  -3.465  0.00  0.00    +0.143 C 
ATOM      5  N   UNL     1       2.720  -1.107  -2.203  0.00  0.00    -0.288 N 
ATOM      6  C   UNL     1       2.012  -0.670  -1.144  0.00  0.00    +0.307 C 
ATOM      7  O   UNL     1       2.592  -0.448  -0.099  0.00  0.00    -0.252 OA
ATOM      8  C   UNL     1      -0.463  -1.267  -4.480  0.00  0.00    +0.247 C 
ATOM      9  O   UNL     1      -0.229  -1.644  -5.614  0.00  0.00    -0.270 OA
ATOM     10  N   UNL     1      -1.684  -0.932  -4.027  0.00  0.00    -0.283 N 
ATOM     11  C   UNL     1      -1.533  -0.536  -2.619  0.00  0.00    +0.160 C 
ATOM     12  H   UNL     1       3.679  -1.244  -2.137  0.00  0.00    +0.151 HD
ENDROOT
BRANCH   4  13
ATOM     13  C   UNL     1       2.246  -2.806  -3.845  0.00  0.00    -0.004 A 
ATOM     14  C   UNL     1       2.397  -3.765  -2.860  0.00  0.00    +0.008 A 
ATOM     15  C   UNL     1       2.616  -5.084  -3.208  0.00  0.00    +0.020 A 
ATOM     16  C   UNL     1       2.683  -5.447  -4.542  0.00  0.00    +0.042 A 
ATOM     17  C   UNL     1       2.531  -4.489  -5.527  0.00  0.00    +0.040 A 
ATOM     18  C   UNL     1       2.307  -3.169  -5.179  0.00  0.00    +0.048 A 
ATOM     19 CL   UNL     1       2.110  -1.966  -6.415  0.00  0.00    -0.083 Cl
ATOM     20 CL   UNL     1       2.958  -7.105  -4.978  0.00  0.00    -0.083 Cl
ENDBRANCH   4  13
BRANCH   1  22
ATOM     21  C   UNL     1      -0.019   1.526   0.010  0.00  0.00    +0.025 C 
ATOM     22  C   UNL     1       0.002  -0.004   0.002  0.00  0.00    +0.111 C 
ENDBRANCH   1  22
BRANCH  10  23
ATOM     23  C   UNL     1      -2.932  -0.957  -4.793  0.00  0.00    +0.204 C 
BRANCH  23  24
ATOM     24  C   UNL     1      -3.580  -2.310  -4.655  0.00  0.00    +0.230 C 
ATOM     25  O   UNL     1      -3.052  -3.170  -3.982  0.00  0.00    -0.274 OA
ATOM     26  N   UNL     1      -4.747  -2.566  -5.279  0.00  0.00    -0.314 N 
ATOM     27  H   UNL     1      -5.170  -1.879  -5.817  0.00  0.00    +0.149 HD
BRANCH  26  28
ATOM     28  C   UNL     1      -5.377  -3.882  -5.144  0.00  0.00    +0.104 C 
BRANCH  28  29
ATOM     29  C   UNL     1      -6.681  -3.908  -5.944  0.00  0.00    +0.023 C 
BRANCH  29  30
ATOM     30  C   UNL     1      -7.339  -5.282  -5.803  0.00  0.00    +0.036 C 
BRANCH  30  31
ATOM     31  C   UNL     1      -8.623  -5.307  -6.592  0.00  0.00    -0.047 A 
ATOM     32  C   UNL     1      -9.809  -4.928  -5.993  0.00  0.00    +0.003 A 
ATOM     33  C   UNL     1     -10.987  -4.951  -6.716  0.00  0.00    +0.000 A 
ATOM     34  C   UNL     1     -10.978  -5.353  -8.039  0.00  0.00    +0.000 A 
ATOM     35  C   UNL     1      -9.791  -5.732  -8.638  0.00  0.00    +0.000 A 
ATOM     36  C   UNL     1      -8.613  -5.704  -7.916  0.00  0.00    +0.003 A 
ENDBRANCH  30  31
ENDBRANCH  29  30
ENDBRANCH  28  29
ENDBRANCH  26  28
ENDBRANCH  23  24
ENDBRANCH  10  23
TORSDOF 8
