REMARK  Name = ZINC02209752
REMARK  13 active torsions:
REMARK  status: ('A' for Active; 'I' for Inactive)
REMARK    1  A    between atoms: C_1  and  C_2
REMARK    2  A    between atoms: C_2  and  C_3
REMARK    3  A    between atoms: C_3  and  C_4
REMARK    4  A    between atoms: C_4  and  O_5
REMARK    5  A    between atoms: O_5  and  C_6
REMARK    6  A    between atoms: C_6  and  C_8
REMARK    7  A    between atoms: C_9  and  N_31
REMARK    8  A    between atoms: C_11  and  C_30
REMARK    9  A    between atoms: C_12  and  C_24
REMARK   10  A    between atoms: C_24  and  O_26
REMARK   11  A    between atoms: O_26  and  C_27
REMARK   12  A    between atoms: C_27  and  C_28
REMARK   13  A    between atoms: C_27  and  C_29
REMARK                            x       y       z     vdW  Elec       q    Type
REMARK                         _______ _______ _______ _____ _____    ______ ____
ROOT
ATOM      1  C   UNL     1      -5.298  -2.032  -0.348  0.00  0.00    +0.117 C 
ATOM      2  C   UNL     1      -5.390  -3.131  -1.144  0.00  0.00    +0.195 C 
ATOM      3  O   UNL     1      -4.311  -3.870  -1.452  0.00  0.00    -0.446 OA
ATOM      4  C   UNL     1      -3.084  -3.349  -1.305  0.00  0.00    +0.116 C 
ATOM      5  C   UNL     1      -2.851  -2.279  -0.532  0.00  0.00    +0.098 C 
ATOM      6  C   UNL     1      -3.969  -1.612   0.215  0.00  0.00    +0.145 C 
ATOM      7  C   UNL     1      -3.889  -1.935   1.686  0.00  0.00    -0.001 A 
ATOM      8  C   UNL     1      -3.951  -3.113   2.394  0.00  0.00    +0.022 A 
ATOM      9  C   UNL     1      -3.844  -3.096   3.775  0.00  0.00    +0.018 A 
ATOM     10  C   UNL     1      -3.675  -1.893   4.437  0.00  0.00    +0.017 A 
ATOM     11  C   UNL     1      -3.612  -0.711   3.729  0.00  0.00    +0.025 A 
ATOM     12  C   UNL     1      -3.719  -0.720   2.340  0.00  0.00    +0.038 A 
ATOM     13  N   UNL     1      -3.685   0.326   1.415  0.00  0.00    -0.284 N 
ATOM     14  C   UNL     1      -3.825  -0.110   0.150  0.00  0.00    +0.237 C 
ATOM     15  O   UNL     1      -3.833   0.573  -0.852  0.00  0.00    -0.274 OA
ATOM     16 BR   UNL     1      -3.928  -4.713   4.752  0.00  0.00    -0.050 Br
ATOM     17  C   UNL     1      -1.930  -3.988  -2.033  0.00  0.00    +0.087 C 
ATOM     18  H   UNL     1      -3.575   1.258   1.657  0.00  0.00    +0.155 HD
ENDROOT
BRANCH   2  19
ATOM     19  N   UNL     1      -6.612  -3.494  -1.643  0.00  0.00    -0.329 N 
ATOM     20  H   UNL     1      -6.705  -4.318  -2.147  0.00  0.00    +0.145 HD
ATOM     21  H   UNL     1      -7.385  -2.928  -1.493  0.00  0.00    +0.145 HD
ENDBRANCH   2  19
BRANCH   1  22
ATOM     22  C   UNL     1      -6.451  -1.290  -0.048  0.00  0.00    +0.342 C 
ATOM     23  O   UNL     1      -6.997  -1.424   1.033  0.00  0.00    -0.245 OA
BRANCH  22  24
ATOM     24  O   UNL     1      -6.955  -0.428  -0.957  0.00  0.00    -0.461 OA
BRANCH  24  25
ATOM     25  C   UNL     1      -8.131   0.294  -0.584  0.00  0.00    +0.232 C 
BRANCH  25  26
ATOM     26  C   UNL     1      -8.550   1.214  -1.732  0.00  0.00    +0.041 C 
BRANCH  26  28
ATOM     27  C   UNL     1     -10.228   2.907  -2.481  0.00  0.00    +0.004 C 
ATOM     28  C   UNL     1      -9.808   1.987  -1.332  0.00  0.00    -0.000 C 
ENDBRANCH  26  28
ENDBRANCH  25  26
ENDBRANCH  24  25
ENDBRANCH  22  24
ENDBRANCH   1  22
BRANCH   5  29
ATOM     29  C   UNL     1      -1.532  -1.776  -0.413  0.00  0.00    +0.340 C 
ATOM     30  O   UNL     1      -0.856  -2.064   0.557  0.00  0.00    -0.245 OA
BRANCH  29  31
ATOM     31  O   UNL     1      -1.025  -0.979  -1.375  0.00  0.00    -0.459 OA
BRANCH  31  32
ATOM     32  C   UNL     1       0.312  -0.507  -1.190  0.00  0.00    +0.171 C 
ATOM     33  C   UNL     1       0.973  -0.300  -2.554  0.00  0.00    +0.052 C 
ATOM     34  C   UNL     1       0.284   0.820  -0.429  0.00  0.00    +0.052 C 
ENDBRANCH  31  32
ENDBRANCH  29  31
ENDBRANCH   5  29
TORSDOF 9
