REMARK  Name = ZINC16988865
REMARK  9 active torsions:
REMARK  status: ('A' for Active; 'I' for Inactive)
REMARK    1  A    between atoms: C_1  and  C_2
REMARK    2  A    between atoms: C_2  and  C_4
REMARK    3  A    between atoms: C_2  and  S_17
REMARK    4  A    between atoms: N_6  and  C_7
REMARK    5  A    between atoms: C_12  and  O_13
REMARK    6  A    between atoms: O_13  and  C_14
REMARK    7  A    between atoms: S_17  and  C_18
REMARK    8  A    between atoms: C_21  and  C_24
REMARK    9  A    between atoms: N_22  and  N_23
REMARK                            x       y       z     vdW  Elec       q    Type
REMARK                         _______ _______ _______ _____ _____    ______ ____
ROOT
ATOM      1  C   UNL     1       6.846   5.987  -0.705  0.00  0.00    +0.029 C 
ATOM      2  C   UNL     1       6.357   6.585   0.616  0.00  0.00    +0.137 C 
ENDROOT
BRANCH   2   3
ATOM      3  C   UNL     1       7.193   7.790   0.962  0.00  0.00    +0.230 C 
ATOM      4  O   UNL     1       6.773   8.905   0.735  0.00  0.00    -0.274 OA
ATOM      5  N   UNL     1       8.407   7.629   1.523  0.00  0.00    -0.282 N 
ATOM      6  H   UNL     1       8.770   6.738   1.648  0.00  0.00    +0.155 HD
BRANCH   5   7
ATOM      7  C   UNL     1       9.147   8.749   1.928  0.00  0.00    +0.076 A 
ATOM      8  C   UNL     1       8.961   9.970   1.296  0.00  0.00    +0.027 A 
ATOM      9  C   UNL     1       9.687  11.074   1.700  0.00  0.00    +0.002 A 
ATOM     10  C   UNL     1      10.607  10.963   2.726  0.00  0.00    +0.004 A 
ATOM     11  C   UNL     1      10.802   9.748   3.357  0.00  0.00    +0.048 A 
ATOM     12  C   UNL     1      10.073   8.637   2.961  0.00  0.00    +0.148 A 
BRANCH  12  13
ATOM     13  O   UNL     1      10.264   7.442   3.580  0.00  0.00    -0.432 OA
BRANCH  13  14
ATOM     14  C   UNL     1      11.230   7.402   4.632  0.00  0.00    +0.541 C 
ATOM     15  F   UNL     1      12.483   7.768   4.128  0.00  0.00    -0.166 F 
ATOM     16  F   UNL     1      10.856   8.294   5.643  0.00  0.00    -0.166 F 
ENDBRANCH  13  14
ENDBRANCH  12  13
ENDBRANCH   5   7
ENDBRANCH   2   3
BRANCH   2  17
ATOM     17  S   UNL     1       4.624   7.081   0.449  0.00  0.00    -0.072 S 
BRANCH  17  18
ATOM     18  C   UNL     1       3.877   5.504   0.203  0.00  0.00    +0.209 A 
ATOM     19  N   UNL     1       4.496   4.345   0.168  0.00  0.00    -0.121 NA
ATOM     20  N   UNL     1       3.649   3.399  -0.029  0.00  0.00    -0.127 NA
ATOM     21  C   UNL     1       2.438   3.895  -0.132  0.00  0.00    +0.183 A 
ATOM     22  N   UNL     1       2.547   5.259   0.009  0.00  0.00    -0.224 N 
BRANCH  21  23
ATOM     23  C   UNL     1       1.192   3.132  -0.360  0.00  0.00    +0.035 A 
ATOM     24  C   UNL     1       0.283   3.550  -1.334  0.00  0.00    +0.013 A 
ATOM     25  C   UNL     1      -0.877   2.834  -1.542  0.00  0.00    +0.001 A 
ATOM     26  C   UNL     1      -1.144   1.707  -0.784  0.00  0.00    +0.001 A 
ATOM     27  C   UNL     1      -0.246   1.284   0.178  0.00  0.00    +0.016 A 
ATOM     28  C   UNL     1       0.920   1.991   0.397  0.00  0.00    +0.029 A 
ATOM     29 BR   UNL     1       2.144   1.415   1.718  0.00  0.00    -0.050 Br
ENDBRANCH  21  23
BRANCH  22  30
ATOM     30  N   UNL     1       1.537   6.177  -0.036  0.00  0.00    -0.295 N 
ATOM     31  H   UNL     1       1.207   6.397   0.892  0.00  0.00    +0.163 HD
ATOM     32  H   UNL     1       1.827   7.011  -0.523  0.00  0.00    +0.163 HD
ENDBRANCH  22  30
ENDBRANCH  17  18
ENDBRANCH   2  17
TORSDOF 8
