REMARK  Name = ZINC54414037
REMARK  4 active torsions:
REMARK  status: ('A' for Active; 'I' for Inactive)
REMARK    1  A    between atoms: C_1  and  C_2
REMARK    2  A    between atoms: C_5  and  N_9
REMARK    3  A    between atoms: C_10  and  C_14
REMARK    4  A    between atoms: C_17  and  N_21
REMARK                            x       y       z     vdW  Elec       q    Type
REMARK                         _______ _______ _______ _____ _____    ______ ____
ROOT
ATOM      1  N   UNL     1      -0.121  -4.191  -0.006  0.00  0.00    -0.190 N 
ATOM      2  C   UNL     1       0.165  -5.010   1.048  0.00  0.00    +0.187 A 
ATOM      3  N   UNL     1       0.316  -6.224   0.559  0.00  0.00    -0.108 NA
ATOM      4  N   UNL     1       0.145  -6.221  -0.714  0.00  0.00    -0.022 NA
ATOM      5  N   UNL     1      -0.128  -5.033  -1.132  0.00  0.00    -0.039 NA
ENDROOT
BRANCH   1  10
ATOM      6  C   UNL     1      -1.098   1.400   0.135  0.00  0.00    +0.044 C 
ATOM      7  C   UNL     1      -0.838  -0.084   0.097  0.00  0.00    -0.048 A 
ATOM      8  C   UNL     1      -1.608  -0.939   0.863  0.00  0.00    +0.005 A 
ATOM      9  C   UNL     1      -1.373  -2.300   0.831  0.00  0.00    +0.031 A 
ATOM     10  C   UNL     1      -0.362  -2.810   0.028  0.00  0.00    +0.105 A 
ATOM     11  C   UNL     1       0.411  -1.949  -0.742  0.00  0.00    +0.149 A 
ATOM     12  C   UNL     1       0.167  -0.588  -0.709  0.00  0.00    +0.044 A 
ATOM     13  F   UNL     1       1.397  -2.441  -1.524  0.00  0.00    -0.203 F 
ENDBRANCH   1  10
BRANCH   2  14
ATOM     14  C   UNL     1       0.284  -4.611   2.466  0.00  0.00    +0.024 A 
ATOM     15  C   UNL     1       0.500  -3.272   2.800  0.00  0.00    +0.013 A 
ATOM     16  C   UNL     1       0.611  -2.902   4.123  0.00  0.00    +0.026 A 
ATOM     17  C   UNL     1       0.508  -3.860   5.126  0.00  0.00    +0.060 A 
ATOM     18  C   UNL     1       0.293  -5.196   4.797  0.00  0.00    +0.145 A 
ATOM     19  C   UNL     1       0.175  -5.570   3.474  0.00  0.00    +0.052 A 
ATOM     20  F   UNL     1       0.193  -6.124   5.773  0.00  0.00    -0.204 F 
BRANCH  17  21
ATOM     21  N   UNL     1       0.621  -3.482   6.465  0.00  0.00    -0.356 N 
ATOM     22  H   UNL     1       0.772  -2.551   6.695  0.00  0.00    +0.142 HD
ATOM     23  H   UNL     1       0.550  -4.149   7.165  0.00  0.00    +0.142 HD
ENDBRANCH  17  21
ENDBRANCH   2  14
TORSDOF 3
