REMARK  Name = ZINC01175518
REMARK  6 active torsions:
REMARK  status: ('A' for Active; 'I' for Inactive)
REMARK    1  A    between atoms: C_1  and  C_2
REMARK    2  A    between atoms: C_3  and  C_30
REMARK    3  A    between atoms: C_4  and  C_21
REMARK    4  A    between atoms: C_10  and  C_15
REMARK    5  A    between atoms: C_24  and  N_27
REMARK    6  A    between atoms: N_32  and  C_33
REMARK                            x       y       z     vdW  Elec       q    Type
REMARK                         _______ _______ _______ _____ _____    ______ ____
ROOT
ATOM      1  C   UNL     1       6.377   6.350  -3.792  0.00  0.00    +0.061 C 
ATOM      2  C   UNL     1       5.651   6.394  -2.472  0.00  0.00    +0.014 C 
ATOM      3  C   UNL     1       6.299   6.796  -1.367  0.00  0.00    +0.043 C 
ATOM      4  C   UNL     1       5.607   6.859  -0.037  0.00  0.00    +0.090 C 
ATOM      5  C   UNL     1       4.340   6.042  -0.048  0.00  0.00    +0.024 C 
ATOM      6  C   UNL     1       3.766   5.675  -1.213  0.00  0.00    +0.016 C 
ATOM      7  N   UNL     1       4.335   6.024  -2.408  0.00  0.00    -0.321 N 
ATOM      8  C   UNL     1       2.488   4.872  -1.231  0.00  0.00    +0.059 C 
ATOM      9  C   UNL     1       2.430   3.972   0.004  0.00  0.00    +0.032 C 
ATOM     10  C   UNL     1       2.516   4.854   1.254  0.00  0.00    +0.088 C 
ATOM     11  C   UNL     1       3.774   5.677   1.186  0.00  0.00    +0.162 C 
ATOM     12  O   UNL     1       4.310   6.033   2.217  0.00  0.00    -0.292 OA
ATOM     13  H   UNL     1       3.724   6.005  -3.322  0.00  0.00    +0.152 HD
ENDROOT
BRANCH   9  14
ATOM     14  C   UNL     1       1.131   3.208   0.013  0.00  0.00    -0.044 A 
ATOM     15  C   UNL     1       1.142   1.825   0.012  0.00  0.00    +0.004 A 
ATOM     16  C   UNL     1      -0.050   1.125   0.021  0.00  0.00    +0.000 A 
ATOM     17  C   UNL     1      -1.253   1.807   0.024  0.00  0.00    +0.000 A 
ATOM     18  C   UNL     1      -1.264   3.189   0.029  0.00  0.00    +0.000 A 
ATOM     19  C   UNL     1      -0.072   3.889   0.021  0.00  0.00    +0.004 A 
ENDBRANCH   9  14
BRANCH   4  20
ATOM     20  C   UNL     1       5.269   8.293   0.277  0.00  0.00    -0.035 A 
ATOM     21  C   UNL     1       4.422   9.001  -0.555  0.00  0.00    +0.007 A 
ATOM     22  C   UNL     1       4.108  10.316  -0.265  0.00  0.00    +0.033 A 
ATOM     23  C   UNL     1       4.648  10.925   0.852  0.00  0.00    +0.126 A 
ATOM     24  C   UNL     1       5.499  10.219   1.681  0.00  0.00    +0.033 A 
ATOM     25  C   UNL     1       5.809   8.903   1.394  0.00  0.00    +0.007 A 
BRANCH  23  26
ATOM     26  N   UNL     1       4.316  12.335   1.159  0.00  0.00    +0.056 N 
ATOM     27  O   UNL     1       4.793  12.872   2.143  0.00  0.00    -0.126 OA
ATOM     28  O   UNL     1       3.566  12.957   0.428  0.00  0.00    -0.126 OA
ENDBRANCH  23  26
ENDBRANCH   4  20
BRANCH   3  29
ATOM     29  C   UNL     1       7.663   7.168  -1.458  0.00  0.00    +0.247 C 
ATOM     30  O   UNL     1       8.236   7.121  -2.532  0.00  0.00    -0.270 OA
ATOM     31  N   UNL     1       8.326   7.574  -0.357  0.00  0.00    -0.282 N 
ATOM     32  H   UNL     1       7.791   7.688   0.596  0.00  0.00    +0.155 HD
BRANCH  31  33
ATOM     33  C   UNL     1       9.697   7.849  -0.428  0.00  0.00    +0.034 A 
ATOM     34  C   UNL     1      10.520   7.563   0.653  0.00  0.00    +0.026 A 
ATOM     35  C   UNL     1      11.873   7.831   0.580  0.00  0.00    +0.040 A 
ATOM     36  C   UNL     1      12.407   8.393  -0.567  0.00  0.00    +0.124 A 
ATOM     37  C   UNL     1      11.587   8.684  -1.645  0.00  0.00    +0.040 A 
ATOM     38  C   UNL     1      10.235   8.414  -1.577  0.00  0.00    +0.026 A 
ATOM     39  F   UNL     1      13.730   8.659  -0.635  0.00  0.00    -0.205 F 
ENDBRANCH  31  33
ENDBRANCH   3  29
TORSDOF 5
