REMARK  Name = ZINC13494568
REMARK  18 active torsions:
REMARK  status: ('A' for Active; 'I' for Inactive)
REMARK    1  A    between atoms: C_1  and  C_2
REMARK    2  A    between atoms: C_2  and  C_3
REMARK    3  A    between atoms: C_3  and  C_5
REMARK    4  A    between atoms: C_3  and  N_76
REMARK    5  A    between atoms: N_9  and  C_10
REMARK    6  A    between atoms: C_10  and  C_11
REMARK    7  A    between atoms: C_10  and  C_12
REMARK    8  A    between atoms: C_10  and  C_13
REMARK    9  A    between atoms: C_14  and  C_15
REMARK   10  A    between atoms: C_14  and  N_76
REMARK   11  A    between atoms: C_15  and  C_16
REMARK   12  A    between atoms: C_19  and  O_24
REMARK   13  A    between atoms: C_20  and  O_22
REMARK   14  A    between atoms: O_22  and  C_23
REMARK   15  A    between atoms: O_24  and  C_25
REMARK   16  A    between atoms: C_26  and  C_27
REMARK   17  A    between atoms: C_26  and  N_76
REMARK   18  A    between atoms: C_33  and  C_39
REMARK                            x       y       z     vdW  Elec       q    Type
REMARK                         _______ _______ _______ _____ _____    ______ ____
ROOT
ATOM      1  N   UNL     1       1.141  -2.881   4.847  0.00  0.00    +0.389 N 
ATOM      2  H   UNL     1       1.469  -1.995   5.249  0.00  0.00    -0.080 HD
ENDROOT
BRANCH   1   3
ATOM      3  C   UNL     1       1.885  -3.146   3.598  0.00  0.00    +0.003 C 
BRANCH   3   4
ATOM      4  C   UNL     1       3.227  -2.466   3.687  0.00  0.00    +0.139 A 
ATOM      5  N   UNL     1       3.959  -2.317   4.763  0.00  0.00    -0.115 NA
ATOM      6  N   UNL     1       5.033  -1.688   4.431  0.00  0.00    -0.023 NA
ATOM      7  N   UNL     1       5.005  -1.431   3.170  0.00  0.00    -0.043 NA
ATOM      8  N   UNL     1       3.910  -1.900   2.674  0.00  0.00    -0.226 N 
BRANCH   8   9
ATOM      9  C   UNL     1       3.487  -1.827   1.273  0.00  0.00    +0.059 C 
ATOM     10  C   UNL     1       2.285  -0.888   1.152  0.00  0.00    +0.036 C 
ATOM     11  C   UNL     1       4.639  -1.293   0.420  0.00  0.00    +0.036 C 
ATOM     12  C   UNL     1       3.095  -3.223   0.785  0.00  0.00    +0.036 C 
ENDBRANCH   8   9
ENDBRANCH   3   4
BRANCH   3  14
ATOM     13  C   UNL     1       0.734  -5.318   3.151  0.00  0.00    +0.002 C 
ATOM     14  C   UNL     1       2.086  -4.651   3.407  0.00  0.00    -0.011 C 
ENDBRANCH   3  14
ENDBRANCH   1   3
BRANCH   1  15
ATOM     15  C   UNL     1       1.383  -3.968   5.819  0.00  0.00    -0.073 C 
BRANCH  15  16
ATOM     16  C   UNL     1       2.822  -3.861   6.329  0.00  0.00    +0.017 C 
BRANCH  16  17
ATOM     17  C   UNL     1       3.032  -4.846   7.450  0.00  0.00    -0.045 A 
ATOM     18  C   UNL     1       2.791  -4.466   8.757  0.00  0.00    +0.007 A 
ATOM     19  C   UNL     1       2.977  -5.368   9.788  0.00  0.00    +0.049 A 
ATOM     20  C   UNL     1       3.417  -6.653   9.513  0.00  0.00    +0.161 A 
ATOM     21  C   UNL     1       3.665  -7.034   8.198  0.00  0.00    +0.162 A 
ATOM     22  C   UNL     1       3.471  -6.127   7.169  0.00  0.00    +0.053 A 
BRANCH  21  23
ATOM     23  O   UNL     1       4.096  -8.294   7.923  0.00  0.00    -0.491 OA
ATOM     24  C   UNL     1       4.330  -8.615   6.551  0.00  0.00    +0.277 C 
ENDBRANCH  21  23
BRANCH  20  25
ATOM     25  O   UNL     1       3.606  -7.540  10.527  0.00  0.00    -0.491 OA
ATOM     26  C   UNL     1       3.331  -7.079  11.851  0.00  0.00    +0.277 C 
ENDBRANCH  20  25
ENDBRANCH  16  17
ENDBRANCH  15  16
ENDBRANCH   1  15
BRANCH   1  27
ATOM     27  C   UNL     1      -0.305  -2.772   4.561  0.00  0.00    -0.037 C 
BRANCH  27  28
ATOM     28  C   UNL     1      -0.557  -1.486   3.816  0.00  0.00    +0.001 A 
ATOM     29  C   UNL     1      -0.738  -1.508   2.473  0.00  0.00    +0.017 A 
ATOM     30  C   UNL     1      -0.981  -0.242   1.779  0.00  0.00    -0.001 A 
ATOM     31  C   UNL     1      -1.174  -0.201   0.394  0.00  0.00    +0.010 A 
ATOM     32  C   UNL     1      -1.398   0.997  -0.223  0.00  0.00    +0.001 A 
ATOM     33  C   UNL     1      -1.442   2.174   0.513  0.00  0.00    +0.005 A 
ATOM     34  C   UNL     1      -1.248   2.158   1.877  0.00  0.00    -0.026 A 
ATOM     35  C   UNL     1      -1.018   0.950   2.527  0.00  0.00    +0.052 A 
ATOM     36  N   UNL     1      -0.826   0.904   3.892  0.00  0.00    -0.322 N 
ATOM     37  H   UNL     1      -0.852   1.726   4.406  0.00  0.00    +0.169 HD
ATOM     38  C   UNL     1      -0.604  -0.264   4.520  0.00  0.00    +0.251 A 
ATOM     39  O   UNL     1      -0.438  -0.267   5.728  0.00  0.00    -0.268 OA
ATOM     40  C   UNL     1      -1.291   3.443   2.662  0.00  0.00    +0.046 C 
ENDBRANCH  27  28
ENDBRANCH   1  27
TORSDOF 11
