REMARK  Name = ZINC13597849
REMARK  6 active torsions:
REMARK  status: ('A' for Active; 'I' for Inactive)
REMARK    1  A    between atoms: C_4  and  C_7
REMARK    2  A    between atoms: C_10  and  C_26
REMARK    3  A    between atoms: C_13  and  C_15
REMARK    4  A    between atoms: C_15  and  S_16
REMARK    5  A    between atoms: S_16  and  C_17
REMARK    6  A    between atoms: C_23  and  N_25
REMARK                            x       y       z     vdW  Elec       q    Type
REMARK                         _______ _______ _______ _____ _____    ______ ____
ROOT
ATOM      1  C   UNL     1      -3.922   9.127   0.091  0.00  0.00    +0.137 C 
ATOM      2  C   UNL     1      -5.461   9.041   0.100  0.00  0.00    +0.087 C 
ATOM      3  C   UNL     1      -5.743   7.556   0.096  0.00  0.00    +0.069 C 
ATOM      4  N   UNL     1      -4.630   6.907   0.082  0.00  0.00    -0.181 NA
ATOM      5  N   UNL     1      -3.498   7.718   0.074  0.00  0.00    -0.184 N 
ATOM      6  C   UNL     1      -2.222   7.284   0.060  0.00  0.00    +0.246 C 
ATOM      7  O   UNL     1      -1.310   8.083   0.055  0.00  0.00    -0.273 OA
ENDROOT
BRANCH   3   8
ATOM      8  C   UNL     1      -7.085   6.944   0.107  0.00  0.00    -0.002 A 
ATOM      9  C   UNL     1      -8.227   7.766   0.122  0.00  0.00    +0.010 A 
ATOM     10  C   UNL     1      -9.472   7.227   0.132  0.00  0.00    +0.009 A 
ATOM     11  C   UNL     1      -9.634   5.829   0.127  0.00  0.00    -0.018 A 
ATOM     12  C   UNL     1     -10.913   5.248   0.136  0.00  0.00    +0.008 A 
ATOM     13  C   UNL     1     -11.039   3.893   0.130  0.00  0.00    +0.001 A 
ATOM     14  C   UNL     1      -9.916   3.067   0.115  0.00  0.00    +0.001 A 
ATOM     15  C   UNL     1      -8.661   3.593   0.105  0.00  0.00    +0.008 A 
ATOM     16  C   UNL     1      -8.492   4.990   0.111  0.00  0.00    -0.017 A 
ATOM     17  C   UNL     1      -7.212   5.564   0.096  0.00  0.00    +0.018 A 
ENDBRANCH   3   8
BRANCH   1  21
ATOM     18  C   UNL     1      -2.499  11.085   3.611  0.00  0.00    +0.000 A 
ATOM     19  C   UNL     1      -2.510  11.757   2.403  0.00  0.00    +0.000 A 
ATOM     20  C   UNL     1      -2.971  11.123   1.264  0.00  0.00    +0.005 A 
ATOM     21  C   UNL     1      -3.420   9.818   1.332  0.00  0.00    -0.025 A 
ATOM     22  C   UNL     1      -3.414   9.147   2.541  0.00  0.00    +0.005 A 
ATOM     23  C   UNL     1      -2.949   9.779   3.680  0.00  0.00    +0.000 A 
ENDBRANCH   1  21
BRANCH   6  24
ATOM     24  C   UNL     1      -1.930   5.806   0.050  0.00  0.00    +0.175 C 
BRANCH  24  25
ATOM     25  S   UNL     1      -0.139   5.545   0.032  0.00  0.00    -0.078 S 
BRANCH  25  26
ATOM     26  C   UNL     1      -0.086   3.784   0.023  0.00  0.00    +0.171 A 
ATOM     27  N   UNL     1       1.121   3.152   0.008  0.00  0.00    -0.302 N 
ATOM     28  H   UNL     1       2.050   3.742   0.003  0.00  0.00    +0.171 HD
ATOM     29  C   UNL     1       1.181   1.804   0.001  0.00  0.00    +0.254 A 
ATOM     30  O   UNL     1       2.258   1.231  -0.013  0.00  0.00    -0.268 OA
ATOM     31  C   UNL     1      -0.013   1.076   0.008  0.00  0.00    +0.113 A 
ATOM     32  C   UNL     1      -1.216   1.767   0.017  0.00  0.00    +0.124 A 
ATOM     33  N   UNL     1      -1.214   3.104   0.030  0.00  0.00    -0.209 NA
BRANCH  32  34
ATOM     34  N   UNL     1      -2.412   1.076   0.019  0.00  0.00    -0.343 N 
ATOM     35  H   UNL     1      -3.365   1.625   0.026  0.00  0.00    +0.144 HD
ATOM     36  H   UNL     1      -2.411  -0.024   0.012  0.00  0.00    +0.144 HD
ENDBRANCH  32  34
ENDBRANCH  25  26
ENDBRANCH  24  25
ENDBRANCH   6  24
TORSDOF 6
