REMARK  Name = ZINC65003561
REMARK  6 active torsions:
REMARK  status: ('A' for Active; 'I' for Inactive)
REMARK    1  A    between atoms: C_1  and  C_2
REMARK    2  A    between atoms: C_8  and  C_20
REMARK    3  A    between atoms: C_12  and  C_14
REMARK    4  A    between atoms: C_20  and  N_21
REMARK    5  A    between atoms: N_21  and  S_22
REMARK    6  A    between atoms: S_22  and  C_25
REMARK                            x       y       z     vdW  Elec       q    Type
REMARK                         _______ _______ _______ _____ _____    ______ ____
ROOT
ATOM      1  C   UNL     1      -0.005   1.537   0.015  0.00  0.00    +0.029 C 
ATOM      2  C   UNL     1       0.009   0.007   0.002  0.00  0.00    +0.083 C 
ATOM      3  C   UNL     1       0.676  -0.510  -1.284  0.00  0.00    +0.059 C 
ATOM      4  C   UNL     1       1.871  -1.300  -0.801  0.00  0.00    -0.024 A 
ATOM      5  C   UNL     1       2.841  -1.994  -1.500  0.00  0.00    +0.006 A 
ATOM      6  C   UNL     1       3.851  -2.648  -0.820  0.00  0.00    +0.005 A 
ATOM      7  C   UNL     1       3.890  -2.607   0.562  0.00  0.00    -0.030 A 
ATOM      8  C   UNL     1       2.925  -1.916   1.263  0.00  0.00    +0.028 A 
ATOM      9  C   UNL     1       1.901  -1.252   0.584  0.00  0.00    +0.040 A 
ATOM     10  N   UNL     1       0.836  -0.504   1.098  0.00  0.00    -0.264 N 
ATOM     11  C   UNL     1       0.605  -0.285   2.407  0.00  0.00    +0.251 C 
ATOM     12  O   UNL     1       1.402  -0.672   3.239  0.00  0.00    -0.270 OA
ENDROOT
BRANCH  11  13
ATOM     13  C   UNL     1      -0.620   0.427   2.833  0.00  0.00    +0.037 A 
ATOM     14  C   UNL     1      -1.592   0.772   1.893  0.00  0.00    +0.013 A 
ATOM     15  C   UNL     1      -2.732   1.435   2.296  0.00  0.00    +0.001 A 
ATOM     16  C   UNL     1      -2.913   1.758   3.629  0.00  0.00    +0.000 A 
ATOM     17  C   UNL     1      -1.953   1.419   4.566  0.00  0.00    +0.001 A 
ATOM     18  C   UNL     1      -0.811   0.751   4.177  0.00  0.00    +0.013 A 
ENDBRANCH  11  13
BRANCH   7  19
ATOM     19  C   UNL     1       4.991  -3.320   1.303  0.00  0.00    +0.141 C 
BRANCH  19  20
ATOM     20  N   UNL     1       6.124  -2.410   1.488  0.00  0.00    -0.186 NA
ATOM     21  H   UNL     1       6.177  -1.590   0.973  0.00  0.00    +0.148 HD
BRANCH  20  22
ATOM     22  S   UNL     1       7.316  -2.782   2.577  0.00  0.00    +0.061 S 
ATOM     23  O   UNL     1       8.272  -1.734   2.506  0.00  0.00    -0.153 OA
ATOM     24  O   UNL     1       6.663  -3.137   3.788  0.00  0.00    -0.153 OA
BRANCH  22  25
ATOM     25  C   UNL     1       8.119  -4.237   1.993  0.00  0.00    +0.133 A 
ATOM     26  C   UNL     1       9.419  -4.187   1.619  0.00  0.00    +0.031 A 
ATOM     27  C   UNL     1      10.088  -5.319   1.153  0.00  0.00    +0.004 A 
ATOM     28  C   UNL     1       9.465  -6.517   1.053  0.00  0.00    +0.031 A 
ATOM     29  C   UNL     1       8.100  -6.645   1.428  0.00  0.00    +0.102 A 
ATOM     30  C   UNL     1       7.403  -5.463   1.921  0.00  0.00    +0.126 A 
ATOM     31  N   UNL     1       6.132  -5.701   2.247  0.00  0.00    -0.189 NA
ATOM     32  S   UNL     1       5.894  -7.265   1.951  0.00  0.00    +0.117 S 
ATOM     33  N   UNL     1       7.330  -7.734   1.398  0.00  0.00    -0.191 NA
ENDBRANCH  22  25
ENDBRANCH  20  22
ENDBRANCH  19  20
ENDBRANCH   7  19
TORSDOF 5
