REMARK  Name = ZINC39984216
REMARK  8 active torsions:
REMARK  status: ('A' for Active; 'I' for Inactive)
REMARK    1  A    between atoms: C_1  and  O_2
REMARK    2  A    between atoms: O_2  and  C_3
REMARK    3  A    between atoms: C_6  and  O_31
REMARK    4  A    between atoms: C_9  and  C_14
REMARK    5  A    between atoms: N_16  and  C_17
REMARK    6  A    between atoms: C_17  and  C_18
REMARK    7  A    between atoms: C_18  and  N_20
REMARK    8  A    between atoms: O_31  and  C_32
REMARK                            x       y       z     vdW  Elec       q    Type
REMARK                         _______ _______ _______ _____ _____    ______ ____
ROOT
ATOM      1  C   UNL     1       2.847  -3.444   1.232  0.00  0.00    +0.234 C 
ATOM      2  O   UNL     1       2.586  -2.600   2.062  0.00  0.00    -0.274 OA
ATOM      3  N   UNL     1       3.993  -4.147   1.323  0.00  0.00    -0.305 N 
ATOM      4  H   UNL     1       4.202  -4.823   0.659  0.00  0.00    +0.149 HD
ENDROOT
BRANCH   1  11
ATOM      5  C   UNL     1       0.556  -0.652  -1.025  0.00  0.00    +0.119 C 
ATOM      6  C   UNL     1       1.097   0.081  -2.011  0.00  0.00    +0.046 C 
ATOM      7  C   UNL     1       1.748  -0.504  -3.180  0.00  0.00    +0.049 C 
ATOM      8  C   UNL     1       2.188  -1.802  -3.139  0.00  0.00    +0.125 C 
ATOM      9  C   UNL     1       1.887  -2.493  -1.870  0.00  0.00    +0.017 C 
ATOM     10  C   UNL     1       2.565  -3.413  -1.221  0.00  0.00    +0.010 C 
ATOM     11  C   UNL     1       1.891  -3.706   0.097  0.00  0.00    +0.165 C 
ATOM     12  N   UNL     1       0.725  -2.805   0.199  0.00  0.00    -0.289 NA
ATOM     13  C   UNL     1       0.625  -2.154  -1.102  0.00  0.00    +0.154 C 
ATOM     14  H   UNL     1      -0.115  -3.323   0.414  0.00  0.00    +0.124 HD
BRANCH   5  16
ATOM     15  C   UNL     1      -0.064   1.382   0.031  0.00  0.00    +0.276 C 
ATOM     16  O   UNL     1      -0.039  -0.047   0.032  0.00  0.00    -0.497 OA
ENDBRANCH   5  16
BRANCH   8  17
ATOM     17  O   UNL     1       2.842  -2.397  -4.172  0.00  0.00    -0.495 OA
ATOM     18  C   UNL     1       3.065  -1.606  -5.341  0.00  0.00    +0.277 C 
ENDBRANCH   8  17
ENDBRANCH   1  11
BRANCH   3  19
ATOM     19  C   UNL     1       4.923  -3.893   2.426  0.00  0.00    +0.202 C 
BRANCH  19  20
ATOM     20  C   UNL     1       6.116  -4.804   2.298  0.00  0.00    +0.256 C 
ATOM     21  O   UNL     1       6.183  -5.592   1.374  0.00  0.00    -0.272 OA
BRANCH  20  22
ATOM     22  N   UNL     1       7.095  -4.748   3.195  0.00  0.00    -0.155 NA
ATOM     23  C   UNL     1       8.097  -5.622   3.143  0.00  0.00    +0.164 A 
ATOM     24  N   UNL     1       8.337  -6.557   2.189  0.00  0.00    -0.335 N 
ATOM     25  H   UNL     1       7.739  -6.642   1.430  0.00  0.00    +0.168 HD
ATOM     26  C   UNL     1       9.437  -7.386   2.300  0.00  0.00    +0.055 A 
ATOM     27  C   UNL     1       9.868  -8.406   1.440  0.00  0.00    +0.027 A 
ATOM     28  C   UNL     1      11.002  -9.131   1.725  0.00  0.00    +0.002 A 
ATOM     29  C   UNL     1      11.748  -8.876   2.864  0.00  0.00    +0.001 A 
ATOM     30  C   UNL     1      11.344  -7.874   3.729  0.00  0.00    +0.017 A 
ATOM     31  C   UNL     1      10.211  -7.149   3.445  0.00  0.00    +0.039 A 
ATOM     32  S   UNL     1       9.356  -5.815   4.240  0.00  0.00    -0.052 S 
ENDBRANCH  20  22
ENDBRANCH  19  20
ENDBRANCH   3  19
TORSDOF 6
