REMARK  Name = ZINC40797341
REMARK  8 active torsions:
REMARK  status: ('A' for Active; 'I' for Inactive)
REMARK    1  A    between atoms: C_1  and  C_2
REMARK    2  A    between atoms: C_2  and  N_3
REMARK    3  A    between atoms: C_11  and  C_14
REMARK    4  A    between atoms: C_11  and  C_15
REMARK    5  A    between atoms: N_17  and  C_18
REMARK    6  A    between atoms: C_26  and  C_27
REMARK    7  A    between atoms: C_27  and  C_29
REMARK    8  A    between atoms: C_32  and  C_35
REMARK                            x       y       z     vdW  Elec       q    Type
REMARK                         _______ _______ _______ _____ _____    ______ ____
ROOT
ATOM      1  C   UNL     1      -4.269   0.122  -0.865  0.00  0.00    +0.270 C 
ATOM      2  O   UNL     1      -3.754   1.194  -1.100  0.00  0.00    -0.271 OA
ATOM      3  N   UNL     1      -5.593   0.050  -0.619  0.00  0.00    -0.278 N 
ATOM      4  H   UNL     1      -6.019  -0.815  -0.507  0.00  0.00    +0.155 HD
ENDROOT
BRANCH   1  13
ATOM      5  N   UNL     1      -1.592  -0.680   0.744  0.00  0.00    -0.265 N 
ATOM      6  C   UNL     1      -2.475  -1.047   1.768  0.00  0.00    +0.078 A 
ATOM      7  C   UNL     1      -2.180  -0.757   3.091  0.00  0.00    +0.027 A 
ATOM      8  C   UNL     1      -3.068  -1.114   4.088  0.00  0.00    +0.002 A 
ATOM      9  C   UNL     1      -4.249  -1.759   3.770  0.00  0.00    +0.004 A 
ATOM     10  C   UNL     1      -4.547  -2.057   2.453  0.00  0.00    +0.047 A 
ATOM     11  C   UNL     1      -3.660  -1.707   1.449  0.00  0.00    +0.144 A 
ATOM     12  O   UNL     1      -3.927  -2.022   0.153  0.00  0.00    -0.465 OA
ATOM     13  C   UNL     1      -3.430  -1.130  -0.847  0.00  0.00    +0.258 C 
ATOM     14  C   UNL     1      -2.001  -0.764  -0.540  0.00  0.00    +0.273 C 
ATOM     15  O   UNL     1      -1.219  -0.551  -1.443  0.00  0.00    -0.270 OA
ATOM     16  C   UNL     1      -3.502  -1.809  -2.216  0.00  0.00    +0.076 C 
BRANCH   5  18
ATOM     17  C   UNL     1      -0.267   1.315   1.242  0.00  0.00    +0.025 C 
ATOM     18  C   UNL     1      -0.243  -0.205   1.063  0.00  0.00    +0.110 C 
ENDBRANCH   5  18
ENDBRANCH   1  13
BRANCH   3  19
ATOM     19  C   UNL     1      -6.346   1.212  -0.526  0.00  0.00    +0.091 A 
ATOM     20  C   UNL     1      -6.156   2.454  -1.284  0.00  0.00    +0.042 A 
ATOM     21  C   UNL     1      -5.248   2.863  -2.263  0.00  0.00    +0.013 A 
ATOM     22  C   UNL     1      -5.339   4.122  -2.787  0.00  0.00    +0.001 A 
ATOM     23  C   UNL     1      -6.327   4.994  -2.353  0.00  0.00    +0.004 A 
ATOM     24  C   UNL     1      -7.232   4.609  -1.387  0.00  0.00    +0.047 A 
ATOM     25  C   UNL     1      -7.160   3.333  -0.840  0.00  0.00    +0.138 A 
ATOM     26  O   UNL     1      -7.890   2.694   0.096  0.00  0.00    -0.450 OA
ATOM     27  C   UNL     1      -7.433   1.438   0.296  0.00  0.00    +0.197 A 
BRANCH  27  28
ATOM     28  C   UNL     1      -7.981   0.501   1.206  0.00  0.00    +0.230 C 
ATOM     29  O   UNL     1      -7.430  -0.571   1.383  0.00  0.00    -0.283 OA
BRANCH  28  30
ATOM     30  C   UNL     1      -9.222   0.825   1.944  0.00  0.00    +0.025 A 
ATOM     31  C   UNL     1      -9.787   2.097   1.839  0.00  0.00    +0.012 A 
ATOM     32  C   UNL     1     -10.945   2.393   2.529  0.00  0.00    +0.004 A 
ATOM     33  C   UNL     1     -11.545   1.432   3.323  0.00  0.00    -0.050 A 
ATOM     34  C   UNL     1     -10.989   0.169   3.432  0.00  0.00    +0.004 A 
ATOM     35  C   UNL     1      -9.835  -0.141   2.743  0.00  0.00    +0.012 A 
ATOM     36  C   UNL     1     -12.809   1.762   4.075  0.00  0.00    +0.044 C 
ENDBRANCH  28  30
ENDBRANCH  27  28
ENDBRANCH   3  19
TORSDOF 5
