REMARK  Name = ZINC09823592
REMARK  8 active torsions:
REMARK  status: ('A' for Active; 'I' for Inactive)
REMARK    1  A    between atoms: C_1  and  C_2
REMARK    2  A    between atoms: C_2  and  C_25
REMARK    3  A    between atoms: N_5  and  C_9
REMARK    4  A    between atoms: C_9  and  C_10
REMARK    5  A    between atoms: N_12  and  C_13
REMARK    6  A    between atoms: C_13  and  C_14
REMARK    7  A    between atoms: C_14  and  C_16
REMARK    8  A    between atoms: C_14  and  N_62
REMARK                            x       y       z     vdW  Elec       q    Type
REMARK                         _______ _______ _______ _____ _____    ______ ____
ROOT
ATOM      1  C   UNL     1       7.699   3.866  -2.350  0.00  0.00    +0.047 C 
ATOM      2  C   UNL     1       7.306   2.659  -3.204  0.00  0.00    +0.135 C 
ATOM      3  C   UNL     1       5.805   2.605  -3.405  0.00  0.00    +0.251 C 
ATOM      4  O   UNL     1       5.109   3.432  -3.954  0.00  0.00    -0.272 OA
ATOM      5  N   UNL     1       5.404   1.446  -2.845  0.00  0.00    -0.215 N 
ATOM      6  C   UNL     1       6.433   0.764  -2.331  0.00  0.00    +0.310 C 
ATOM      7  O   UNL     1       6.322  -0.312  -1.777  0.00  0.00    -0.252 OA
ATOM      8  N   UNL     1       7.606   1.403  -2.494  0.00  0.00    -0.281 N 
ATOM      9  H   UNL     1       8.479   1.097  -2.202  0.00  0.00    +0.152 HD
ENDROOT
BRANCH   2  10
ATOM     10  C   UNL     1       8.014   2.698  -4.533  0.00  0.00    -0.015 A 
ATOM     11  C   UNL     1       7.426   3.369  -5.604  0.00  0.00    +0.007 A 
ATOM     12  C   UNL     1       8.041   3.428  -6.817  0.00  0.00    +0.009 A 
ATOM     13  C   UNL     1       9.283   2.795  -6.998  0.00  0.00    -0.018 A 
ATOM     14  C   UNL     1       9.945   2.829  -8.237  0.00  0.00    +0.008 A 
ATOM     15  C   UNL     1      11.146   2.205  -8.376  0.00  0.00    +0.001 A 
ATOM     16  C   UNL     1      11.732   1.529  -7.307  0.00  0.00    +0.001 A 
ATOM     17  C   UNL     1      11.120   1.476  -6.092  0.00  0.00    +0.008 A 
ATOM     18  C   UNL     1       9.878   2.108  -5.911  0.00  0.00    -0.018 A 
ATOM     19  C   UNL     1       9.215   2.074  -4.672  0.00  0.00    +0.014 A 
ENDBRANCH   2  10
BRANCH   5  20
ATOM     20  C   UNL     1       4.013   0.987  -2.811  0.00  0.00    +0.213 C 
BRANCH  20  21
ATOM     21  C   UNL     1       3.349   1.488  -1.554  0.00  0.00    +0.231 C 
ATOM     22  O   UNL     1       3.977   2.163  -0.765  0.00  0.00    -0.274 OA
ATOM     23  N   UNL     1       2.059   1.187  -1.307  0.00  0.00    -0.315 N 
ATOM     24  H   UNL     1       1.558   0.648  -1.938  0.00  0.00    +0.149 HD
BRANCH  23  25
ATOM     25  C   UNL     1       1.414   1.675  -0.085  0.00  0.00    +0.096 C 
BRANCH  25  26
ATOM     26  C   UNL     1       0.004   1.090   0.015  0.00  0.00    +0.016 C 
BRANCH  26  31
ATOM     27  C   UNL     1      -0.784   3.153   1.040  0.00  0.00    -0.078 C 
ATOM     28  C   UNL     1      -1.944   3.519   2.000  0.00  0.00    -0.020 C 
ATOM     29  C   UNL     1      -2.932   2.345   1.812  0.00  0.00    -0.020 C 
ATOM     30  C   UNL     1      -2.081   1.188   1.258  0.00  0.00    -0.078 C 
ATOM     31  N   UNL     1      -0.709   1.690   1.183  0.00  0.00    +0.387 N 
ATOM     32  H   UNL     1      -0.204   1.452   2.045  0.00  0.00    -0.081 HD
ENDBRANCH  26  31
BRANCH  26  33
ATOM     33  C   UNL     1       0.092  -0.405   0.189  0.00  0.00    +0.093 A 
ATOM     34  C   UNL     1      -0.076  -1.320  -0.782  0.00  0.00    +0.043 A 
ATOM     35  C   UNL     1       0.092  -2.590  -0.182  0.00  0.00    +0.041 A 
ATOM     36  C   UNL     1       0.352  -2.373   1.120  0.00  0.00    +0.195 A 
ATOM     37  O   UNL     1       0.357  -1.048   1.337  0.00  0.00    -0.469 OA
ENDBRANCH  26  33
ENDBRANCH  25  26
ENDBRANCH  23  25
ENDBRANCH  20  21
ENDBRANCH   5  20
TORSDOF 7
