REMARK  Name = ZINC43262324
REMARK  12 active torsions:
REMARK  status: ('A' for Active; 'I' for Inactive)
REMARK    1  A    between atoms: C_1  and  C_2
REMARK    2  A    between atoms: C_2  and  C_3
REMARK    3  A    between atoms: C_3  and  C_4
REMARK    4  A    between atoms: C_4  and  C_5
REMARK    5  A    between atoms: C_5  and  C_6
REMARK    6  A    between atoms: C_9  and  C_12
REMARK    7  A    between atoms: C_18  and  C_21
REMARK    8  A    between atoms: N_23  and  C_24
REMARK    9  A    between atoms: C_24  and  C_25
REMARK   10  A    between atoms: C_25  and  C_26
REMARK   11  A    between atoms: C_26  and  C_27
REMARK   12  A    between atoms: C_26  and  C_33
REMARK                            x       y       z     vdW  Elec       q    Type
REMARK                         _______ _______ _______ _____ _____    ______ ____
ROOT
ATOM      1  C   UNL     1      -0.802  -6.604  -5.269  0.00  0.00    -0.027 C 
ATOM      2  C   UNL     1      -1.855  -6.915  -4.199  0.00  0.00    +0.092 C 
ATOM      3  S   UNL     1      -1.486  -8.552  -3.494  0.00  0.00    +0.020 S 
ATOM      4  O   UNL     1      -2.605  -9.009  -2.747  0.00  0.00    -0.257 OA
ATOM      5  C   UNL     1      -1.283  -9.588  -4.977  0.00  0.00    +0.097 C 
ATOM      6  C   UNL     1      -0.315  -8.877  -5.930  0.00  0.00    +0.029 C 
ATOM      7  N   UNL     1      -0.883  -7.592  -6.346  0.00  0.00    +0.392 N 
ATOM      8  H   UNL     1      -1.850  -7.724  -6.602  0.00  0.00    -0.084 HD
ATOM      9  H   UNL     1      -0.374  -7.250  -7.147  0.00  0.00    -0.084 HD
ENDROOT
BRANCH   1  13
ATOM     10  C   UNL     1      -1.506  -2.705  -6.865  0.00  0.00    -0.047 A 
ATOM     11  C   UNL     1      -0.530  -2.893  -5.904  0.00  0.00    +0.004 A 
ATOM     12  C   UNL     1      -0.302  -4.154  -5.387  0.00  0.00    +0.002 A 
ATOM     13  C   UNL     1      -1.051  -5.228  -5.831  0.00  0.00    -0.060 A 
ATOM     14  C   UNL     1      -2.028  -5.040  -6.791  0.00  0.00    +0.002 A 
ATOM     15  C   UNL     1      -2.258  -3.778  -7.305  0.00  0.00    +0.004 A 
BRANCH  10  16
ATOM     16  C   UNL     1      -1.754  -1.329  -7.428  0.00  0.00    +0.035 C 
BRANCH  16  17
ATOM     17  C   UNL     1      -2.806  -0.612  -6.579  0.00  0.00    +0.005 C 
BRANCH  17  18
ATOM     18  C   UNL     1      -3.058   0.784  -7.150  0.00  0.00    +0.000 C 
BRANCH  18  20
ATOM     19  C   UNL     1      -4.361   2.898  -6.873  0.00  0.00    +0.004 C 
ATOM     20  C   UNL     1      -4.109   1.501  -6.301  0.00  0.00    -0.003 C 
ENDBRANCH  18  20
ENDBRANCH  17  18
ENDBRANCH  16  17
ENDBRANCH  10  16
ENDBRANCH   1  13
BRANCH   6  21
ATOM     21  C   UNL     1      -0.086  -9.738  -7.145  0.00  0.00    +0.200 C 
ATOM     22  O   UNL     1      -0.374  -9.322  -8.247  0.00  0.00    -0.278 OA
ATOM     23  N   UNL     1       0.439 -10.972  -7.007  0.00  0.00    -0.317 N 
ATOM     24  H   UNL     1       0.669 -11.305  -6.126  0.00  0.00    +0.149 HD
BRANCH  23  25
ATOM     25  C   UNL     1       0.662 -11.810  -8.188  0.00  0.00    +0.105 C 
BRANCH  25  26
ATOM     26  C   UNL     1       1.261 -13.150  -7.758  0.00  0.00    +0.031 C 
BRANCH  26  27
ATOM     27  C   UNL     1       1.494 -14.024  -8.991  0.00  0.00    +0.050 C 
BRANCH  27  28
ATOM     28  C   UNL     1       2.537 -13.385  -9.871  0.00  0.00    -0.040 A 
ATOM     29  C   UNL     1       2.273 -13.168 -11.210  0.00  0.00    +0.004 A 
ATOM     30  C   UNL     1       3.230 -12.581 -12.017  0.00  0.00    +0.000 A 
ATOM     31  C   UNL     1       4.451 -12.212 -11.484  0.00  0.00    +0.000 A 
ATOM     32  C   UNL     1       4.715 -12.428 -10.145  0.00  0.00    +0.000 A 
ATOM     33  C   UNL     1       3.756 -13.011  -9.337  0.00  0.00    +0.004 A 
ENDBRANCH  27  28
BRANCH  27  34
ATOM     34  C   UNL     1       1.969 -15.387  -8.558  0.00  0.00    -0.040 A 
ATOM     35  C   UNL     1       3.041 -15.503  -7.693  0.00  0.00    +0.004 A 
ATOM     36  C   UNL     1       3.476 -16.754  -7.296  0.00  0.00    +0.000 A 
ATOM     37  C   UNL     1       2.839 -17.888  -7.763  0.00  0.00    +0.000 A 
ATOM     38  C   UNL     1       1.767 -17.772  -8.628  0.00  0.00    +0.000 A 
ATOM     39  C   UNL     1       1.329 -16.522  -9.022  0.00  0.00    +0.004 A 
ENDBRANCH  27  34
ENDBRANCH  26  27
ENDBRANCH  25  26
ENDBRANCH  23  25
ENDBRANCH   6  21
TORSDOF 11
