REMARK  Name = ZINC36764894
REMARK  4 active torsions:
REMARK  status: ('A' for Active; 'I' for Inactive)
REMARK    1  A    between atoms: C_3  and  C_9
REMARK    2  A    between atoms: C_9  and  C_11
REMARK    3  A    between atoms: C_9  and  N_20
REMARK    4  A    between atoms: C_13  and  C_16
REMARK                            x       y       z     vdW  Elec       q    Type
REMARK                         _______ _______ _______ _____ _____    ______ ____
ROOT
ATOM      1  C   UNL     1       3.671   2.186  -0.023  0.00  0.00    +0.030 C 
ENDROOT
BRANCH   1   4
ATOM      2  C   UNL     1      -0.017   1.378   0.010  0.00  0.00    +0.002 A 
ATOM      3  C   UNL     1       1.171   2.086   0.002  0.00  0.00    +0.004 A 
ATOM      4  C   UNL     1       2.378   1.413  -0.013  0.00  0.00    -0.035 A 
ATOM      5  C   UNL     1       2.398   0.030  -0.021  0.00  0.00    +0.061 A 
ATOM      6  C   UNL     1       1.209  -0.679  -0.013  0.00  0.00    +0.059 A 
ATOM      7  C   UNL     1       0.002  -0.004   0.002  0.00  0.00    +0.021 A 
ATOM      8 CL   UNL     1       1.234  -2.415  -0.023  0.00  0.00    -0.082 Cl
ATOM      9 CL   UNL     1       3.914  -0.816  -0.041  0.00  0.00    -0.082 Cl
ENDBRANCH   1   4
BRANCH   1  10
ATOM     10  C   UNL     1       4.243   2.225   1.371  0.00  0.00    +0.162 A 
ATOM     11  N   UNL     1       5.290   1.512   1.803  0.00  0.00    -0.190 NA
ATOM     12  C   UNL     1       5.526   1.778   3.057  0.00  0.00    +0.332 A 
ATOM     13  O   UNL     1       4.628   2.681   3.471  0.00  0.00    -0.329 OA
ATOM     14  N   UNL     1       3.803   2.962   2.350  0.00  0.00    -0.062 NA
BRANCH  12  15
ATOM     15  C   UNL     1       6.622   1.175   3.897  0.00  0.00    +0.472 C 
ATOM     16  F   UNL     1       7.774   1.962   3.796  0.00  0.00    -0.162 F 
ATOM     17  F   UNL     1       6.210   1.120   5.232  0.00  0.00    -0.162 F 
ATOM     18  F   UNL     1       6.900  -0.118   3.441  0.00  0.00    -0.162 F 
ENDBRANCH  12  15
ENDBRANCH   1  10
BRANCH   1  19
ATOM     19  N   UNL     1       3.420   3.557  -0.487  0.00  0.00    +0.387 N 
ATOM     20  H   UNL     1       3.037   3.531  -1.420  0.00  0.00    -0.089 HD
ATOM     21  H   UNL     1       2.763   4.007   0.133  0.00  0.00    -0.089 HD
ATOM     22  H   UNL     1       4.286   4.074  -0.493  0.00  0.00    -0.089 HD
ENDBRANCH   1  19
TORSDOF 4
