REMARK  Name = ZINC12630199
REMARK  4 active torsions:
REMARK  status: ('A' for Active; 'I' for Inactive)
REMARK    1  A    between atoms: C_2  and  C_3
REMARK    2  A    between atoms: C_3  and  O_4
REMARK    3  A    between atoms: O_4  and  C_5
REMARK    4  A    between atoms: C_10  and  C_11
REMARK                            x       y       z     vdW  Elec       q    Type
REMARK                         _______ _______ _______ _____ _____    ______ ____
ROOT
ATOM      1  C   UNL     1       1.218  -3.928   2.800  0.00  0.00    +0.212 C 
ATOM      2  N   UNL     1       1.628  -4.657   4.014  0.00  0.00    -0.294 N 
ATOM      3  C   UNL     1       1.820  -6.012   3.964  0.00  0.00    +0.160 C 
ATOM      4  N   UNL     1       1.143  -6.774   3.122  0.00  0.00    -0.302 N 
ATOM      5  C   UNL     1       0.291  -6.176   2.255  0.00  0.00    +0.213 A 
ATOM      6  N   UNL     1       0.290  -4.804   2.075  0.00  0.00    -0.286 N 
ATOM      7  C   UNL     1      -0.683  -4.500   1.152  0.00  0.00    +0.076 A 
ATOM      8  C   UNL     1      -1.153  -3.319   0.591  0.00  0.00    +0.077 A 
ATOM      9  C   UNL     1      -2.172  -3.358  -0.341  0.00  0.00    +0.164 A 
ATOM     10  C   UNL     1      -2.734  -4.573  -0.722  0.00  0.00    +0.164 A 
ATOM     11  C   UNL     1      -2.280  -5.755  -0.174  0.00  0.00    +0.079 A 
ATOM     12  C   UNL     1      -1.248  -5.730   0.769  0.00  0.00    +0.095 A 
ATOM     13  N   UNL     1      -0.605  -6.713   1.469  0.00  0.00    -0.212 NA
ATOM     14  O   UNL     1      -3.740  -4.589  -1.645  0.00  0.00    -0.488 OA
ATOM     15  C   UNL     1      -4.984  -4.026  -1.225  0.00  0.00    +0.232 C 
ATOM     16  C   UNL     1      -4.986  -2.517  -1.419  0.00  0.00    +0.082 C 
ATOM     17  C   UNL     1      -3.965  -1.819  -0.534  0.00  0.00    +0.232 C 
ATOM     18  O   UNL     1      -2.635  -2.199  -0.896  0.00  0.00    -0.488 OA
ATOM     19  N   UNL     1       2.733  -6.590   4.804  0.00  0.00    -0.332 N 
ATOM     20  H   UNL     1       3.236  -6.041   5.426  0.00  0.00    +0.145 HD
ATOM     21  H   UNL     1       2.878  -7.549   4.777  0.00  0.00    +0.145 HD
ATOM     22  H   UNL     1       1.761  -4.178   4.847  0.00  0.00    +0.151 HD
ATOM     23  H   UNL     1       1.255  -7.738   3.124  0.00  0.00    +0.171 HD
ENDROOT
BRANCH   1  29
ATOM     24  C   UNL     1       2.392  -2.577   1.044  0.00  0.00    +0.128 A 
ATOM     25  C   UNL     1       3.505  -2.304   0.261  0.00  0.00    +0.046 A 
ATOM     26  C   UNL     1       4.638  -3.086   0.377  0.00  0.00    +0.004 A 
ATOM     27  C   UNL     1       4.663  -4.140   1.271  0.00  0.00    +0.001 A 
ATOM     28  C   UNL     1       3.556  -4.415   2.051  0.00  0.00    +0.011 A 
ATOM     29  C   UNL     1       2.422  -3.632   1.944  0.00  0.00    +0.035 A 
BRANCH  24  30
ATOM     30  O   UNL     1       1.277  -1.809   0.933  0.00  0.00    -0.488 OA
BRANCH  30  31
ATOM     31  C   UNL     1       1.317  -0.740  -0.015  0.00  0.00    +0.256 C 
BRANCH  31  33
ATOM     32  C   UNL     1      -0.016   1.306   0.009  0.00  0.00    +0.007 C 
ATOM     33  C   UNL     1       0.002  -0.004   0.002  0.00  0.00    +0.006 C 
ENDBRANCH  31  33
ENDBRANCH  30  31
ENDBRANCH  24  30
ENDBRANCH   1  29
TORSDOF 4
