REMARK  Name = ZINC40796417
REMARK  5 active torsions:
REMARK  status: ('A' for Active; 'I' for Inactive)
REMARK    1  A    between atoms: C_1  and  C_2
REMARK    2  A    between atoms: C_4  and  O_10
REMARK    3  A    between atoms: C_6  and  C_9
REMARK    4  A    between atoms: O_10  and  C_11
REMARK    5  A    between atoms: C_12  and  N_18
REMARK                            x       y       z     vdW  Elec       q    Type
REMARK                         _______ _______ _______ _____ _____    ______ ____
ROOT
ATOM      1  C   UNL     1       1.106  -2.611  -3.194  0.00  0.00    +0.248 A 
ATOM      2  C   UNL     1       1.112  -3.189  -4.453  0.00  0.00    +0.152 A 
ATOM      3  C   UNL     1       2.253  -3.020  -5.261  0.00  0.00    +0.276 A 
ATOM      4  N   UNL     1       3.290  -2.305  -4.776  0.00  0.00    -0.312 N 
ATOM      5  C   UNL     1       3.225  -1.767  -3.540  0.00  0.00    +0.203 A 
ATOM      6  N   UNL     1       2.172  -1.911  -2.783  0.00  0.00    -0.201 NA
ATOM      7  O   UNL     1       2.304  -3.511  -6.378  0.00  0.00    -0.266 OA
ATOM      8  H   UNL     1       4.085  -2.178  -5.317  0.00  0.00    +0.170 HD
ENDROOT
BRANCH   2   9
ATOM      9  N   UNL     1       0.006  -3.925  -4.912  0.00  0.00    -0.350 N 
ATOM     10  H   UNL     1      -0.774  -4.034  -4.346  0.00  0.00    +0.143 HD
ATOM     11  H   UNL     1       0.022  -4.325  -5.796  0.00  0.00    +0.143 HD
ENDBRANCH   2   9
BRANCH   1  12
ATOM     12  O   UNL     1       0.028  -2.749  -2.385  0.00  0.00    -0.436 OA
BRANCH  12  16
ATOM     13  C   UNL     1      -0.518   1.448   0.044  0.00  0.00    +0.045 C 
ATOM     14  C   UNL     1      -0.236  -0.032   0.019  0.00  0.00    -0.028 A 
ATOM     15  C   UNL     1      -0.234  -0.714  -1.182  0.00  0.00    +0.051 A 
ATOM     16  C   UNL     1       0.025  -2.077  -1.204  0.00  0.00    +0.131 A 
ATOM     17  C   UNL     1       0.282  -2.752  -0.020  0.00  0.00    +0.051 A 
ATOM     18  C   UNL     1       0.279  -2.066   1.179  0.00  0.00    -0.028 A 
ATOM     19  C   UNL     1       0.025  -0.706   1.199  0.00  0.00    +0.047 A 
ATOM     20 CL   UNL     1       0.030   0.155   2.707  0.00  0.00    -0.083 Cl
ATOM     21  C   UNL     1       0.557  -2.799   2.466  0.00  0.00    +0.045 C 
ENDBRANCH  12  16
ENDBRANCH   1  12
TORSDOF 3
