REMARK  Name = ZINC32909235
REMARK  9 active torsions:
REMARK  status: ('A' for Active; 'I' for Inactive)
REMARK    1  A    between atoms: C_1  and  N_2
REMARK    2  A    between atoms: N_2  and  C_3
REMARK    3  A    between atoms: N_2  and  C_4
REMARK    4  A    between atoms: C_4  and  C_5
REMARK    5  A    between atoms: C_8  and  C_11
REMARK    6  A    between atoms: C_16  and  C_17
REMARK    7  A    between atoms: C_17  and  N_18
REMARK    8  A    between atoms: N_18  and  S_19
REMARK    9  A    between atoms: S_19  and  C_22
REMARK                            x       y       z     vdW  Elec       q    Type
REMARK                         _______ _______ _______ _____ _____    ______ ____
ROOT
ATOM      1  C   UNL     1       3.140   7.916   2.054  0.00  0.00    +0.141 C 
ENDROOT
BRANCH   1   7
ATOM      2  C   UNL     1       3.088   8.546   4.486  0.00  0.00    -0.013 A 
ATOM      3  C   UNL     1       3.405   9.416   5.527  0.00  0.00    +0.009 A 
ATOM      4  C   UNL     1       4.093  10.582   5.262  0.00  0.00    +0.001 A 
ATOM      5  C   UNL     1       4.472  10.886   3.967  0.00  0.00    +0.000 A 
ATOM      6  C   UNL     1       4.164  10.024   2.931  0.00  0.00    +0.005 A 
ATOM      7  C   UNL     1       3.476   8.854   3.184  0.00  0.00    -0.024 A 
BRANCH   2  11
ATOM      8  C   UNL     1       0.953   4.955   5.282  0.00  0.00    -0.064 A 
ATOM      9  C   UNL     1       2.190   4.899   4.665  0.00  0.00    +0.002 A 
ATOM     10  C   UNL     1       2.887   6.061   4.404  0.00  0.00    +0.009 A 
ATOM     11  C   UNL     1       2.343   7.293   4.763  0.00  0.00    -0.018 A 
ATOM     12  C   UNL     1       1.099   7.343   5.390  0.00  0.00    +0.009 A 
ATOM     13  C   UNL     1       0.408   6.174   5.641  0.00  0.00    +0.002 A 
BRANCH   8  14
ATOM     14  C   UNL     1       0.197   3.682   5.564  0.00  0.00    -0.044 C 
BRANCH  14  16
ATOM     15  C   UNL     1      -0.318   2.079   7.304  0.00  0.00    -0.096 C 
ATOM     16  N   UNL     1       0.565   3.179   6.894  0.00  0.00    +0.379 N 
ATOM     17  C   UNL     1       1.974   2.763   6.928  0.00  0.00    -0.096 C 
ATOM     18  H   UNL     1       0.438   4.001   7.614  0.00  0.00    -0.082 HD
ENDBRANCH  14  16
ENDBRANCH   8  14
ENDBRANCH   2  11
ENDBRANCH   1   7
BRANCH   1  19
ATOM     19  N   UNL     1       1.727   8.067   1.697  0.00  0.00    -0.186 NA
ATOM     20  H   UNL     1       1.007   8.428   2.446  0.00  0.00    +0.148 HD
BRANCH  19  21
ATOM     21  S   UNL     1       1.168   7.466   0.259  0.00  0.00    +0.059 S 
ATOM     22  O   UNL     1       2.064   7.919  -0.747  0.00  0.00    -0.153 OA
ATOM     23  O   UNL     1      -0.226   7.742   0.218  0.00  0.00    -0.153 OA
BRANCH  21  24
ATOM     24  C   UNL     1       1.332   5.713   0.328  0.00  0.00    +0.106 A 
ATOM     25  C   UNL     1       2.498   5.111  -0.111  0.00  0.00    +0.030 A 
ATOM     26  C   UNL     1       2.630   3.738  -0.058  0.00  0.00    +0.025 A 
ATOM     27  C   UNL     1       1.591   2.961   0.435  0.00  0.00    +0.037 A 
ATOM     28  C   UNL     1       0.421   3.567   0.874  0.00  0.00    -0.024 A 
ATOM     29  C   UNL     1       0.295   4.941   0.819  0.00  0.00    +0.034 A 
ATOM     30  C   UNL     1      -0.706   2.724   1.409  0.00  0.00    +0.046 C 
ATOM     31  C   UNL     1      -0.749   1.392   0.653  0.00  0.00    +0.101 C 
ATOM     32  C   UNL     1       0.629   0.788   0.607  0.00  0.00    +0.218 C 
ATOM     33  O   UNL     1       0.758  -0.416   0.670  0.00  0.00    -0.275 OA
ATOM     34  N   UNL     1       1.718   1.569   0.491  0.00  0.00    -0.285 N 
ATOM     35  H   UNL     1       2.715   1.106   0.440  0.00  0.00    +0.155 HD
ENDBRANCH  21  24
ENDBRANCH  19  21
ENDBRANCH   1  19
TORSDOF 7
