REMARK  Name = ZINC39024568
REMARK  10 active torsions:
REMARK  status: ('A' for Active; 'I' for Inactive)
REMARK    1  A    between atoms: CG1_1  and  CB_2
REMARK    2  A    between atoms: CB_2  and  CG2_3
REMARK    3  A    between atoms: CB_2  and  CA_4
REMARK    4  A    between atoms: CA_4  and  C_6
REMARK    5  A    between atoms: CA_4  and  N_9
REMARK    6  A    between atoms: C_10  and  C_12
REMARK    7  A    between atoms: C_12  and  C_14
REMARK    8  A    between atoms: C_12  and  N_24
REMARK    9  A    between atoms: C_14  and  C_15
REMARK   10  A    between atoms: C_25  and  O_36
REMARK                            x       y       z     vdW  Elec       q    Type
REMARK                         _______ _______ _______ _____ _____    ______ ____
ROOT
ATOM      1  C   UNK A   0      -2.446  -4.191  -0.490  0.00  0.00    +0.170 C 
ENDROOT
BRANCH   1   2
ATOM      2  N   UNK A   0      -3.697  -4.693  -1.065  0.00  0.00    -0.244 N 
ATOM      3  C   UNK A   0      -3.652  -5.531  -2.263  0.00  0.00    +0.300 C 
ATOM      4  N   UNK A   0      -4.839  -5.298  -3.093  0.00  0.00    -0.303 N 
ATOM      5  C   UNK A   0      -6.080  -5.204  -2.474  0.00  0.00    +0.042 A 
ATOM      6  C   UNK A   0      -7.248  -5.566  -3.124  0.00  0.00    +0.024 A 
ATOM      7  C   UNK A   0      -8.460  -5.444  -2.472  0.00  0.00    +0.002 A 
ATOM      8  C   UNK A   0      -8.516  -4.962  -1.173  0.00  0.00    +0.001 A 
ATOM      9  C   UNK A   0      -7.361  -4.602  -0.510  0.00  0.00    +0.015 A 
ATOM     10  C   UNK A   0      -6.132  -4.724  -1.154  0.00  0.00    +0.058 A 
ATOM     11  C   UNK A   0      -4.869  -4.379  -0.477  0.00  0.00    +0.252 C 
ATOM     12  O   UNK A   0      -4.883  -3.814   0.600  0.00  0.00    -0.270 OA
ATOM     13  H   UNK A   0      -4.759  -5.211  -4.056  0.00  0.00    +0.150 HD
BRANCH   3  14
ATOM     14  O   UNK A   0      -3.611  -6.907  -1.877  0.00  0.00    -0.359 OA
ATOM     15  H   UNK A   0      -3.580  -7.523  -2.622  0.00  0.00    +0.213 HD
ENDBRANCH   3  14
ENDBRANCH   1   2
BRANCH   1  17
ATOM     16  N   VAL A   1      -1.413  -1.998   0.005  0.00  0.00    -0.300 N 
ATOM     17  C   UNK A   0      -2.467  -2.684  -0.482  0.00  0.00    +0.235 C 
ATOM     18  O   UNK A   0      -3.431  -2.088  -0.914  0.00  0.00    -0.274 OA
ATOM     19  H   VAL A   1      -0.642  -2.475   0.350  0.00  0.00    +0.150 HD
BRANCH  16  20
ATOM     20  CA  VAL A   1      -1.433  -0.534   0.013  0.00  0.00    +0.189 C 
BRANCH  20  22
ATOM     21  CG1 VAL A   1      -0.019   1.526   0.010  0.00  0.00    +0.009 C 
ATOM     22  CB  VAL A   1       0.002  -0.004   0.002  0.00  0.00    +0.014 C 
ATOM     23  CG2 VAL A   1       0.742  -0.511   1.242  0.00  0.00    +0.009 C 
ENDBRANCH  20  22
BRANCH  20  24
ATOM     24  C   VAL A   1      -2.139  -0.048   1.253  0.00  0.00    +0.376 C 
ATOM     25  O   VAL A   1      -2.745   1.010   1.234  0.00  0.00    -0.244 OA
ATOM     26  OXT VAL A   1      -2.103  -0.712   2.275  0.00  0.00    -0.244 OA
ENDBRANCH  20  24
ENDBRANCH  16  20
ENDBRANCH   1  17
BRANCH   1  27
ATOM     27  C   UNK A   0      -2.300  -4.707   0.943  0.00  0.00    +0.069 C 
BRANCH  27  28
ATOM     28  C   UNK A   0      -2.156  -6.207   0.924  0.00  0.00    -0.020 A 
ATOM     29  C   UNK A   0      -0.915  -6.961   0.733  0.00  0.00    +0.003 A 
ATOM     30  C   UNK A   0       0.417  -6.600   0.524  0.00  0.00    +0.010 A 
ATOM     31  C   UNK A   0       1.368  -7.571   0.379  0.00  0.00    +0.001 A 
ATOM     32  C   UNK A   0       1.020  -8.913   0.436  0.00  0.00    +0.002 A 
ATOM     33  C   UNK A   0      -0.289  -9.291   0.641  0.00  0.00    +0.026 A 
ATOM     34  C   UNK A   0      -1.273  -8.320   0.792  0.00  0.00    +0.047 A 
ATOM     35  N   UNK A   0      -2.632  -8.373   1.004  0.00  0.00    -0.360 N 
ATOM     36  C   UNK A   0      -3.140  -7.105   1.086  0.00  0.00    +0.087 A 
ATOM     37  H   UNK A   0      -3.152  -9.188   1.087  0.00  0.00    +0.165 HD
ENDBRANCH  27  28
ENDBRANCH   1  27
TORSDOF 8
