REMARK  Name = ZINC32527461
REMARK  11 active torsions:
REMARK  status: ('A' for Active; 'I' for Inactive)
REMARK    1  A    between atoms: C_1  and  C_2
REMARK    2  A    between atoms: C_2  and  C_3
REMARK    3  A    between atoms: C_3  and  C_5
REMARK    4  A    between atoms: C_3  and  N_17
REMARK    5  A    between atoms: N_7  and  C_8
REMARK    6  A    between atoms: C_9  and  C_15
REMARK    7  A    between atoms: C_10  and  C_14
REMARK    8  A    between atoms: C_11  and  C_13
REMARK    9  A    between atoms: C_21  and  C_30
REMARK   10  A    between atoms: C_24  and  C_29
REMARK   11  A    between atoms: C_26  and  C_28
REMARK                            x       y       z     vdW  Elec       q    Type
REMARK                         _______ _______ _______ _____ _____    ______ ____
ROOT
ATOM      1  C   UNL     1       3.753  -5.537   0.692  0.00  0.00    +0.176 C 
ENDROOT
BRANCH   1   2
ATOM      2  N   UNL     1       5.082  -6.152   0.657  0.00  0.00    -0.296 N 
ATOM      3  C   UNL     1       5.203  -7.450   0.329  0.00  0.00    +0.253 A 
ATOM      4  O   UNL     1       4.202  -8.093   0.066  0.00  0.00    -0.268 OA
ATOM      5  C   UNL     1       6.462  -8.088   0.281  0.00  0.00    +0.074 A 
ATOM      6  C   UNL     1       7.590  -7.394   0.570  0.00  0.00    -0.036 A 
ATOM      7  C   UNL     1       7.469  -5.979   0.929  0.00  0.00    +0.002 A 
ATOM      8  C   UNL     1       6.191  -5.389   0.956  0.00  0.00    +0.056 A 
ATOM      9  C   UNL     1       6.066  -4.048   1.301  0.00  0.00    -0.026 A 
ATOM     10  C   UNL     1       7.191  -3.311   1.601  0.00  0.00    +0.008 A 
ATOM     11  C   UNL     1       8.450  -3.894   1.566  0.00  0.00    -0.050 A 
ATOM     12  C   UNL     1       8.597  -5.212   1.236  0.00  0.00    +0.013 A 
ATOM     13  C   UNL     1       9.666  -3.067   1.897  0.00  0.00    +0.044 C 
ATOM     14  C   UNL     1       4.705  -3.402   1.343  0.00  0.00    +0.046 C 
ATOM     15  C   UNL     1       8.940  -8.064   0.522  0.00  0.00    +0.044 C 
ENDBRANCH   1   2
BRANCH   1  16
ATOM     16  C   UNL     1       3.440  -4.941  -0.656  0.00  0.00    +0.241 C 
ATOM     17  O   UNL     1       4.247  -5.022  -1.558  0.00  0.00    -0.273 OA
ATOM     18  N   UNL     1       2.262  -4.319  -0.861  0.00  0.00    -0.277 N 
ATOM     19  H   UNL     1       1.529  -4.245  -0.043  0.00  0.00    +0.155 HD
BRANCH  18  20
ATOM     20  C   UNL     1       1.973  -3.770  -2.103  0.00  0.00    +0.090 A 
ATOM     21  C   UNL     1       0.826  -3.096  -2.503  0.00  0.00    +0.083 A 
ATOM     22  C   UNL     1       0.791  -2.627  -3.867  0.00  0.00    -0.021 A 
ATOM     23  C   UNL     1       1.869  -2.881  -4.632  0.00  0.00    -0.007 A 
ATOM     24  S   UNL     1       2.956  -3.759  -3.528  0.00  0.00    -0.077 S 
ATOM     25  C   UNL     1       2.100  -2.511  -6.074  0.00  0.00    +0.052 C 
ATOM     26  C   UNL     1      -0.404  -1.889  -4.413  0.00  0.00    +0.046 C 
BRANCH  21  27
ATOM     27  C   UNL     1      -0.268  -2.879  -1.605  0.00  0.00    +0.102 C 
ATOM     28  N   UNL     1      -1.137  -2.707  -0.893  0.00  0.00    -0.191 NA
ENDBRANCH  21  27
ENDBRANCH  18  20
ENDBRANCH   1  16
BRANCH   1  30
ATOM     29  C   UNL     1       3.096  -7.295   2.342  0.00  0.00    +0.006 C 
ATOM     30  C   UNL     1       2.708  -6.601   1.035  0.00  0.00    +0.031 C 
ENDBRANCH   1  30
TORSDOF 5
