REMARK  Name = ZINC04133452
REMARK  13 active torsions:
REMARK  status: ('A' for Active; 'I' for Inactive)
REMARK    1  A    between atoms: C_1  and  C_2
REMARK    2  A    between atoms: C_7  and  C_14
REMARK    3  A    between atoms: C_14  and  N_15
REMARK    4  A    between atoms: N_15  and  C_16
REMARK    5  A    between atoms: N_15  and  C_20
REMARK    6  A    between atoms: C_16  and  C_17
REMARK    7  A    between atoms: C_17  and  N_60
REMARK    8  A    between atoms: C_18  and  N_60
REMARK    9  A    between atoms: C_19  and  N_60
REMARK   10  A    between atoms: C_20  and  N_22
REMARK   11  A    between atoms: N_22  and  C_23
REMARK   12  A    between atoms: C_23  and  C_25
REMARK   13  A    between atoms: C_23  and  C_26
REMARK                            x       y       z     vdW  Elec       q    Type
REMARK                         _______ _______ _______ _____ _____    ______ ____
ROOT
ATOM      1  N   UNL     1       0.955  -2.110   0.617  0.00  0.00    -0.310 N 
ENDROOT
BRANCH   1   2
ATOM      2  C   UNL     1       0.839  -0.767   0.598  0.00  0.00    +0.134 C 
ATOM      3  S   UNL     1       1.966   0.201   1.450  0.00  0.00    -0.019 S 
BRANCH   2   4
ATOM      4  N   UNL     1      -0.163  -0.187  -0.091  0.00  0.00    -0.320 N 
ATOM      5  H   UNL     1      -0.801  -0.736  -0.573  0.00  0.00    +0.148 HD
BRANCH   4   6
ATOM      6  C   UNL     1      -0.289   1.272  -0.111  0.00  0.00    +0.099 C 
ATOM      7  C   UNL     1      -1.066   1.735   1.123  0.00  0.00    +0.033 C 
BRANCH   6   8
ATOM      8  C   UNL     1      -1.025   1.696  -1.356  0.00  0.00    -0.028 A 
ATOM      9  C   UNL     1      -2.103   0.957  -1.807  0.00  0.00    +0.005 A 
ATOM     10  C   UNL     1      -2.781   1.347  -2.946  0.00  0.00    +0.000 A 
ATOM     11  C   UNL     1      -2.375   2.472  -3.640  0.00  0.00    +0.000 A 
ATOM     12  C   UNL     1      -1.295   3.209  -3.192  0.00  0.00    +0.000 A 
ATOM     13  C   UNL     1      -0.619   2.820  -2.050  0.00  0.00    +0.005 A 
ENDBRANCH   6   8
ENDBRANCH   4   6
ENDBRANCH   2   4
ENDBRANCH   1   2
BRANCH   1  14
ATOM     14  C   UNL     1       2.107  -2.737   1.271  0.00  0.00    +0.147 C 
BRANCH  14  21
ATOM     15  C   UNL     1       0.553  -3.839   9.017  0.00  0.00    +0.044 C 
ATOM     16  C   UNL     1       0.938  -3.426   7.619  0.00  0.00    -0.048 A 
ATOM     17  C   UNL     1       1.560  -2.203   7.411  0.00  0.00    +0.004 A 
ATOM     18  C   UNL     1       1.917  -1.809   6.153  0.00  0.00    +0.010 A 
ATOM     19  C   UNL     1       1.653  -2.647   5.064  0.00  0.00    -0.001 A 
ATOM     20  C   UNL     1       2.022  -2.256   3.702  0.00  0.00    +0.020 A 
ATOM     21  C   UNL     1       1.740  -3.108   2.685  0.00  0.00    +0.035 A 
ATOM     22  C   UNL     1       1.100  -4.339   2.946  0.00  0.00    +0.254 A 
ATOM     23  O   UNL     1       0.852  -5.088   2.017  0.00  0.00    -0.268 OA
ATOM     24  N   UNL     1       0.763  -4.708   4.194  0.00  0.00    -0.322 N 
ATOM     25  H   UNL     1       0.317  -5.591   4.343  0.00  0.00    +0.169 HD
ATOM     26  C   UNL     1       1.022  -3.887   5.271  0.00  0.00    +0.049 A 
ATOM     27  C   UNL     1       0.667  -4.266   6.561  0.00  0.00    +0.029 A 
ENDBRANCH  14  21
ENDBRANCH   1  14
BRANCH   1  28
ATOM     28  C   UNL     1      -0.070  -2.943  -0.017  0.00  0.00    +0.088 C 
BRANCH  28  29
ATOM     29  C   UNL     1       0.304  -3.187  -1.480  0.00  0.00    -0.060 C 
BRANCH  29  32
ATOM     30  C   UNL     1      -0.528  -4.082  -3.570  0.00  0.00    -0.097 C 
ATOM     31  C   UNL     1      -0.744  -5.369  -1.530  0.00  0.00    -0.097 C 
ATOM     32  N   UNL     1      -0.750  -4.009  -2.111  0.00  0.00    +0.377 N 
ATOM     33  H   UNL     1      -1.663  -3.575  -1.933  0.00  0.00    -0.083 HD
ENDBRANCH  29  32
ENDBRANCH  28  29
ENDBRANCH   1  28
TORSDOF 9
