REMARK  Name = ZINC23602051
REMARK  8 active torsions:
REMARK  status: ('A' for Active; 'I' for Inactive)
REMARK    1  A    between atoms: C_1  and  C_2
REMARK    2  A    between atoms: C_7  and  N_8
REMARK    3  A    between atoms: C_21  and  S_22
REMARK    4  A    between atoms: S_22  and  C_23
REMARK    5  A    between atoms: C_23  and  C_25
REMARK    6  A    between atoms: C_23  and  C_26
REMARK    7  A    between atoms: N_28  and  C_29
REMARK    8  A    between atoms: C_29  and  C_30
REMARK                            x       y       z     vdW  Elec       q    Type
REMARK                         _______ _______ _______ _____ _____    ______ ____
ROOT
ATOM      1  N   UNL     1       3.593   3.505  -0.014  0.00  0.00    -0.245 N 
ATOM      2  C   UNL     1       3.652   2.157  -0.022  0.00  0.00    +0.268 A 
ATOM      3  O   UNL     1       4.726   1.586  -0.036  0.00  0.00    -0.267 OA
ATOM      4  C   UNL     1       2.395   1.387  -0.013  0.00  0.00    +0.064 A 
ATOM      5  C   UNL     1       2.401  -0.007  -0.021  0.00  0.00    +0.015 A 
ATOM      6  C   UNL     1       1.205  -0.693  -0.013  0.00  0.00    +0.001 A 
ATOM      7  C   UNL     1       0.002  -0.004   0.002  0.00  0.00    +0.002 A 
ATOM      8  C   UNL     1      -0.017   1.377   0.010  0.00  0.00    +0.027 A 
ATOM      9  C   UNL     1       1.176   2.084   0.002  0.00  0.00    +0.064 A 
ATOM     10  N   UNL     1       1.191   3.473   0.009  0.00  0.00    -0.255 N 
ATOM     11  C   UNL     1       2.374   4.164   0.001  0.00  0.00    +0.245 A 
ATOM     12  N   UNL     1       2.069   5.440   0.010  0.00  0.00    -0.109 NA
ATOM     13  N   UNL     1       0.793   5.590   0.024  0.00  0.00    -0.120 NA
ATOM     14  C   UNL     1       0.202   4.419   0.024  0.00  0.00    +0.198 A 
ENDROOT
BRANCH   1  21
ATOM     15  C   UNL     1       4.750   4.216   2.487  0.00  0.00    +0.046 C 
ATOM     16  C   UNL     1       5.378   4.615   1.176  0.00  0.00    -0.026 A 
ATOM     17  C   UNL     1       6.551   5.343   1.165  0.00  0.00    +0.005 A 
ATOM     18  C   UNL     1       7.125   5.716  -0.037  0.00  0.00    +0.000 A 
ATOM     19  C   UNL     1       6.529   5.356  -1.232  0.00  0.00    +0.002 A 
ATOM     20  C   UNL     1       5.358   4.623  -1.228  0.00  0.00    +0.026 A 
ATOM     21  C   UNL     1       4.780   4.247  -0.022  0.00  0.00    +0.056 A 
ENDBRANCH   1  21
BRANCH  14  22
ATOM     22  S   UNL     1      -1.535   4.121   0.038  0.00  0.00    -0.073 S 
BRANCH  22  23
ATOM     23  C   UNL     1      -2.265   5.782   0.054  0.00  0.00    +0.137 C 
ATOM     24  C   UNL     1      -1.900   6.487   1.362  0.00  0.00    +0.029 C 
BRANCH  23  25
ATOM     25  C   UNL     1      -3.764   5.672  -0.056  0.00  0.00    +0.226 C 
ATOM     26  O   UNL     1      -4.327   4.662   0.309  0.00  0.00    -0.275 OA
ATOM     27  N   UNL     1      -4.479   6.698  -0.559  0.00  0.00    -0.310 N 
ATOM     28  H   UNL     1      -3.969   7.614  -0.890  0.00  0.00    +0.149 HD
BRANCH  27  29
ATOM     29  C   UNL     1      -5.936   6.591  -0.666  0.00  0.00    +0.139 C 
BRANCH  29  30
ATOM     30  C   UNL     1      -6.491   7.863  -1.256  0.00  0.00    -0.030 A 
ATOM     31  C   UNL     1      -6.864   8.904  -0.427  0.00  0.00    +0.005 A 
ATOM     32  C   UNL     1      -7.369  10.072  -0.969  0.00  0.00    +0.000 A 
ATOM     33  C   UNL     1      -7.508  10.194  -2.339  0.00  0.00    +0.000 A 
ATOM     34  C   UNL     1      -7.140   9.151  -3.167  0.00  0.00    +0.000 A 
ATOM     35  C   UNL     1      -6.631   7.985  -2.626  0.00  0.00    +0.005 A 
ENDBRANCH  29  30
ENDBRANCH  27  29
ENDBRANCH  23  25
ENDBRANCH  22  23
ENDBRANCH  14  22
TORSDOF 6
