REMARK  Name = ZINC13499335
REMARK  12 active torsions:
REMARK  status: ('A' for Active; 'I' for Inactive)
REMARK    1  A    between atoms: C_1  and  C_2
REMARK    2  A    between atoms: C_2  and  C_3
REMARK    3  A    between atoms: C_3  and  C_4
REMARK    4  A    between atoms: C_4  and  C_6
REMARK    5  A    between atoms: C_4  and  N_75
REMARK    6  A    between atoms: N_10  and  C_11
REMARK    7  A    between atoms: C_11  and  C_12
REMARK    8  A    between atoms: C_12  and  C_13
REMARK    9  A    between atoms: C_19  and  C_20
REMARK   10  A    between atoms: C_19  and  N_75
REMARK   11  A    between atoms: C_25  and  C_32
REMARK   12  A    between atoms: C_33  and  N_75
REMARK                            x       y       z     vdW  Elec       q    Type
REMARK                         _______ _______ _______ _____ _____    ______ ____
ROOT
ATOM      1  N   UNL     1       3.498   2.010   0.575  0.00  0.00    +0.391 N 
ATOM      2  H   UNL     1       3.081   2.902   0.283  0.00  0.00    -0.080 HD
ENDROOT
BRANCH   1   3
ATOM      3  C   UNL     1       2.729   1.473   1.718  0.00  0.00    -0.067 C 
ATOM      4  C   UNL     1       1.563   0.631   1.195  0.00  0.00    -0.015 C 
ATOM      5  C   UNL     1       0.750   0.098   2.376  0.00  0.00    -0.002 C 
ATOM      6  C   UNL     1       0.206   1.271   3.193  0.00  0.00    -0.000 C 
ATOM      7  C   UNL     1       1.372   2.113   3.716  0.00  0.00    -0.002 C 
ATOM      8  C   UNL     1       2.185   2.647   2.534  0.00  0.00    -0.015 C 
ENDBRANCH   1   3
BRANCH   1   9
ATOM      9  C   UNL     1       3.448   1.063  -0.558  0.00  0.00    +0.003 C 
BRANCH   9  10
ATOM     10  C   UNL     1       3.711   1.822  -1.833  0.00  0.00    +0.138 A 
ATOM     11  N   UNL     1       4.615   2.753  -2.017  0.00  0.00    -0.115 NA
ATOM     12  N   UNL     1       4.526   3.158  -3.237  0.00  0.00    -0.023 NA
ATOM     13  N   UNL     1       3.588   2.510  -3.835  0.00  0.00    -0.044 NA
ATOM     14  N   UNL     1       3.062   1.677  -3.003  0.00  0.00    -0.231 N 
BRANCH  14  15
ATOM     15  C   UNL     1       1.963   0.748  -3.279  0.00  0.00    +0.152 C 
BRANCH  15  16
ATOM     16  C   UNL     1       2.533  -0.581  -3.779  0.00  0.00    +0.058 C 
BRANCH  16  17
ATOM     17  C   UNL     1       1.402  -1.536  -4.063  0.00  0.00    -0.046 A 
ATOM     18  C   UNL     1       0.943  -2.379  -3.068  0.00  0.00    +0.004 A 
ATOM     19  C   UNL     1      -0.098  -3.252  -3.327  0.00  0.00    +0.000 A 
ATOM     20  C   UNL     1      -0.671  -3.290  -4.585  0.00  0.00    +0.000 A 
ATOM     21  C   UNL     1      -0.207  -2.451  -5.581  0.00  0.00    +0.000 A 
ATOM     22  C   UNL     1       0.829  -1.575  -5.320  0.00  0.00    +0.004 A 
ENDBRANCH  16  17
ENDBRANCH  15  16
ENDBRANCH  14  15
ENDBRANCH   9  10
BRANCH   9  23
ATOM     23  C   UNL     1       4.506  -0.030  -0.388  0.00  0.00    -0.008 C 
BRANCH  23  25
ATOM     24  C   UNL     1       5.129  -2.070   0.912  0.00  0.00    +0.004 C 
ATOM     25  C   UNL     1       4.162  -0.887   0.832  0.00  0.00    -0.005 C 
ENDBRANCH  23  25
ENDBRANCH   9  23
ENDBRANCH   1   9
BRANCH   1  26
ATOM     26  C   UNL     1       4.901   2.245   0.977  0.00  0.00    -0.036 C 
BRANCH  26  27
ATOM     27  C   UNL     1       4.947   3.422   1.916  0.00  0.00    +0.001 A 
ATOM     28  C   UNL     1       5.030   3.216   3.254  0.00  0.00    +0.017 A 
ATOM     29  C   UNL     1       5.078   4.381   4.139  0.00  0.00    -0.001 A 
ATOM     30  C   UNL     1       5.169   4.232   5.527  0.00  0.00    +0.010 A 
ATOM     31  C   UNL     1       5.206   5.339   6.326  0.00  0.00    +0.004 A 
ATOM     32  C   UNL     1       5.154   6.612   5.773  0.00  0.00    -0.048 A 
ATOM     33  C   UNL     1       5.065   6.782   4.409  0.00  0.00    +0.029 A 
ATOM     34  C   UNL     1       5.025   5.669   3.575  0.00  0.00    +0.049 A 
ATOM     35  N   UNL     1       4.935   5.811   2.207  0.00  0.00    -0.322 N 
ATOM     36  H   UNL     1       4.899   6.700   1.819  0.00  0.00    +0.169 HD
ATOM     37  C   UNL     1       4.897   4.735   1.401  0.00  0.00    +0.251 A 
ATOM     38  O   UNL     1       4.816   4.898   0.196  0.00  0.00    -0.268 OA
ATOM     39  C   UNL     1       5.196   7.818   6.675  0.00  0.00    +0.044 C 
ENDBRANCH  26  27
ENDBRANCH   1  26
TORSDOF 10
