REMARK  Name = ZINC15834223
REMARK  7 active torsions:
REMARK  status: ('A' for Active; 'I' for Inactive)
REMARK    1  A    between atoms: C_1  and  C_2
REMARK    2  A    between atoms: C_6  and  C_8
REMARK    3  A    between atoms: C_20  and  C_22
REMARK    4  A    between atoms: C_25  and  C_29
REMARK    5  A    between atoms: C_27  and  O_28
REMARK    6  A    between atoms: N_30  and  C_37
REMARK    7  A    between atoms: N_33  and  C_36
REMARK                            x       y       z     vdW  Elec       q    Type
REMARK                         _______ _______ _______ _____ _____    ______ ____
ROOT
ATOM      1  C   UNL     1       3.494   4.663   3.471  0.00  0.00    +0.069 A 
ATOM      2  C   UNL     1       4.379   3.654   3.183  0.00  0.00    +0.089 A 
ATOM      3  C   UNL     1       3.975   3.101   1.865  0.00  0.00    +0.082 A 
ATOM      4  C   UNL     1       2.913   3.790   1.474  0.00  0.00    +0.073 A 
ATOM      5  N   UNL     1       2.620   4.752   2.432  0.00  0.00    -0.306 N 
ATOM      6  C   UNL     1       1.544   5.636   2.267  0.00  0.00    +0.068 A 
ATOM      7  C   UNL     1       1.076   6.410   3.311  0.00  0.00    +0.028 A 
ATOM      8  C   UNL     1      -0.021   7.231   3.119  0.00  0.00    +0.002 A 
ATOM      9  C   UNL     1      -0.645   7.279   1.886  0.00  0.00    +0.002 A 
ATOM     10  C   UNL     1      -0.176   6.514   0.834  0.00  0.00    +0.025 A 
ATOM     11  C   UNL     1       0.927   5.694   1.013  0.00  0.00    +0.052 A 
ATOM     12  N   UNL     1       1.426   4.929  -0.047  0.00  0.00    -0.330 N 
ATOM     13  C   UNL     1       2.080   3.639   0.220  0.00  0.00    +0.154 C 
ATOM     14  N   UNL     1       4.719   2.044   1.319  0.00  0.00    -0.294 N 
ATOM     15  C   UNL     1       5.768   1.588   2.040  0.00  0.00    +0.332 A 
ATOM     16  O   UNL     1       6.411   0.672   1.567  0.00  0.00    -0.246 OA
ATOM     17  N   UNL     1       6.157   2.060   3.228  0.00  0.00    -0.263 N 
ATOM     18  C   UNL     1       5.536   3.079   3.876  0.00  0.00    +0.266 A 
ATOM     19  O   UNL     1       5.915   3.489   4.957  0.00  0.00    -0.267 OA
ATOM     20  C   UNL     1       7.320   1.442   3.869  0.00  0.00    +0.157 C 
ATOM     21  C   UNL     1       4.373   1.458   0.022  0.00  0.00    +0.154 C 
ATOM     22  H   UNL     1       1.339   5.250  -0.958  0.00  0.00    +0.147 HD
ENDROOT
BRANCH   1  28
ATOM     23  C   UNL     1       3.284   5.053   8.440  0.00  0.00    +0.044 C 
ATOM     24  C   UNL     1       3.389   5.692   7.079  0.00  0.00    -0.050 A 
ATOM     25  C   UNL     1       3.484   7.068   6.969  0.00  0.00    +0.003 A 
ATOM     26  C   UNL     1       3.583   7.664   5.724  0.00  0.00    +0.001 A 
ATOM     27  C   UNL     1       3.591   6.888   4.583  0.00  0.00    +0.010 A 
ATOM     28  C   UNL     1       3.490   5.499   4.686  0.00  0.00    -0.000 A 
ATOM     29  C   UNL     1       3.392   4.904   5.947  0.00  0.00    +0.013 A 
ENDBRANCH   1  28
BRANCH  13  30
ATOM     30  C   UNL     1       1.037   2.571   0.427  0.00  0.00    +0.020 A 
ATOM     31  C   UNL     1       0.753   2.120   1.701  0.00  0.00    +0.010 A 
ATOM     32  C   UNL     1      -0.205   1.141   1.892  0.00  0.00    +0.004 A 
ATOM     33  C   UNL     1      -0.884   0.614   0.808  0.00  0.00    -0.047 A 
ATOM     34  C   UNL     1      -0.599   1.058  -0.469  0.00  0.00    +0.049 A 
ATOM     35  C   UNL     1       0.361   2.041  -0.662  0.00  0.00    +0.122 A 
ATOM     36  C   UNL     1      -1.931  -0.448   1.020  0.00  0.00    +0.044 C 
BRANCH  35  37
ATOM     37  O   UNL     1       0.639   2.482  -1.917  0.00  0.00    -0.506 OA
ATOM     38  H   UNL     1       0.049   3.182  -2.228  0.00  0.00    +0.292 HD
ENDBRANCH  35  37
ENDBRANCH  13  30
TORSDOF 3
