REMARK  Name = ZINC41076786
REMARK  5 active torsions:
REMARK  status: ('A' for Active; 'I' for Inactive)
REMARK    1  A    between atoms: C_1  and  C_2
REMARK    2  A    between atoms: C_7  and  C_8
REMARK    3  A    between atoms: C_8  and  N_9
REMARK    4  A    between atoms: C_11  and  C_18
REMARK    5  A    between atoms: C_28  and  C_30
REMARK                            x       y       z     vdW  Elec       q    Type
REMARK                         _______ _______ _______ _____ _____    ______ ____
ROOT
ATOM      1  C   UNL     1      -4.128   2.163   3.462  0.00  0.00    +0.026 C 
ATOM      2  C   UNL     1      -3.870   3.519   3.380  0.00  0.00    +0.081 C 
ATOM      3  C   UNL     1      -4.957   4.530   3.483  0.00  0.00    +0.153 C 
ATOM      4  N   UNL     1      -6.021   4.368   4.227  0.00  0.00    -0.283 NA
ATOM      5  N   UNL     1      -4.728   5.682   2.700  0.00  0.00    -0.151 N 
ATOM      6  C   UNL     1      -3.422   5.975   2.367  0.00  0.00    +0.181 C 
ATOM      7  N   UNL     1      -2.357   5.254   2.611  0.00  0.00    -0.152 NA
ATOM      8  C   UNL     1      -2.498   4.043   3.192  0.00  0.00    +0.273 C 
ATOM      9  O   UNL     1      -1.525   3.397   3.549  0.00  0.00    -0.268 OA
ATOM     10  S   UNL     1      -3.587   7.529   1.529  0.00  0.00    -0.030 S 
ATOM     11  C   UNL     1      -5.370   7.639   1.585  0.00  0.00    +0.165 C 
ATOM     12  N   UNL     1      -5.696   6.551   2.245  0.00  0.00    -0.161 NA
ATOM     13  H   UNL     1      -6.701   5.059   4.259  0.00  0.00    +0.188 HD
ENDROOT
BRANCH   1  16
ATOM     14  N   UNL     1      -1.325   0.224   2.307  0.00  0.00    -0.342 N 
ATOM     15  C   UNL     1      -2.141   1.293   2.218  0.00  0.00    +0.095 A 
ATOM     16  C   UNL     1      -3.093   1.232   3.217  0.00  0.00    +0.001 A 
ATOM     17  C   UNL     1      -2.812  -0.003   3.977  0.00  0.00    +0.007 A 
ATOM     18  C   UNL     1      -1.699  -0.591   3.357  0.00  0.00    +0.050 A 
ATOM     19  C   UNL     1      -1.195  -1.788   3.854  0.00  0.00    +0.026 A 
ATOM     20  C   UNL     1      -1.792  -2.385   4.944  0.00  0.00    +0.002 A 
ATOM     21  C   UNL     1      -2.894  -1.805   5.553  0.00  0.00    +0.001 A 
ATOM     22  C   UNL     1      -3.402  -0.613   5.080  0.00  0.00    +0.010 A 
BRANCH  14  23
ATOM     23  C   UNL     1      -0.198  -0.040   1.408  0.00  0.00    +0.157 C 
BRANCH  23  30
ATOM     24  C   UNL     1      -1.461   0.813  -1.046  0.00  0.00    +0.044 C 
ATOM     25  C   UNL     1      -1.211  -0.652  -0.797  0.00  0.00    -0.046 A 
ATOM     26  C   UNL     1      -1.580  -1.588  -1.746  0.00  0.00    +0.004 A 
ATOM     27  C   UNL     1      -1.351  -2.932  -1.517  0.00  0.00    +0.000 A 
ATOM     28  C   UNL     1      -0.751  -3.340  -0.341  0.00  0.00    +0.000 A 
ATOM     29  C   UNL     1      -0.381  -2.405   0.607  0.00  0.00    +0.005 A 
ATOM     30  C   UNL     1      -0.607  -1.060   0.377  0.00  0.00    -0.025 A 
ENDBRANCH  23  30
ENDBRANCH  14  23
ENDBRANCH   1  16
BRANCH  11  31
ATOM     31  C   UNL     1      -6.249   8.684   1.033  0.00  0.00    +0.161 A 
ATOM     32  C   UNL     1      -5.845   9.791   0.351  0.00  0.00    +0.052 A 
ATOM     33  C   UNL     1      -7.009  10.506   0.013  0.00  0.00    +0.042 A 
ATOM     34  C   UNL     1      -8.057   9.810   0.499  0.00  0.00    +0.196 A 
ATOM     35  O   UNL     1      -7.595   8.707   1.110  0.00  0.00    -0.461 OA
ENDBRANCH  11  31
TORSDOF 4
