REMARK  Name = ZINC12603799
REMARK  7 active torsions:
REMARK  status: ('A' for Active; 'I' for Inactive)
REMARK    1  A    between atoms: C_1  and  C_2
REMARK    2  A    between atoms: C_2  and  C_3
REMARK    3  A    between atoms: C_2  and  C_4
REMARK    4  A    between atoms: C_9  and  N_10
REMARK    5  A    between atoms: C_11  and  C_29
REMARK    6  A    between atoms: N_13  and  C_16
REMARK    7  A    between atoms: C_16  and  N_17
REMARK                            x       y       z     vdW  Elec       q    Type
REMARK                         _______ _______ _______ _____ _____    ______ ____
ROOT
ATOM      1  N   UNL     1       1.262   1.771  -0.001  0.00  0.00    -0.271 N 
ATOM      2  C   UNL     1       2.088   0.662  -0.014  0.00  0.00    +0.167 A 
ATOM      3  N   UNL     1       1.344  -0.408  -0.013  0.00  0.00    -0.149 NA
ATOM      4  N   UNL     1       0.002  -0.004   0.002  0.00  0.00    -0.225 N 
ATOM      5  C   UNL     1      -0.016   1.345   0.009  0.00  0.00    +0.184 A 
ATOM      6  S   UNL     1      -1.412   2.336   0.022  0.00  0.00    -0.011 S 
ENDROOT
BRANCH   2   7
ATOM      7  C   UNL     1       3.567   0.686  -0.028  0.00  0.00    +0.020 A 
ATOM      8  C   UNL     1       4.252   1.863   0.278  0.00  0.00    +0.013 A 
ATOM      9  C   UNL     1       5.631   1.878   0.270  0.00  0.00    +0.021 A 
ATOM     10  C   UNL     1       6.336   0.731  -0.053  0.00  0.00    +0.041 A 
ATOM     11  C   UNL     1       5.663  -0.438  -0.363  0.00  0.00    +0.021 A 
ATOM     12  C   UNL     1       4.284  -0.467  -0.352  0.00  0.00    +0.013 A 
ATOM     13 CL   UNL     1       8.072   0.760  -0.070  0.00  0.00    -0.084 Cl
ENDBRANCH   2   7
BRANCH   1  19
ATOM     14  C   UNL     1       1.885   3.775  -1.198  0.00  0.00    -0.021 A 
ATOM     15  C   UNL     1       2.294   5.095  -1.192  0.00  0.00    +0.006 A 
ATOM     16  C   UNL     1       2.512   5.747   0.008  0.00  0.00    +0.000 A 
ATOM     17  C   UNL     1       2.317   5.082   1.205  0.00  0.00    +0.002 A 
ATOM     18  C   UNL     1       1.903   3.765   1.206  0.00  0.00    +0.026 A 
ATOM     19  C   UNL     1       1.683   3.107   0.002  0.00  0.00    +0.054 A 
BRANCH  14  21
ATOM     20  C   UNL     1       0.568   3.794  -3.299  0.00  0.00    +0.012 C 
ATOM     21  C   UNL     1       1.653   3.063  -2.506  0.00  0.00    +0.015 C 
ATOM     22  C   UNL     1       2.952   3.046  -3.314  0.00  0.00    +0.012 C 
ENDBRANCH  14  21
ENDBRANCH   1  19
BRANCH   4  23
ATOM     23  C   UNL     1      -1.168  -0.886   0.008  0.00  0.00    +0.233 C 
BRANCH  23  24
ATOM     24  N   UNL     1      -1.571  -1.173  -1.375  0.00  0.00    -0.281 NA
ATOM     25  C   UNL     1      -2.057   0.041  -2.045  0.00  0.00    +0.105 C 
ATOM     26  C   UNL     1      -2.391  -0.283  -3.503  0.00  0.00    +0.122 C 
ATOM     27  N   UNL     1      -3.406  -1.345  -3.546  0.00  0.00    -0.314 N 
ATOM     28  C   UNL     1      -2.921  -2.560  -2.875  0.00  0.00    +0.122 C 
ATOM     29  C   UNL     1      -2.586  -2.236  -1.417  0.00  0.00    +0.105 C 
ATOM     30  C   UNL     1      -3.788  -1.617  -4.854  0.00  0.00    +0.099 A 
ATOM     31  C   UNL     1      -4.277  -0.591  -5.657  0.00  0.00    +0.042 A 
ATOM     32  C   UNL     1      -4.654  -0.876  -6.957  0.00  0.00    +0.005 A 
ATOM     33  C   UNL     1      -4.528  -2.182  -7.412  0.00  0.00    +0.018 A 
ATOM     34  C   UNL     1      -4.034  -3.150  -6.562  0.00  0.00    +0.084 A 
ATOM     35  N   UNL     1      -3.678  -2.849  -5.327  0.00  0.00    -0.350 N 
ATOM     36  H   UNL     1      -3.281  -3.650  -4.687  0.00  0.00    +0.166 HD
ENDBRANCH  23  24
ENDBRANCH   4  23
TORSDOF 5
