REMARK  Name = ZINC39524736
REMARK  5 active torsions:
REMARK  status: ('A' for Active; 'I' for Inactive)
REMARK    1  A    between atoms: C_4  and  O_7
REMARK    2  A    between atoms: O_7  and  S_8
REMARK    3  A    between atoms: S_8  and  C_11
REMARK    4  A    between atoms: C_22  and  C_25
REMARK    5  A    between atoms: C_30  and  O_31
REMARK                            x       y       z     vdW  Elec       q    Type
REMARK                         _______ _______ _______ _____ _____    ______ ____
ROOT
ATOM      1  C   UNL     1       3.125  -2.313   1.960  0.00  0.00    +0.255 C 
ATOM      2  C   UNL     1       3.260  -3.509   1.015  0.00  0.00    +0.047 C 
ATOM      3  C   UNL     1       2.417  -4.671   1.548  0.00  0.00    +0.005 C 
ATOM      4  C   UNL     1       2.878  -5.018   2.966  0.00  0.00    +0.024 C 
ATOM      5  C   UNL     1       2.755  -3.778   3.855  0.00  0.00    +0.040 C 
ATOM      6  N   UNL     1       3.579  -2.695   3.303  0.00  0.00    -0.186 NA
ATOM      7 CL   UNL     1       3.597  -1.344   4.351  0.00  0.00    -0.019 Cl
ATOM      8  C   UNL     1       1.292  -3.332   3.906  0.00  0.00    +0.024 C 
ATOM      9  C   UNL     1       0.435  -4.462   4.479  0.00  0.00    +0.002 C 
ATOM     10  C   UNL     1       0.915  -4.801   5.892  0.00  0.00    +0.008 C 
ATOM     11  C   UNL     1       2.378  -5.246   5.841  0.00  0.00    +0.024 C 
ATOM     12  C   UNL     1       3.235  -4.116   5.268  0.00  0.00    +0.032 C 
ENDROOT
BRANCH  11  13
ATOM     13  C   UNL     1       2.850  -5.579   7.232  0.00  0.00    -0.003 A 
ATOM     14  C   UNL     1       2.825  -4.614   8.221  0.00  0.00    +0.007 A 
ATOM     15  C   UNL     1       3.259  -4.919   9.498  0.00  0.00    +0.001 A 
ATOM     16  C   UNL     1       3.719  -6.190   9.789  0.00  0.00    +0.004 A 
ATOM     17  C   UNL     1       3.746  -7.159   8.805  0.00  0.00    +0.046 A 
ATOM     18  C   UNL     1       3.306  -6.857   7.524  0.00  0.00    +0.120 A 
BRANCH  18  19
ATOM     19  O   UNL     1       3.326  -7.809   6.555  0.00  0.00    -0.506 OA
ATOM     20  H   UNL     1       4.152  -7.843   6.053  0.00  0.00    +0.292 HD
ENDBRANCH  18  19
ENDBRANCH  11  13
BRANCH   1  21
ATOM     21  S   UNL     1       4.140  -0.941   1.346  0.00  0.00    +0.138 S 
ATOM     22  O   UNL     1       5.471  -1.383   1.113  0.00  0.00    -0.135 OA
ATOM     23  O   UNL     1       3.889   0.232   2.108  0.00  0.00    -0.135 OA
BRANCH  21  24
ATOM     24  O   UNL     1       3.586  -0.632  -0.037  0.00  0.00    -0.345 OA
BRANCH  24  28
ATOM     25  C   UNL     1      -0.017   1.378   0.010  0.00  0.00    +0.000 A 
ATOM     26  C   UNL     1       1.170   2.088   0.002  0.00  0.00    +0.004 A 
ATOM     27  C   UNL     1       2.377   1.417  -0.013  0.00  0.00    +0.048 A 
ATOM     28  C   UNL     1       2.399   0.030  -0.021  0.00  0.00    +0.156 A 
ATOM     29  C   UNL     1       1.207  -0.680  -0.013  0.00  0.00    +0.048 A 
ATOM     30  C   UNL     1       0.002  -0.004   0.002  0.00  0.00    +0.004 A 
ENDBRANCH  24  28
ENDBRANCH  21  24
ENDBRANCH   1  21
TORSDOF 5
