REMARK  Name = ZINC09575750
REMARK  6 active torsions:
REMARK  status: ('A' for Active; 'I' for Inactive)
REMARK    1  A    between atoms: C_1  and  C_2
REMARK    2  A    between atoms: C_10  and  C_12
REMARK    3  A    between atoms: C_15  and  O_19
REMARK    4  A    between atoms: C_16  and  O_18
REMARK    5  A    between atoms: C_23  and  C_26
REMARK    6  A    between atoms: C_29  and  O_32
REMARK                            x       y       z     vdW  Elec       q    Type
REMARK                         _______ _______ _______ _____ _____    ______ ____
ROOT
ATOM      1  C   UNL     1      -5.564   0.170   0.956  0.00  0.00    +0.069 C 
ATOM      2  C   UNL     1      -4.981   1.548   0.778  0.00  0.00    +0.087 A 
ATOM      3  C   UNL     1      -3.679   1.863   0.397  0.00  0.00    +0.049 A 
ATOM      4  C   UNL     1      -3.649   3.234   0.381  0.00  0.00    +0.226 A 
ATOM      5  O   UNL     1      -4.866   3.638   0.730  0.00  0.00    -0.339 OA
ATOM      6  N   UNL     1      -5.597   2.691   0.950  0.00  0.00    -0.081 NA
ATOM      7  N   UNL     1      -2.499   3.919   0.045  0.00  0.00    -0.286 N 
ATOM      8  C   UNL     1      -1.310   3.230   0.008  0.00  0.00    +0.019 C 
ATOM      9  C   UNL     1      -1.251   1.881   0.018  0.00  0.00    +0.024 C 
ATOM     10  C   UNL     1      -2.495   1.017   0.056  0.00  0.00    +0.091 C 
ATOM     11  C   UNL     1      -0.014   1.211   0.009  0.00  0.00    +0.162 C 
ATOM     12  O   UNL     1       0.002  -0.004   0.002  0.00  0.00    -0.292 OA
ATOM     13  C   UNL     1       1.287   1.963   0.000  0.00  0.00    +0.088 C 
ATOM     14  C   UNL     1       1.081   3.321   0.681  0.00  0.00    +0.032 C 
ATOM     15  C   UNL     1      -0.045   4.056  -0.047  0.00  0.00    +0.059 C 
ATOM     16  H   UNL     1      -2.529   4.866  -0.161  0.00  0.00    +0.155 HD
ENDROOT
BRANCH  10  17
ATOM     17  C   UNL     1      -2.703   0.385  -1.296  0.00  0.00    -0.032 A 
ATOM     18  C   UNL     1      -2.876   1.183  -2.412  0.00  0.00    +0.008 A 
ATOM     19  C   UNL     1      -3.066   0.608  -3.655  0.00  0.00    +0.049 A 
ATOM     20  C   UNL     1      -3.083  -0.771  -3.784  0.00  0.00    +0.158 A 
ATOM     21  C   UNL     1      -2.908  -1.575  -2.662  0.00  0.00    +0.159 A 
ATOM     22  C   UNL     1      -2.713  -0.992  -1.420  0.00  0.00    +0.053 A 
BRANCH  21  23
ATOM     23  O   UNL     1      -2.924  -2.929  -2.784  0.00  0.00    -0.503 OA
ATOM     24  H   UNL     1      -2.056  -3.319  -2.954  0.00  0.00    +0.292 HD
ENDBRANCH  21  23
BRANCH  20  25
ATOM     25  O   UNL     1      -3.268  -1.339  -5.006  0.00  0.00    -0.503 OA
ATOM     26  H   UNL     1      -2.449  -1.501  -5.493  0.00  0.00    +0.292 HD
ENDBRANCH  20  25
ENDBRANCH  10  17
BRANCH  14  27
ATOM     27  C   UNL     1       2.352   4.127   0.599  0.00  0.00    -0.043 A 
ATOM     28  C   UNL     1       2.888   4.447  -0.634  0.00  0.00    +0.007 A 
ATOM     29  C   UNL     1       4.049   5.192  -0.712  0.00  0.00    +0.045 A 
ATOM     30  C   UNL     1       4.684   5.608   0.450  0.00  0.00    +0.117 A 
ATOM     31  C   UNL     1       4.146   5.280   1.686  0.00  0.00    +0.045 A 
ATOM     32  C   UNL     1       2.982   4.541   1.758  0.00  0.00    +0.007 A 
BRANCH  30  33
ATOM     33  O   UNL     1       5.830   6.335   0.376  0.00  0.00    -0.507 OA
ATOM     34  H   UNL     1       6.635   5.799   0.363  0.00  0.00    +0.292 HD
ENDBRANCH  30  33
ENDBRANCH  14  27
TORSDOF 5
