REMARK  Name = ZINC09337619
REMARK  4 active torsions:
REMARK  status: ('A' for Active; 'I' for Inactive)
REMARK    1  A    between atoms: C_3  and  C_6
REMARK    2  A    between atoms: C_15  and  C_16
REMARK    3  A    between atoms: C_15  and  N_51
REMARK    4  A    between atoms: N_18  and  C_19
REMARK                            x       y       z     vdW  Elec       q    Type
REMARK                         _______ _______ _______ _____ _____    ______ ____
ROOT
ATOM      1  C   UNL     1      -0.788   1.972   1.153  0.00  0.00    +0.020 C 
ENDROOT
BRANCH   1  10
ATOM      2  C   UNL     1       1.426   1.546   0.270  0.00  0.00    +0.002 C 
ATOM      3  C   UNL     1       2.172   1.030  -0.957  0.00  0.00    -0.046 A 
ATOM      4  C   UNL     1       3.502   0.617  -0.940  0.00  0.00    +0.010 A 
ATOM      5  C   UNL     1       4.087   0.171  -2.076  0.00  0.00    +0.045 A 
ATOM      6  S   UNL     1       2.755   0.316  -3.258  0.00  0.00    -0.101 S 
ATOM      7  C   UNL     1       1.528   0.957  -2.155  0.00  0.00    -0.010 A 
ATOM      8  C   UNL     1       0.110   1.341  -2.430  0.00  0.00    +0.024 C 
ATOM      9  C   UNL     1      -0.395   2.159  -1.230  0.00  0.00    -0.072 C 
ATOM     10  N   UNL     1      -0.028   1.431   0.009  0.00  0.00    +0.393 N 
ATOM     11  H   UNL     1      -0.265   0.439  -0.109  0.00  0.00    -0.080 HD
BRANCH   2  14
ATOM     12  C   UNL     1       2.800   0.025   3.481  0.00  0.00    +0.008 A 
ATOM     13  C   UNL     1       2.641   0.960   2.474  0.00  0.00    +0.010 A 
ATOM     14  C   UNL     1       1.773   0.699   1.467  0.00  0.00    -0.019 A 
ATOM     15  S   UNL     1       1.141  -0.905   1.930  0.00  0.00    -0.103 S 
ATOM     16  C   UNL     1       2.083  -1.124   3.430  0.00  0.00    +0.045 A 
ENDBRANCH   2  14
ENDBRANCH   1  10
BRANCH   1  17
ATOM     17  C   UNL     1      -0.500   3.439   1.342  0.00  0.00    +0.201 C 
ATOM     18  O   UNL     1       0.203   4.026   0.547  0.00  0.00    -0.278 OA
ATOM     19  N   UNL     1      -1.023   4.098   2.395  0.00  0.00    -0.287 N 
ATOM     20  H   UNL     1      -1.531   3.615   3.066  0.00  0.00    +0.155 HD
BRANCH  19  21
ATOM     21  C   UNL     1      -0.834   5.480   2.520  0.00  0.00    +0.037 A 
ATOM     22  C   UNL     1      -1.839   6.272   3.061  0.00  0.00    +0.027 A 
ATOM     23  C   UNL     1      -1.655   7.636   3.187  0.00  0.00    +0.051 A 
ATOM     24  C   UNL     1      -0.466   8.212   2.773  0.00  0.00    +0.162 A 
ATOM     25  C   UNL     1       0.540   7.424   2.232  0.00  0.00    +0.164 A 
ATOM     26  C   UNL     1       0.361   6.057   2.109  0.00  0.00    +0.072 A 
ATOM     27  O   UNL     1       1.707   8.004   1.828  0.00  0.00    -0.488 OA
ATOM     28  C   UNL     1       1.618   8.858   0.686  0.00  0.00    +0.232 C 
ATOM     29  C   UNL     1       1.193  10.260   1.092  0.00  0.00    +0.082 C 
ATOM     30  C   UNL     1      -0.213  10.294   1.670  0.00  0.00    +0.232 C 
ATOM     31  O   UNL     1      -0.276   9.559   2.894  0.00  0.00    -0.488 OA
ENDBRANCH  19  21
ENDBRANCH   1  17
TORSDOF 4
