REMARK  Name = ZINC16780702
REMARK  8 active torsions:
REMARK  status: ('A' for Active; 'I' for Inactive)
REMARK    1  A    between atoms: C_1  and  C_2
REMARK    2  A    between atoms: C_2  and  C_3
REMARK    3  A    between atoms: C_8  and  N_9
REMARK    4  A    between atoms: N_12  and  S_15
REMARK    5  A    between atoms: S_15  and  C_18
REMARK    6  A    between atoms: C_19  and  C_27
REMARK    7  A    between atoms: C_21  and  C_26
REMARK    8  A    between atoms: C_23  and  C_24
REMARK                            x       y       z     vdW  Elec       q    Type
REMARK                         _______ _______ _______ _____ _____    ______ ____
ROOT
ATOM      1  N   UNL     1       2.567  -3.440  -2.610  0.00  0.00    -0.327 N 
ATOM      2  C   UNL     1       3.398  -2.432  -1.938  0.00  0.00    +0.122 C 
ATOM      3  C   UNL     1       3.465  -2.746  -0.440  0.00  0.00    +0.128 C 
ATOM      4  N   UNL     1       2.092  -2.863   0.075  0.00  0.00    -0.174 NA
ATOM      5  C   UNL     1       1.159  -3.757  -0.628  0.00  0.00    +0.128 C 
ATOM      6  C   UNL     1       1.181  -3.399  -2.122  0.00  0.00    +0.122 C 
ENDROOT
BRANCH   1  12
ATOM      7  C   UNL     1       3.176  -4.275  -4.790  0.00  0.00    -0.027 A 
ATOM      8  C   UNL     1       3.221  -4.118  -6.162  0.00  0.00    +0.005 A 
ATOM      9  C   UNL     1       2.706  -2.975  -6.745  0.00  0.00    +0.000 A 
ATOM     10  C   UNL     1       2.145  -1.986  -5.958  0.00  0.00    +0.002 A 
ATOM     11  C   UNL     1       2.093  -2.139  -4.587  0.00  0.00    +0.023 A 
ATOM     12  C   UNL     1       2.614  -3.284  -3.997  0.00  0.00    +0.033 A 
BRANCH   7  14
ATOM     13  C   UNL     1       2.603  -6.516  -3.897  0.00  0.00    +0.009 C 
ATOM     14  C   UNL     1       3.737  -5.522  -4.155  0.00  0.00    +0.033 C 
ENDBRANCH   7  14
ENDBRANCH   1  12
BRANCH   4  15
ATOM     15  S   UNL     1       1.611  -2.016   1.414  0.00  0.00    +0.061 S 
ATOM     16  O   UNL     1       2.769  -1.836   2.218  0.00  0.00    -0.153 OA
ATOM     17  O   UNL     1       0.438  -2.655   1.899  0.00  0.00    -0.153 OA
BRANCH  15  18
ATOM     18  C   UNL     1       1.123  -0.413   0.869  0.00  0.00    +0.112 A 
ATOM     19  C   UNL     1       2.039   0.623   0.859  0.00  0.00    -0.024 A 
ATOM     20  C   UNL     1       1.657   1.880   0.431  0.00  0.00    +0.009 A 
ATOM     21  C   UNL     1       0.358   2.103   0.013  0.00  0.00    -0.036 A 
ATOM     22  C   UNL     1      -0.558   1.067   0.022  0.00  0.00    +0.026 A 
ATOM     23  C   UNL     1      -0.175  -0.191   0.451  0.00  0.00    -0.010 A 
ATOM     24  C   UNL     1      -1.173  -1.320   0.461  0.00  0.00    +0.047 C 
ATOM     25 BR   UNL     1      -2.335   1.371  -0.551  0.00  0.00    -0.050 Br
ATOM     26  C   UNL     1      -0.059   3.474  -0.454  0.00  0.00    +0.045 C 
ATOM     27  C   UNL     1       3.455   0.380   1.315  0.00  0.00    +0.046 C 
ENDBRANCH  15  18
ENDBRANCH   4  15
TORSDOF 4
