REMARK  Name = ZINC63817969
REMARK  8 active torsions:
REMARK  status: ('A' for Active; 'I' for Inactive)
REMARK    1  A    between atoms: C_1  and  O_2
REMARK    2  A    between atoms: O_2  and  C_3
REMARK    3  A    between atoms: C_8  and  C_9
REMARK    4  A    between atoms: N_14  and  C_16
REMARK    5  A    between atoms: C_16  and  C_17
REMARK    6  A    between atoms: N_19  and  C_20
REMARK    7  A    between atoms: C_20  and  C_21
REMARK    8  A    between atoms: C_21  and  C_22
REMARK                            x       y       z     vdW  Elec       q    Type
REMARK                         _______ _______ _______ _____ _____    ______ ____
ROOT
ATOM      1  C   UNL     1       0.064  -2.829  -0.056  0.00  0.00    +0.052 C 
ATOM      2  C   UNL     1      -0.442  -2.239   1.023  0.00  0.00    +0.007 C 
ATOM      3  C   UNL     1      -1.066  -3.023   2.140  0.00  0.00    +0.126 C 
ATOM      4  C   UNL     1      -0.687  -4.474   2.066  0.00  0.00    +0.236 C 
ATOM      5  O   UNL     1      -0.843  -5.176   3.042  0.00  0.00    -0.274 OA
ATOM      6  N   UNL     1      -0.180  -5.014   0.944  0.00  0.00    -0.213 N 
ATOM      7  N   UNL     1       0.033  -4.216  -0.189  0.00  0.00    -0.261 N 
ATOM      8  H   UNL     1       0.161  -4.626  -1.059  0.00  0.00    +0.170 HD
ENDROOT
BRANCH   1  14
ATOM      9  C   UNL     1       1.984  -2.224  -1.532  0.00  0.00    +0.132 A 
ATOM     10  C   UNL     1       2.534  -1.450  -2.541  0.00  0.00    +0.084 A 
ATOM     11  C   UNL     1       1.779  -0.459  -3.144  0.00  0.00    +0.127 A 
ATOM     12  C   UNL     1       0.471  -0.235  -2.742  0.00  0.00    +0.039 A 
ATOM     13  C   UNL     1      -0.088  -0.998  -1.739  0.00  0.00    +0.016 A 
ATOM     14  C   UNL     1       0.662  -2.003  -1.129  0.00  0.00    +0.039 A 
ATOM     15  F   UNL     1       2.319   0.294  -4.127  0.00  0.00    -0.205 F 
BRANCH   9  17
ATOM     16  C   UNL     1       4.065  -3.365  -1.401  0.00  0.00    +0.277 C 
ATOM     17  O   UNL     1       2.723  -3.197  -0.939  0.00  0.00    -0.494 OA
ENDBRANCH   9  17
ENDBRANCH   1  14
BRANCH   6  18
ATOM     18  C   UNL     1       0.144  -6.442   0.904  0.00  0.00    +0.226 C 
BRANCH  18  19
ATOM     19  C   UNL     1       1.528  -6.658   1.462  0.00  0.00    +0.232 C 
ATOM     20  O   UNL     1       2.178  -5.712   1.854  0.00  0.00    -0.274 OA
ATOM     21  N   UNL     1       2.042  -7.902   1.525  0.00  0.00    -0.314 N 
ATOM     22  H   UNL     1       1.522  -8.658   1.211  0.00  0.00    +0.149 HD
BRANCH  21  23
ATOM     23  C   UNL     1       3.387  -8.112   2.067  0.00  0.00    +0.108 C 
BRANCH  23  24
ATOM     24  C   UNL     1       3.726  -9.603   2.025  0.00  0.00    +0.052 C 
BRANCH  24  25
ATOM     25  C   UNL     1       5.109  -9.820   2.583  0.00  0.00    -0.040 C 
ATOM     26  C   UNL     1       5.431 -10.157   3.853  0.00  0.00    -0.001 A 
ATOM     27  C   UNL     1       4.620 -10.412   5.049  0.00  0.00    +0.010 A 
ATOM     28  C   UNL     1       5.241 -10.736   6.206  0.00  0.00    +0.001 A 
ATOM     29  C   UNL     1       6.637 -10.834   6.290  0.00  0.00    +0.002 A 
ATOM     30  C   UNL     1       7.448 -10.614   5.235  0.00  0.00    +0.026 A 
ATOM     31  C   UNL     1       6.902 -10.267   3.968  0.00  0.00    +0.043 A 
ATOM     32  N   UNL     1       7.469 -10.008   2.815  0.00  0.00    -0.380 N 
ATOM     33  C   UNL     1       6.419  -9.710   1.834  0.00  0.00    +0.144 C 
ATOM     34  H   UNL     1       8.423 -10.017   2.638  0.00  0.00    +0.160 HD
ENDBRANCH  24  25
ENDBRANCH  23  24
ENDBRANCH  21  23
ENDBRANCH  18  19
ENDBRANCH   6  18
TORSDOF 7
