REMARK  Name = ZINC15834792
REMARK  10 active torsions:
REMARK  status: ('A' for Active; 'I' for Inactive)
REMARK    1  A    between atoms: C_1  and  C_2
REMARK    2  A    between atoms: C_2  and  C_3
REMARK    3  A    between atoms: C_3  and  C_4
REMARK    4  A    between atoms: C_4  and  N_5
REMARK    5  A    between atoms: C_8  and  C_15
REMARK    6  A    between atoms: C_9  and  O_14
REMARK    7  A    between atoms: C_18  and  C_21
REMARK    8  A    between atoms: C_24  and  O_28
REMARK    9  A    between atoms: C_25  and  O_27
REMARK   10  A    between atoms: O_28  and  C_29
REMARK                            x       y       z     vdW  Elec       q    Type
REMARK                         _______ _______ _______ _____ _____    ______ ____
ROOT
ATOM      1  C   UNL     1      -4.477   3.111   1.290  0.00  0.00    +0.078 C 
ATOM      2  N   UNL     1      -4.615   2.765   0.056  0.00  0.00    -0.190 NA
ATOM      3  N   UNL     1      -3.557   3.150  -0.765  0.00  0.00    -0.261 N 
ATOM      4  C   UNL     1      -2.559   3.864   0.048  0.00  0.00    +0.125 C 
ATOM      5  C   UNL     1      -3.167   3.853   1.464  0.00  0.00    +0.086 C 
ATOM      6  H   UNL     1      -3.490   2.976  -1.717  0.00  0.00    +0.169 HD
ENDROOT
BRANCH   1  10
ATOM      7  N   UNL     1      -7.512   1.885   3.097  0.00  0.00    -0.288 N 
ATOM      8  C   UNL     1      -6.650   2.132   2.091  0.00  0.00    +0.267 A 
ATOM      9  O   UNL     1      -6.899   1.754   0.960  0.00  0.00    -0.267 OA
ATOM     10  C   UNL     1      -5.444   2.831   2.364  0.00  0.00    +0.122 A 
ATOM     11  C   UNL     1      -5.199   3.249   3.667  0.00  0.00    +0.206 A 
ATOM     12  N   UNL     1      -6.120   2.972   4.641  0.00  0.00    -0.306 N 
ATOM     13  H   UNL     1      -5.957   3.261   5.553  0.00  0.00    +0.171 HD
ATOM     14  C   UNL     1      -7.248   2.302   4.347  0.00  0.00    +0.163 A 
ATOM     15  S   UNL     1      -8.375   1.974   5.593  0.00  0.00    -0.013 S 
BRANCH  11  16
ATOM     16  O   UNL     1      -4.068   3.921   3.967  0.00  0.00    -0.493 OA
ATOM     17  H   UNL     1      -3.948   4.189   4.888  0.00  0.00    +0.294 HD
ENDBRANCH  11  16
BRANCH   7  18
ATOM     18  C   UNL     1      -8.755   1.159   2.823  0.00  0.00    +0.127 C 
BRANCH  18  19
ATOM     19  C   UNL     1      -9.856   2.155   2.453  0.00  0.00    +0.021 C 
BRANCH  19  21
ATOM     20  C   UNL     1     -12.255   2.392   1.796  0.00  0.00    +0.004 C 
ATOM     21  C   UNL     1     -11.154   1.397   2.167  0.00  0.00    -0.002 C 
ENDBRANCH  19  21
ENDBRANCH  18  19
ENDBRANCH   7  18
ENDBRANCH   1  10
BRANCH   4  22
ATOM     22  C   UNL     1      -1.241   3.133   0.031  0.00  0.00    -0.022 A 
ATOM     23  C   UNL     1      -1.219   1.751   0.017  0.00  0.00    +0.009 A 
ATOM     24  C   UNL     1      -0.013   1.076   0.008  0.00  0.00    +0.050 A 
ATOM     25  C   UNL     1       1.178   1.785   0.000  0.00  0.00    +0.161 A 
ATOM     26  C   UNL     1       1.155   3.176   0.008  0.00  0.00    +0.159 A 
ATOM     27  C   UNL     1      -0.057   3.846   0.023  0.00  0.00    +0.054 A 
BRANCH  26  28
ATOM     28  O   UNL     1       2.321   3.877   0.001  0.00  0.00    -0.503 OA
ATOM     29  H   UNL     1       2.650   4.084  -0.884  0.00  0.00    +0.292 HD
ENDBRANCH  26  28
BRANCH  25  30
ATOM     30  O   UNL     1       2.365   1.123  -0.015  0.00  0.00    -0.491 OA
ATOM     31  C   UNL     1       2.312  -0.305  -0.023  0.00  0.00    +0.277 C 
ENDBRANCH  25  30
ENDBRANCH   4  22
TORSDOF 8
