REMARK  Name = ZINC38688556
REMARK  7 active torsions:
REMARK  status: ('A' for Active; 'I' for Inactive)
REMARK    1  A    between atoms: C_1  and  C_2
REMARK    2  A    between atoms: C_10  and  C_11
REMARK    3  A    between atoms: C_11  and  O_13
REMARK    4  A    between atoms: O_13  and  C_14
REMARK    5  A    between atoms: C_21  and  N_37
REMARK    6  A    between atoms: C_22  and  C_35
REMARK    7  A    between atoms: C_23  and  C_25
REMARK                            x       y       z     vdW  Elec       q    Type
REMARK                         _______ _______ _______ _____ _____    ______ ____
ROOT
ATOM      1  C   UNL     1       0.033  -0.767   4.731  0.00  0.00    +0.136 A 
ATOM      2  C   UNL     1      -0.060   0.611   4.876  0.00  0.00    +0.047 A 
ATOM      3  C   UNL     1      -0.092   1.171   6.137  0.00  0.00    +0.012 A 
ATOM      4  C   UNL     1      -0.032   0.366   7.261  0.00  0.00    +0.008 A 
ATOM      5  C   UNL     1       0.061  -1.010   7.122  0.00  0.00    +0.138 A 
ATOM      6  C   UNL     1       0.088  -1.577   5.854  0.00  0.00    +0.093 A 
ATOM      7  O   UNL     1       0.122  -1.816   8.211  0.00  0.00    -0.441 OA
ATOM      8  C   UNL     1      -0.287  -1.360   9.406  0.00  0.00    +0.199 C 
ATOM      9  C   UNL     1      -0.398  -0.036   9.668  0.00  0.00    +0.098 C 
ATOM     10  C   UNL     1      -0.068   0.997   8.627  0.00  0.00    +0.098 C 
ENDROOT
BRANCH  10  11
ATOM     11  C   UNL     1       1.278   1.601   8.933  0.00  0.00    -0.027 A 
ATOM     12  C   UNL     1       2.404   0.839   8.857  0.00  0.00    +0.005 A 
ATOM     13  C   UNL     1       3.657   1.381   9.136  0.00  0.00    +0.001 A 
ATOM     14  C   UNL     1       3.792   2.687   9.495  0.00  0.00    +0.008 A 
ATOM     15  C   UNL     1       2.653   3.505   9.584  0.00  0.00    -0.018 A 
ATOM     16  C   UNL     1       1.379   2.955   9.294  0.00  0.00    -0.014 A 
ATOM     17  C   UNL     1       0.240   3.775   9.378  0.00  0.00    +0.009 A 
ATOM     18  C   UNL     1       0.376   5.082   9.730  0.00  0.00    +0.001 A 
ATOM     19  C   UNL     1       1.630   5.624  10.009  0.00  0.00    +0.001 A 
ATOM     20  C   UNL     1       2.753   4.858   9.951  0.00  0.00    +0.008 A 
ENDBRANCH  10  11
BRANCH   8  21
ATOM     21  N   UNL     1      -0.601  -2.262  10.392  0.00  0.00    -0.328 N 
ATOM     22  H   UNL     1      -0.527  -3.213  10.220  0.00  0.00    +0.145 HD
ATOM     23  H   UNL     1      -0.897  -1.948  11.261  0.00  0.00    +0.145 HD
ENDBRANCH   8  21
BRANCH   9  24
ATOM     24  C   UNL     1      -0.840   0.389  10.962  0.00  0.00    +0.101 C 
ATOM     25  N   UNL     1      -1.191   0.726  11.989  0.00  0.00    -0.191 NA
ENDBRANCH   9  24
BRANCH   1  26
ATOM     26  O   UNL     1       0.064  -1.320   3.491  0.00  0.00    -0.420 OA
BRANCH  26  27
ATOM     27  C   UNL     1      -1.063  -1.898   3.027  0.00  0.00    +0.380 C 
ATOM     28  O   UNL     1      -2.039  -1.992   3.747  0.00  0.00    -0.241 OA
BRANCH  27  38
ATOM     29  C   UNL     1      -3.530  -3.269   1.719  0.00  0.00    +0.048 C 
ATOM     30  C   UNL     1      -2.189  -3.012   1.080  0.00  0.00    +0.010 A 
ATOM     31  C   UNL     1      -1.786  -3.352  -0.283  0.00  0.00    +0.027 A 
ATOM     32  C   UNL     1      -2.426  -3.967  -1.363  0.00  0.00    +0.050 A 
ATOM     33  C   UNL     1      -1.744  -4.143  -2.547  0.00  0.00    +0.124 A 
ATOM     34  C   UNL     1      -0.428  -3.712  -2.669  0.00  0.00    +0.042 A 
ATOM     35  C   UNL     1       0.214  -3.103  -1.612  0.00  0.00    +0.050 A 
ATOM     36  C   UNL     1      -0.454  -2.915  -0.408  0.00  0.00    +0.136 A 
ATOM     37  O   UNL     1      -0.094  -2.366   0.769  0.00  0.00    -0.448 OA
ATOM     38  C   UNL     1      -1.112  -2.413   1.653  0.00  0.00    +0.216 A 
ATOM     39  F   UNL     1      -2.357  -4.737  -3.594  0.00  0.00    -0.205 F 
ENDBRANCH  27  38
ENDBRANCH  26  27
ENDBRANCH   1  26
TORSDOF 6
