REMARK  Name = ZINC14251762
REMARK  5 active torsions:
REMARK  status: ('A' for Active; 'I' for Inactive)
REMARK    1  A    between atoms: C_1  and  C_2
REMARK    2  A    between atoms: C_2  and  C_4
REMARK    3  A    between atoms: C_2  and  N_9
REMARK    4  A    between atoms: C_10  and  C_12
REMARK    5  A    between atoms: N_22  and  C_25
REMARK                            x       y       z     vdW  Elec       q    Type
REMARK                         _______ _______ _______ _____ _____    ______ ____
ROOT
ATOM      1  C   UNL     1       3.852  -1.817   0.381  0.00  0.00    +0.039 A 
ATOM      2  C   UNL     1       2.752  -2.500   0.907  0.00  0.00    +0.014 A 
ATOM      3  C   UNL     1       1.515  -1.896   0.950  0.00  0.00    +0.016 A 
ATOM      4  C   UNL     1       1.363  -0.598   0.467  0.00  0.00    +0.063 A 
ATOM      5  C   UNL     1       2.465   0.094  -0.062  0.00  0.00    +0.056 A 
ATOM      6  C   UNL     1       3.707  -0.519  -0.104  0.00  0.00    +0.039 A 
ATOM      7  N   UNL     1       2.278   1.386  -0.535  0.00  0.00    -0.307 N 
ATOM      8  H   UNL     1       3.030   1.876  -0.903  0.00  0.00    +0.170 HD
ATOM      9  C   UNL     1       1.067   1.965  -0.487  0.00  0.00    +0.334 A 
ATOM     10  O   UNL     1       0.946   3.098  -0.910  0.00  0.00    -0.246 OA
ATOM     11  N   UNL     1      -0.016   1.346   0.009  0.00  0.00    -0.229 N 
ATOM     12  C   UNL     1       0.056   0.088   0.495  0.00  0.00    +0.269 A 
ATOM     13  O   UNL     1      -0.930  -0.465   0.943  0.00  0.00    -0.266 OA
ENDROOT
BRANCH  11  14
ATOM     14  C   UNL     1      -1.247   2.017   0.019  0.00  0.00    +0.054 A 
ATOM     15  C   UNL     1      -1.612   2.785   1.116  0.00  0.00    +0.026 A 
ATOM     16  C   UNL     1      -2.823   3.449   1.120  0.00  0.00    +0.002 A 
ATOM     17  C   UNL     1      -3.676   3.340   0.038  0.00  0.00    +0.000 A 
ATOM     18  C   UNL     1      -3.318   2.571  -1.054  0.00  0.00    +0.002 A 
ATOM     19  C   UNL     1      -2.106   1.910  -1.067  0.00  0.00    +0.026 A 
ENDBRANCH  11  14
BRANCH   1  21
ATOM     20  N   UNL     1       5.321  -3.731   0.807  0.00  0.00    -0.302 N 
ATOM     21  C   UNL     1       5.177  -2.475   0.339  0.00  0.00    +0.245 C 
ATOM     22  O   UNL     1       6.136  -1.883  -0.118  0.00  0.00    -0.270 OA
ATOM     23  H   UNL     1       4.556  -4.203   1.171  0.00  0.00    +0.150 HD
BRANCH  20  25
ATOM     24  C   UNL     1       7.439  -3.986   2.004  0.00  0.00    +0.036 C 
ATOM     25  C   UNL     1       6.632  -4.383   0.765  0.00  0.00    +0.136 C 
BRANCH  25  26
ATOM     26  C   UNL     1       6.450  -5.878   0.743  0.00  0.00    +0.125 A 
ATOM     27  C   UNL     1       7.168  -6.748   0.010  0.00  0.00    +0.046 A 
ATOM     28  C   UNL     1       6.663  -8.037   0.294  0.00  0.00    +0.041 A 
ATOM     29  C   UNL     1       5.667  -7.879   1.184  0.00  0.00    +0.195 A 
ATOM     30  O   UNL     1       5.546  -6.570   1.457  0.00  0.00    -0.466 OA
ENDBRANCH  25  26
ENDBRANCH  20  25
ENDBRANCH   1  21
TORSDOF 4
