REMARK  Name = ZINC63855450
REMARK  5 active torsions:
REMARK  status: ('A' for Active; 'I' for Inactive)
REMARK    1  A    between atoms: C_1  and  C_2
REMARK    2  A    between atoms: C_2  and  C_3
REMARK    3  A    between atoms: C_3  and  C_4
REMARK    4  A    between atoms: N_13  and  C_16
REMARK    5  A    between atoms: C_16  and  C_17
REMARK                            x       y       z     vdW  Elec       q    Type
REMARK                         _______ _______ _______ _____ _____    ______ ____
ROOT
ATOM      1  C   UNL     1       0.543  -2.000  -1.476  0.00  0.00    -0.016 C 
ATOM      2  C   UNL     1      -0.175  -2.958  -2.031  0.00  0.00    -0.002 C 
ATOM      3  C   UNL     1       0.183  -4.396  -1.775  0.00  0.00    +0.126 C 
ATOM      4  C   UNL     1       1.627  -4.503  -1.263  0.00  0.00    +0.133 C 
ATOM      5  S   UNL     1       1.830  -2.826  -0.555  0.00  0.00    -0.110 S 
ATOM      6  N   UNL     1       1.858  -5.537  -0.291  0.00  0.00    -0.288 NA
ATOM      7  C   UNL     1       0.913  -5.624   0.808  0.00  0.00    +0.193 C 
ATOM      8  N   UNL     1      -0.463  -5.568   0.337  0.00  0.00    -0.284 N 
ATOM      9  C   UNL     1      -0.793  -4.974  -0.798  0.00  0.00    +0.226 C 
ATOM     10  O   UNL     1      -1.972  -4.941  -1.084  0.00  0.00    -0.275 OA
ATOM     11  H   UNL     1       1.975  -6.434  -0.738  0.00  0.00    +0.124 HD
ENDROOT
BRANCH   1  12
ATOM     12  C   UNL     1       0.326  -0.513  -1.600  0.00  0.00    +0.041 C 
BRANCH  12  14
ATOM     13  C   UNL     1      -0.647   1.502  -0.489  0.00  0.00    +0.004 C 
ATOM     14  C   UNL     1      -0.509  -0.020  -0.416  0.00  0.00    +0.002 C 
ENDBRANCH  12  14
ENDBRANCH   1  12
BRANCH   8  15
ATOM     15  C   UNL     1      -1.516  -6.160   1.166  0.00  0.00    +0.155 C 
BRANCH  15  16
ATOM     16  C   UNL     1      -1.696  -7.632   0.788  0.00  0.00    +0.192 C 
ATOM     17  N   UNL     1      -0.419  -8.345   0.920  0.00  0.00    -0.362 N 
ATOM     18  C   UNL     1      -0.110  -8.813  -0.255  0.00  0.00    +0.060 A 
ATOM     19  C   UNL     1       1.030  -9.598  -0.748  0.00  0.00    +0.029 A 
ATOM     20  C   UNL     1       1.084  -9.947  -2.049  0.00  0.00    +0.022 A 
ATOM     21  C   UNL     1       0.084  -9.590  -2.972  0.00  0.00    +0.043 A 
ATOM     22  C   UNL     1      -1.004  -8.870  -2.623  0.00  0.00    +0.047 A 
ATOM     23  C   UNL     1      -1.168  -8.434  -1.231  0.00  0.00    +0.062 A 
ATOM     24  N   UNL     1      -2.092  -7.746  -0.621  0.00  0.00    -0.362 N 
ATOM     25 CL   UNL     1       0.255 -10.094  -4.624  0.00  0.00    -0.083 Cl
ATOM     26  H   UNL     1       0.100  -8.448   1.733  0.00  0.00    +0.162 HD
ATOM     27  H   UNL     1      -2.894  -7.378  -1.024  0.00  0.00    +0.162 HD
ENDBRANCH  15  16
ENDBRANCH   8  15
TORSDOF 4
