REMARK  Name = ZINC63472955
REMARK  8 active torsions:
REMARK  status: ('A' for Active; 'I' for Inactive)
REMARK    1  A    between atoms: C_1  and  C_2
REMARK    2  A    between atoms: C_2  and  C_3
REMARK    3  A    between atoms: C_6  and  N_9
REMARK    4  A    between atoms: C_14  and  C_35
REMARK    5  A    between atoms: C_17  and  C_22
REMARK    6  A    between atoms: C_17  and  C_32
REMARK    7  A    between atoms: C_22  and  C_23
REMARK    8  A    between atoms: C_40  and  O_41
REMARK                            x       y       z     vdW  Elec       q    Type
REMARK                         _______ _______ _______ _____ _____    ______ ____
ROOT
ATOM      1  N   UNL     1       2.609  -2.067   4.669  0.00  0.00    -0.210 N 
ATOM      2  C   UNL     1       3.969  -2.252   4.654  0.00  0.00    +0.229 C 
ATOM      3  O   UNL     1       4.752  -1.913   3.792  0.00  0.00    -0.275 OA
ATOM      4  C   UNL     1       4.262  -2.939   5.887  0.00  0.00    +0.077 C 
ATOM      5  C   UNL     1       5.384  -3.201   6.804  0.00  0.00    -0.023 C 
ATOM      6  N   UNL     1       4.688  -3.815   7.987  0.00  0.00    +0.396 N 
ATOM      7  C   UNL     1       3.262  -3.372   7.958  0.00  0.00    +0.052 C 
ATOM      8  C   UNL     1       3.207  -2.290   6.869  0.00  0.00    +0.086 C 
ATOM      9  C   UNL     1       2.059  -2.299   5.898  0.00  0.00    +0.229 C 
ATOM     10  O   UNL     1       0.887  -2.478   6.154  0.00  0.00    -0.275 OA
ATOM     11  H   UNL     1       4.734  -4.821   7.927  0.00  0.00    -0.083 HD
ATOM     12  H   UNL     1       5.125  -3.503   8.841  0.00  0.00    -0.083 HD
ENDROOT
BRANCH   1  16
ATOM     13  C   UNL     1       0.397  -0.908   1.331  0.00  0.00    -0.048 A 
ATOM     14  C   UNL     1       1.766  -1.077   1.227  0.00  0.00    +0.005 A 
ATOM     15  C   UNL     1       2.501  -1.461   2.332  0.00  0.00    +0.024 A 
ATOM     16  C   UNL     1       1.865  -1.677   3.547  0.00  0.00    +0.044 A 
ATOM     17  C   UNL     1       0.491  -1.506   3.648  0.00  0.00    +0.024 A 
ATOM     18  C   UNL     1      -0.238  -1.118   2.541  0.00  0.00    +0.005 A 
BRANCH  13  20
ATOM     19  C   UNL     1      -0.470   1.038   0.062  0.00  0.00    +0.009 C 
ATOM     20  C   UNL     1      -0.402  -0.489   0.124  0.00  0.00    +0.032 C 
ENDBRANCH  13  20
ENDBRANCH   1  16
BRANCH   5  21
ATOM     21  C   UNL     1       6.363  -4.170   6.193  0.00  0.00    -0.019 A 
ATOM     22  C   UNL     1       5.994  -4.928   5.098  0.00  0.00    +0.005 A 
ATOM     23  C   UNL     1       6.891  -5.817   4.537  0.00  0.00    +0.000 A 
ATOM     24  C   UNL     1       8.160  -5.952   5.070  0.00  0.00    +0.004 A 
ATOM     25  C   UNL     1       8.534  -5.197   6.164  0.00  0.00    +0.045 A 
ATOM     26  C   UNL     1       7.637  -4.299   6.726  0.00  0.00    +0.118 A 
BRANCH  26  27
ATOM     27  O   UNL     1       8.005  -3.551   7.799  0.00  0.00    -0.507 OA
ATOM     28  H   UNL     1       7.821  -3.969   8.652  0.00  0.00    +0.292 HD
ENDBRANCH  26  27
ENDBRANCH   5  21
BRANCH   7  29
ATOM     29  C   UNL     1       2.873  -2.777   9.288  0.00  0.00    +0.347 C 
ATOM     30  O   UNL     1       3.682  -2.741  10.199  0.00  0.00    -0.248 OA
ATOM     31  O   UNL     1       1.750  -2.332   9.451  0.00  0.00    -0.248 OA
ENDBRANCH   7  29
BRANCH   7  32
ATOM     32  C   UNL     1       2.348  -4.550   7.617  0.00  0.00    +0.033 C 
BRANCH  32  33
ATOM     33  C   UNL     1       2.481  -5.613   8.676  0.00  0.00    -0.042 C 
ATOM     34  C   UNL     1       1.688  -5.786   9.758  0.00  0.00    -0.001 A 
ATOM     35  C   UNL     1       0.511  -5.063  10.254  0.00  0.00    +0.010 A 
ATOM     36  C   UNL     1      -0.083  -5.482  11.395  0.00  0.00    +0.001 A 
ATOM     37  C   UNL     1       0.396  -6.586  12.114  0.00  0.00    +0.002 A 
ATOM     38  C   UNL     1       1.472  -7.300  11.721  0.00  0.00    +0.026 A 
ATOM     39  C   UNL     1       2.175  -6.948  10.536  0.00  0.00    +0.043 A 
ATOM     40  N   UNL     1       3.227  -7.473   9.956  0.00  0.00    -0.380 N 
ATOM     41  C   UNL     1       3.524  -6.706   8.742  0.00  0.00    +0.144 C 
ATOM     42  H   UNL     1       3.724  -8.243  10.275  0.00  0.00    +0.160 HD
ENDBRANCH  32  33
ENDBRANCH   7  32
TORSDOF 7
