REMARK  Name = ZINC13499049
REMARK  12 active torsions:
REMARK  status: ('A' for Active; 'I' for Inactive)
REMARK    1  A    between atoms: C_1  and  C_2
REMARK    2  A    between atoms: C_4  and  C_38
REMARK    3  A    between atoms: C_7  and  C_14
REMARK    4  A    between atoms: C_14  and  N_76
REMARK    5  A    between atoms: C_15  and  N_76
REMARK    6  A    between atoms: C_21  and  C_23
REMARK    7  A    between atoms: C_21  and  C_35
REMARK    8  A    between atoms: C_21  and  N_76
REMARK    9  A    between atoms: N_27  and  C_28
REMARK   10  A    between atoms: C_28  and  C_29
REMARK   11  A    between atoms: C_35  and  C_36
REMARK   12  A    between atoms: C_35  and  C_37
REMARK                            x       y       z     vdW  Elec       q    Type
REMARK                         _______ _______ _______ _____ _____    ______ ____
ROOT
ATOM      1  N   UNL     1      -2.276   3.238   2.271  0.00  0.00    +0.391 N 
ATOM      2  H   UNL     1      -2.438   4.188   1.917  0.00  0.00    -0.080 HD
ENDROOT
BRANCH   1   3
ATOM      3  C   UNL     1      -1.158   2.630   1.519  0.00  0.00    -0.067 C 
ATOM      4  C   UNL     1       0.067   3.539   1.632  0.00  0.00    -0.015 C 
ATOM      5  C   UNL     1       1.227   2.934   0.838  0.00  0.00    -0.002 C 
ATOM      6  C   UNL     1       1.564   1.552   1.401  0.00  0.00    -0.000 C 
ATOM      7  C   UNL     1       0.338   0.642   1.289  0.00  0.00    -0.002 C 
ATOM      8  C   UNL     1      -0.821   1.248   2.083  0.00  0.00    -0.015 C 
ENDBRANCH   1   3
BRANCH   1   9
ATOM      9  C   UNL     1      -3.505   2.438   2.084  0.00  0.00    -0.036 C 
BRANCH   9  16
ATOM     10  C   UNL     1      -6.135   3.323  -5.394  0.00  0.00    +0.044 C 
ATOM     11  C   UNL     1      -5.531   2.964  -4.061  0.00  0.00    -0.048 A 
ATOM     12  C   UNL     1      -4.740   1.829  -3.948  0.00  0.00    +0.007 A 
ATOM     13  C   UNL     1      -4.184   1.485  -2.749  0.00  0.00    -0.041 A 
ATOM     14  C   UNL     1      -4.412   2.284  -1.624  0.00  0.00    +0.002 A 
ATOM     15  C   UNL     1      -3.831   1.946  -0.324  0.00  0.00    +0.017 A 
ATOM     16  C   UNL     1      -4.087   2.758   0.732  0.00  0.00    +0.001 A 
ATOM     17  C   UNL     1      -4.902   3.899   0.569  0.00  0.00    +0.251 A 
ATOM     18  O   UNL     1      -5.124   4.613   1.532  0.00  0.00    -0.268 OA
ATOM     19  N   UNL     1      -5.436   4.221  -0.623  0.00  0.00    -0.322 N 
ATOM     20  H   UNL     1      -5.989   5.014  -0.700  0.00  0.00    +0.169 HD
ATOM     21  C   UNL     1      -5.213   3.437  -1.734  0.00  0.00    +0.050 A 
ATOM     22  C   UNL     1      -5.770   3.766  -2.966  0.00  0.00    +0.029 A 
ATOM     23  C   UNL     1      -3.326   0.250  -2.638  0.00  0.00    +0.044 C 
ENDBRANCH   9  16
ENDBRANCH   1   9
BRANCH   1  24
ATOM     24  C   UNL     1      -1.936   3.313   3.708  0.00  0.00    +0.006 C 
BRANCH  24  25
ATOM     25  C   UNL     1      -2.067   1.958   4.353  0.00  0.00    +0.138 A 
ATOM     26  N   UNL     1      -3.118   1.175   4.322  0.00  0.00    -0.115 NA
ATOM     27  N   UNL     1      -2.838   0.107   4.986  0.00  0.00    -0.023 NA
ATOM     28  N   UNL     1      -1.639   0.191   5.446  0.00  0.00    -0.044 NA
ATOM     29  N   UNL     1      -1.130   1.318   5.077  0.00  0.00    -0.228 N 
BRANCH  29  30
ATOM     30  C   UNL     1       0.215   1.808   5.387  0.00  0.00    +0.178 C 
BRANCH  30  31
ATOM     31  C   UNL     1       0.211   2.470   6.766  0.00  0.00    +0.140 C 
ATOM     32  C   UNL     1       1.623   3.001   7.096  0.00  0.00    +0.035 C 
ATOM     33  C   UNL     1       1.754   2.669   8.608  0.00  0.00    +0.031 C 
ATOM     34  C   UNL     1       0.956   1.344   8.689  0.00  0.00    +0.160 C 
ATOM     35  O   UNL     1      -0.134   1.505   7.767  0.00  0.00    -0.375 OA
ENDBRANCH  30  31
ENDBRANCH  29  30
ENDBRANCH  24  25
BRANCH  24  36
ATOM     36  C   UNL     1      -2.892   4.296   4.387  0.00  0.00    -0.024 C 
ATOM     37  C   UNL     1      -2.578   4.360   5.883  0.00  0.00    +0.006 C 
ATOM     38  C   UNL     1      -2.718   5.685   3.770  0.00  0.00    +0.006 C 
ENDBRANCH  24  36
ENDBRANCH   1  24
TORSDOF 8
