REMARK  Name = ZINC35392934
REMARK  14 active torsions:
REMARK  status: ('A' for Active; 'I' for Inactive)
REMARK    1  A    between atoms: C_1  and  C_2
REMARK    2  A    between atoms: C_2  and  N_3
REMARK    3  A    between atoms: N_3  and  C_4
REMARK    4  A    between atoms: N_3  and  C_6
REMARK    5  A    between atoms: C_4  and  C_5
REMARK    6  A    between atoms: C_6  and  C_7
REMARK    7  A    between atoms: C_7  and  C_8
REMARK    8  A    between atoms: C_8  and  C_9
REMARK    9  A    between atoms: C_9  and  C_11
REMARK   10  A    between atoms: C_9  and  N_12
REMARK   11  A    between atoms: C_13  and  C_15
REMARK   12  A    between atoms: C_15  and  C_16
REMARK   13  A    between atoms: C_16  and  C_18
REMARK   14  A    between atoms: C_16  and  C_23
REMARK                            x       y       z     vdW  Elec       q    Type
REMARK                         _______ _______ _______ _____ _____    ______ ____
ROOT
ATOM      1  C   UNL     1       1.769  -3.271  -7.506  0.00  0.00    +0.108 C 
ENDROOT
BRANCH   1   3
ATOM      2  N   UNL     1       1.586  -3.981  -5.144  0.00  0.00    -0.313 N 
ATOM      3  C   UNL     1       2.361  -3.823  -6.235  0.00  0.00    +0.214 C 
ATOM      4  O   UNL     1       3.535  -4.124  -6.194  0.00  0.00    -0.276 OA
ATOM      5  H   UNL     1       0.647  -3.740  -5.176  0.00  0.00    +0.149 HD
BRANCH   2   6
ATOM      6  C   UNL     1       2.162  -4.517  -3.908  0.00  0.00    +0.070 C 
ATOM      7  C   UNL     1       2.147  -6.046  -3.960  0.00  0.00    +0.028 C 
BRANCH   6   8
ATOM      8  C   UNL     1       1.336  -4.039  -2.711  0.00  0.00    +0.020 C 
BRANCH   8   9
ATOM      9  C   UNL     1       1.453  -2.519  -2.586  0.00  0.00    -0.017 C 
BRANCH   9  10
ATOM     10  C   UNL     1       0.628  -2.041  -1.389  0.00  0.00    -0.079 C 
BRANCH  10  11
ATOM     11  N   UNL     1       0.827  -0.598  -1.203  0.00  0.00    +0.379 N 
ATOM     12  H   UNL     1       1.813  -0.402  -1.119  0.00  0.00    -0.082 HD
BRANCH  11  14
ATOM     13  C   UNL     1       0.597   1.616  -2.224  0.00  0.00    -0.017 C 
ATOM     14  C   UNL     1       0.280   0.126  -2.359  0.00  0.00    -0.082 C 
ENDBRANCH  11  14
BRANCH  11  15
ATOM     15  C   UNL     1       0.136  -0.162   0.018  0.00  0.00    -0.082 C 
ATOM     16  C   UNL     1       0.810  -0.793   1.238  0.00  0.00    -0.017 C 
ENDBRANCH  11  15
ENDBRANCH  10  11
ENDBRANCH   9  10
ENDBRANCH   8   9
ENDBRANCH   6   8
ENDBRANCH   2   6
ENDBRANCH   1   3
BRANCH   1  17
ATOM     17  C   UNL     1       2.853  -3.194  -8.582  0.00  0.00    +0.060 C 
BRANCH  17  18
ATOM     18  C   UNL     1       2.236  -2.759  -9.887  0.00  0.00    -0.015 A 
ATOM     19  C   UNL     1       1.589  -1.607 -10.119  0.00  0.00    +0.087 A 
ATOM     20  N   UNL     1       1.168  -1.562 -11.420  0.00  0.00    -0.360 N 
ATOM     21  H   UNL     1       0.677  -0.828 -11.822  0.00  0.00    +0.165 HD
ATOM     22  C   UNL     1       1.544  -2.714 -12.074  0.00  0.00    +0.047 A 
ATOM     23  C   UNL     1       2.236  -3.512 -11.144  0.00  0.00    +0.003 A 
ATOM     24  C   UNL     1       2.745  -4.752 -11.533  0.00  0.00    +0.010 A 
ATOM     25  C   UNL     1       2.573  -5.183 -12.818  0.00  0.00    +0.001 A 
ATOM     26  C   UNL     1       1.895  -4.398 -13.740  0.00  0.00    +0.002 A 
ATOM     27  C   UNL     1       1.376  -3.175 -13.375  0.00  0.00    +0.026 A 
ENDBRANCH  17  18
BRANCH  17  28
ATOM     28  C   UNL     1       3.904  -2.196  -8.166  0.00  0.00    -0.032 A 
ATOM     29  C   UNL     1       5.219  -2.589  -8.005  0.00  0.00    +0.012 A 
ATOM     30  C   UNL     1       6.139  -1.667  -7.630  0.00  0.00    +0.045 A 
ATOM     31  S   UNL     1       5.146  -0.190  -7.493  0.00  0.00    -0.105 S 
ATOM     32  C   UNL     1       3.573  -0.900  -7.950  0.00  0.00    +0.049 A 
ENDBRANCH  17  28
ENDBRANCH   1  17
TORSDOF 11
