REMARK  Name = ZINC11292359
REMARK  7 active torsions:
REMARK  status: ('A' for Active; 'I' for Inactive)
REMARK    1  A    between atoms: C_3  and  C_26
REMARK    2  A    between atoms: C_5  and  N_7
REMARK    3  A    between atoms: C_11  and  C_12
REMARK    4  A    between atoms: C_15  and  O_19
REMARK    5  A    between atoms: O_19  and  C_20
REMARK    6  A    between atoms: C_20  and  C_21
REMARK    7  A    between atoms: C_21  and  O_22
REMARK                            x       y       z     vdW  Elec       q    Type
REMARK                         _______ _______ _______ _____ _____    ______ ____
ROOT
ATOM      1  N   UNL     1       8.412   2.838   0.249  0.00  0.00    -0.224 N 
ATOM      2  C   UNL     1       7.478   3.620   0.763  0.00  0.00    +0.263 C 
ATOM      3  O   UNL     1       7.755   4.662   1.328  0.00  0.00    -0.269 OA
ATOM      4  C   UNL     1       6.081   3.165   0.618  0.00  0.00    +0.078 C 
ATOM      5  C   UNL     1       4.932   3.751   1.040  0.00  0.00    +0.029 C 
ATOM      6  S   UNL     1       6.319   1.626  -0.259  0.00  0.00    -0.061 S 
ATOM      7  C   UNL     1       8.100   1.685  -0.376  0.00  0.00    +0.125 C 
ATOM      8  S   UNL     1       9.156   0.548  -1.100  0.00  0.00    -0.027 S 
ENDROOT
BRANCH   5   9
ATOM      9  C   UNL     1       3.634   3.193   0.643  0.00  0.00    -0.010 A 
ATOM     10  C   UNL     1       3.548   2.323  -0.452  0.00  0.00    +0.012 A 
ATOM     11  C   UNL     1       2.329   1.798  -0.816  0.00  0.00    +0.046 A 
ATOM     12  C   UNL     1       1.182   2.137  -0.107  0.00  0.00    +0.122 A 
ATOM     13  C   UNL     1       1.260   2.998   0.980  0.00  0.00    +0.061 A 
ATOM     14  C   UNL     1       2.475   3.527   1.358  0.00  0.00    +0.028 A 
ATOM     15 BR   UNL     1       2.580   4.699   2.838  0.00  0.00    -0.050 Br
BRANCH  12  16
ATOM     16  O   UNL     1      -0.018   1.619  -0.475  0.00  0.00    -0.490 OA
BRANCH  16  17
ATOM     17  C   UNL     1      -0.027   0.739  -1.601  0.00  0.00    +0.256 C 
BRANCH  17  18
ATOM     18  C   UNL     1      -1.457   0.260  -1.862  0.00  0.00    +0.196 C 
BRANCH  18  19
ATOM     19  O   UNL     1      -2.269   1.372  -2.244  0.00  0.00    -0.392 OA
ATOM     20  H   UNL     1      -3.191   1.142  -2.425  0.00  0.00    +0.210 HD
ENDBRANCH  18  19
ENDBRANCH  17  18
ENDBRANCH  16  17
ENDBRANCH  12  16
ENDBRANCH   5   9
BRANCH   1  25
ATOM     21  C   UNL     1      11.860   3.110   1.515  0.00  0.00    +0.003 A 
ATOM     22  C   UNL     1      12.424   3.958   0.583  0.00  0.00    +0.015 A 
ATOM     23  C   UNL     1      11.653   4.444  -0.474  0.00  0.00    +0.065 A 
ATOM     24  C   UNL     1      10.313   4.070  -0.585  0.00  0.00    +0.039 A 
ATOM     25  C   UNL     1       9.757   3.218   0.355  0.00  0.00    +0.043 A 
ATOM     26  C   UNL     1      10.531   2.743   1.408  0.00  0.00    +0.024 A 
BRANCH  23  27
ATOM     27  C   UNL     1      12.254   5.353  -1.473  0.00  0.00    +0.387 C 
ATOM     28  O   UNL     1      11.581   5.775  -2.392  0.00  0.00    -0.241 OA
ATOM     29  O   UNL     1      13.547   5.713  -1.364  0.00  0.00    -0.241 OA
ENDBRANCH  23  27
ENDBRANCH   1  25
TORSDOF 7
