REMARK  Name = ZINC20812946
REMARK  8 active torsions:
REMARK  status: ('A' for Active; 'I' for Inactive)
REMARK    1  A    between atoms: C_1  and  C_2
REMARK    2  A    between atoms: C_2  and  C_3
REMARK    3  A    between atoms: C_8  and  N_9
REMARK    4  A    between atoms: C_10  and  C_12
REMARK    5  A    between atoms: C_12  and  N_13
REMARK    6  A    between atoms: N_16  and  C_19
REMARK    7  A    between atoms: C_19  and  C_20
REMARK    8  A    between atoms: C_31  and  C_33
REMARK                            x       y       z     vdW  Elec       q    Type
REMARK                         _______ _______ _______ _____ _____    ______ ____
ROOT
ATOM      1  N   UNL     1       4.341   6.993   2.761  0.00  0.00    +0.387 N 
ATOM      2  C   UNL     1       4.979   5.743   3.196  0.00  0.00    -0.063 C 
ATOM      3  C   UNL     1       4.822   4.686   2.100  0.00  0.00    +0.066 C 
ATOM      4  N   UNL     1       3.394   4.477   1.825  0.00  0.00    -0.298 NA
ATOM      5  C   UNL     1       2.756   5.728   1.390  0.00  0.00    +0.066 C 
ATOM      6  C   UNL     1       2.913   6.785   2.486  0.00  0.00    -0.063 C 
ATOM      7  H   UNL     1       4.824   7.314   1.826  0.00  0.00    -0.081 HD
ENDROOT
BRANCH   1   8
ATOM      8  C   UNL     1       4.536   8.057   3.756  0.00  0.00    +0.019 C 
BRANCH   8  10
ATOM      9  N   UNL     1       6.400   9.447   4.599  0.00  0.00    -0.287 N 
ATOM     10  C   UNL     1       5.995   8.431   3.811  0.00  0.00    +0.201 C 
ATOM     11  O   UNL     1       6.804   7.819   3.147  0.00  0.00    -0.278 OA
ATOM     12  H   UNL     1       5.677   9.960   5.250  0.00  0.00    +0.155 HD
BRANCH   9  18
ATOM     13  C   UNL     1       8.080  11.148   4.941  0.00  0.00    -0.026 A 
ATOM     14  C   UNL     1       9.404  11.541   4.930  0.00  0.00    +0.005 A 
ATOM     15  C   UNL     1      10.391  10.643   4.569  0.00  0.00    +0.000 A 
ATOM     16  C   UNL     1      10.056   9.347   4.218  0.00  0.00    +0.002 A 
ATOM     17  C   UNL     1       8.734   8.947   4.232  0.00  0.00    +0.023 A 
ATOM     18  C   UNL     1       7.740   9.849   4.589  0.00  0.00    +0.036 A 
BRANCH  13  20
ATOM     19  C   UNL     1       6.687  11.965   6.823  0.00  0.00    +0.009 C 
ATOM     20  C   UNL     1       7.005  12.128   5.335  0.00  0.00    +0.033 C 
ENDBRANCH  13  20
ENDBRANCH   9  18
ENDBRANCH   8  10
ENDBRANCH   1   8
BRANCH   4  21
ATOM     21  C   UNL     1       3.199   3.413   0.831  0.00  0.00    +0.181 C 
BRANCH  21  22
ATOM     22  C   UNL     1       1.736   3.058   0.755  0.00  0.00    +0.235 C 
ATOM     23  O   UNL     1       0.926   3.685   1.404  0.00  0.00    -0.274 OA
ATOM     24  N   UNL     1       1.329   2.045  -0.035  0.00  0.00    -0.256 N 
ATOM     25  C   UNL     1      -0.009   1.614  -0.033  0.00  0.00    +0.079 A 
ATOM     26  C   UNL     1      -0.870   2.026   0.971  0.00  0.00    +0.027 A 
ATOM     27  C   UNL     1      -2.187   1.606   0.965  0.00  0.00    +0.002 A 
ATOM     28  C   UNL     1      -2.644   0.775  -0.042  0.00  0.00    +0.004 A 
ATOM     29  C   UNL     1      -1.789   0.360  -1.046  0.00  0.00    +0.047 A 
ATOM     30  C   UNL     1      -0.466   0.776  -1.047  0.00  0.00    +0.142 A 
ATOM     31  O   UNL     1       0.369   0.361  -2.035  0.00  0.00    -0.488 OA
ATOM     32  C   UNL     1       1.556   1.122  -2.268  0.00  0.00    +0.256 C 
ATOM     33  C   UNL     1       2.271   1.349  -0.928  0.00  0.00    +0.149 C 
BRANCH  33  34
ATOM     34  C   UNL     1       2.662   0.024  -0.327  0.00  0.00    -0.023 A 
ATOM     35  C   UNL     1       1.724  -0.732   0.352  0.00  0.00    +0.005 A 
ATOM     36  C   UNL     1       2.082  -1.949   0.899  0.00  0.00    +0.000 A 
ATOM     37  C   UNL     1       3.381  -2.407   0.777  0.00  0.00    +0.000 A 
ATOM     38  C   UNL     1       4.320  -1.649   0.103  0.00  0.00    +0.000 A 
ATOM     39  C   UNL     1       3.961  -0.434  -0.449  0.00  0.00    +0.005 A 
ENDBRANCH  33  34
ENDBRANCH  21  22
ENDBRANCH   4  21
TORSDOF 7
