REMARK  Name = ZINC43236863
REMARK  6 active torsions:
REMARK  status: ('A' for Active; 'I' for Inactive)
REMARK    1  A    between atoms: C_1  and  C_2
REMARK    2  A    between atoms: C_7  and  N_8
REMARK    3  A    between atoms: N_11  and  N_12
REMARK    4  A    between atoms: N_15  and  C_16
REMARK    5  A    between atoms: C_16  and  C_18
REMARK    6  A    between atoms: C_16  and  C_19
REMARK                            x       y       z     vdW  Elec       q    Type
REMARK                         _______ _______ _______ _____ _____    ______ ____
ROOT
ATOM      1  N   UNL     1      -0.139   1.403   4.748  0.00  0.00    -0.217 N 
ATOM      2  C   UNL     1      -0.256   2.061   5.918  0.00  0.00    +0.316 C 
ATOM      3  O   UNL     1      -0.291   3.277   5.930  0.00  0.00    -0.251 OA
ATOM      4  N   UNL     1      -0.335   1.373   7.074  0.00  0.00    -0.292 N 
ATOM      5  H   UNL     1      -0.083   1.898   3.916  0.00  0.00    +0.174 HD
ATOM      6  H   UNL     1      -0.307   0.403   7.064  0.00  0.00    +0.151 HD
ENDROOT
BRANCH   1  10
ATOM      7  N   UNL     1       0.096   0.032   2.407  0.00  0.00    -0.268 N 
ATOM      8  C   UNL     1       0.018  -0.657   3.563  0.00  0.00    +0.320 C 
ATOM      9  O   UNL     1       0.052  -1.872   3.551  0.00  0.00    -0.251 OA
ATOM     10  N   UNL     1      -0.099   0.002   4.733  0.00  0.00    -0.217 N 
ATOM     11  H   UNL     1       0.130   1.001   2.421  0.00  0.00    +0.156 HD
ATOM     12  H   UNL     1      -0.156  -0.493   5.565  0.00  0.00    +0.174 HD
BRANCH   7  19
ATOM     13  C   UNL     1      -1.190   1.221   0.165  0.00  0.00    +0.045 C 
ATOM     14  C   UNL     1      -0.485  -0.107   0.067  0.00  0.00    -0.029 A 
ATOM     15  C   UNL     1      -0.445  -0.782  -1.138  0.00  0.00    +0.005 A 
ATOM     16  C   UNL     1       0.201  -2.001  -1.228  0.00  0.00    +0.000 A 
ATOM     17  C   UNL     1       0.809  -2.549  -0.113  0.00  0.00    +0.002 A 
ATOM     18  C   UNL     1       0.773  -1.879   1.094  0.00  0.00    +0.023 A 
ATOM     19  C   UNL     1       0.130  -0.652   1.187  0.00  0.00    +0.038 A 
ENDBRANCH   7  19
ENDBRANCH   1  10
BRANCH   4  20
ATOM     20  C   UNL     1      -0.462   2.089   8.345  0.00  0.00    +0.102 C 
ATOM     21  C   UNL     1      -1.943   2.304   8.664  0.00  0.00    +0.033 C 
BRANCH  20  22
ATOM     22  C   UNL     1       0.176   1.278   9.444  0.00  0.00    -0.020 A 
ATOM     23  C   UNL     1       0.272  -0.075   9.329  0.00  0.00    +0.006 A 
ATOM     24  C   UNL     1       0.858  -0.841  10.334  0.00  0.00    +0.001 A 
ATOM     25  C   UNL     1       1.351  -0.258  11.461  0.00  0.00    +0.008 A 
ATOM     26  C   UNL     1       1.270   1.136  11.616  0.00  0.00    -0.018 A 
ATOM     27  C   UNL     1       0.680   1.916  10.591  0.00  0.00    -0.013 A 
ATOM     28  C   UNL     1       0.604   3.311  10.743  0.00  0.00    +0.009 A 
ATOM     29  C   UNL     1       1.102   3.893  11.867  0.00  0.00    +0.001 A 
ATOM     30  C   UNL     1       1.689   3.127  12.873  0.00  0.00    +0.001 A 
ATOM     31  C   UNL     1       1.768   1.773  12.766  0.00  0.00    +0.008 A 
ENDBRANCH  20  22
ENDBRANCH   4  20
TORSDOF 4
