REMARK  Name = ZINC63456377
REMARK  9 active torsions:
REMARK  status: ('A' for Active; 'I' for Inactive)
REMARK    1  A    between atoms: C_1  and  C_2
REMARK    2  A    between atoms: C_2  and  N_3
REMARK    3  A    between atoms: N_3  and  C_4
REMARK    4  A    between atoms: C_10  and  C_12
REMARK    5  A    between atoms: C_12  and  O_13
REMARK    6  A    between atoms: O_13  and  N_14
REMARK    7  A    between atoms: C_15  and  C_16
REMARK    8  A    between atoms: C_17  and  N_27
REMARK    9  A    between atoms: N_23  and  C_26
REMARK                            x       y       z     vdW  Elec       q    Type
REMARK                         _______ _______ _______ _____ _____    ______ ____
ROOT
ATOM      1  N   UNL     1      -1.521  -0.731   4.845  0.00  0.00    -0.068 NA
ATOM      2  C   UNL     1      -2.232  -0.888   5.926  0.00  0.00    +0.169 C 
ATOM      3  N   UNL     1      -1.658  -0.680   7.169  0.00  0.00    -0.340 N 
ATOM      4  H   UNL     1      -0.749  -0.348   7.233  0.00  0.00    +0.144 HD
ATOM      5  H   UNL     1      -2.165  -0.867   7.974  0.00  0.00    +0.144 HD
ENDROOT
BRANCH   2   6
ATOM      6  C   UNL     1      -3.649  -1.287   5.825  0.00  0.00    +0.098 C 
ATOM      7  C   UNL     1      -4.648  -0.532   5.274  0.00  0.00    +0.041 C 
ATOM      8  C   UNL     1      -5.904  -1.349   5.399  0.00  0.00    +0.076 C 
ATOM      9  C   UNL     1      -6.973  -0.594   6.211  0.00  0.00    +0.032 C 
ATOM     10  C   UNL     1      -8.291  -1.264   5.744  0.00  0.00    +0.003 C 
ATOM     11  C   UNL     1      -8.069  -1.537   4.242  0.00  0.00    +0.003 C 
ATOM     12  C   UNL     1      -6.544  -1.600   4.027  0.00  0.00    +0.032 C 
ATOM     13  N   UNL     1      -5.534  -2.599   6.053  0.00  0.00    -0.289 N 
ATOM     14  C   UNL     1      -4.208  -2.556   6.294  0.00  0.00    +0.252 C 
ATOM     15  O   UNL     1      -3.568  -3.443   6.828  0.00  0.00    -0.270 OA
ATOM     16  C   UNL     1      -6.437  -3.704   6.383  0.00  0.00    +0.133 C 
BRANCH   7  17
ATOM     17  N   UNL     1      -4.529   0.706   4.725  0.00  0.00    -0.359 N 
ATOM     18  H   UNL     1      -3.681   1.174   4.762  0.00  0.00    +0.142 HD
ATOM     19  H   UNL     1      -5.294   1.122   4.295  0.00  0.00    +0.142 HD
ENDBRANCH   7  17
ENDBRANCH   2   6
BRANCH   1  20
ATOM     20  O   UNL     1      -2.074  -1.052   3.581  0.00  0.00    -0.383 OA
BRANCH  20  21
ATOM     21  C   UNL     1      -1.184  -0.832   2.485  0.00  0.00    +0.358 C 
BRANCH  21  23
ATOM     22  N   UNL     1      -1.220  -1.079   0.024  0.00  0.00    -0.296 N 
ATOM     23  C   UNL     1      -1.872  -1.205   1.197  0.00  0.00    +0.256 C 
ATOM     24  O   UNL     1      -3.012  -1.619   1.216  0.00  0.00    -0.272 OA
BRANCH  22  25
ATOM     25  C   UNL     1      -1.889  -1.441  -1.228  0.00  0.00    +0.076 C 
ATOM     26  C   UNL     1      -3.141  -0.579  -1.406  0.00  0.00    +0.022 C 
ATOM     27  C   UNL     1      -3.839  -0.958  -2.713  0.00  0.00    +0.002 C 
ATOM     28  C   UNL     1      -4.238  -2.434  -2.670  0.00  0.00    +0.000 C 
ATOM     29  C   UNL     1      -2.987  -3.296  -2.492  0.00  0.00    +0.002 C 
ATOM     30  C   UNL     1      -2.288  -2.917  -1.184  0.00  0.00    +0.022 C 
ENDBRANCH  22  25
BRANCH  22  32
ATOM     31  C   UNL     1       0.144   0.945  -0.135  0.00  0.00    +0.024 C 
ATOM     32  C   UNL     1       0.157  -0.579   0.001  0.00  0.00    +0.105 C 
ENDBRANCH  22  32
ENDBRANCH  21  23
ENDBRANCH  20  21
ENDBRANCH   1  20
TORSDOF 7
