REMARK  Name = ZINC10475036
REMARK  12 active torsions:
REMARK  status: ('A' for Active; 'I' for Inactive)
REMARK    1  A    between atoms: C_1  and  N_2
REMARK    2  A    between atoms: C_3  and  S_7
REMARK    3  A    between atoms: S_7  and  C_8
REMARK    4  A    between atoms: C_8  and  C_9
REMARK    5  A    between atoms: C_9  and  N_49
REMARK    6  A    between atoms: C_10  and  C_11
REMARK    7  A    between atoms: C_10  and  N_49
REMARK    8  A    between atoms: C_15  and  O_25
REMARK    9  A    between atoms: C_16  and  O_17
REMARK   10  A    between atoms: O_17  and  C_18
REMARK   11  A    between atoms: C_18  and  C_19
REMARK   12  A    between atoms: O_25  and  C_26
REMARK                            x       y       z     vdW  Elec       q    Type
REMARK                         _______ _______ _______ _____ _____    ______ ____
ROOT
ATOM      1  C   UNL     1       2.405   0.034  -0.021  0.00  0.00    -0.018 A 
ATOM      2  C   UNL     1       2.380   1.416  -0.013  0.00  0.00    +0.020 A 
ATOM      3  C   UNL     1       1.172   2.089   0.002  0.00  0.00    +0.022 A 
ATOM      4  C   UNL     1      -0.017   1.381   0.010  0.00  0.00    +0.064 A 
ATOM      5  C   UNL     1       0.002  -0.004   0.002  0.00  0.00    +0.163 A 
ATOM      6  C   UNL     1       1.218  -0.681  -0.013  0.00  0.00    +0.164 A 
ATOM      7 BR   UNL     1       1.145   3.980   0.012  0.00  0.00    -0.050 Br
ENDROOT
BRANCH   5   8
ATOM      8  O   UNL     1      -1.165  -0.701   0.009  0.00  0.00    -0.491 OA
ATOM      9  C   UNL     1      -2.375   0.059   0.024  0.00  0.00    +0.277 C 
ENDBRANCH   5   8
BRANCH   1  10
ATOM     10  C   UNL     1       3.724  -0.696  -0.037  0.00  0.00    -0.043 C 
BRANCH  10  11
ATOM     11  N   UNL     1       4.016  -1.135  -1.414  0.00  0.00    +0.382 N 
ATOM     12  H   UNL     1       3.268  -1.760  -1.737  0.00  0.00    -0.085 HD
ATOM     13  H   UNL     1       4.065  -0.314  -2.028  0.00  0.00    -0.085 HD
BRANCH  11  14
ATOM     14  C   UNL     1       5.304  -1.854  -1.460  0.00  0.00    -0.071 C 
BRANCH  14  15
ATOM     15  C   UNL     1       5.580  -2.296  -2.898  0.00  0.00    +0.058 C 
BRANCH  15  16
ATOM     16  S   UNL     1       7.159  -3.179  -2.965  0.00  0.00    -0.086 S 
BRANCH  16  19
ATOM     17  C   UNL     1       9.438  -4.777  -4.737  0.00  0.00    +0.177 C 
ATOM     18  N   UNL     1       8.213  -4.229  -5.323  0.00  0.00    -0.223 N 
ATOM     19  C   UNL     1       7.223  -3.561  -4.684  0.00  0.00    +0.209 A 
ATOM     20  N   UNL     1       6.322  -3.246  -5.589  0.00  0.00    -0.102 NA
ATOM     21  N   UNL     1       6.677  -3.675  -6.746  0.00  0.00    -0.022 NA
ATOM     22  N   UNL     1       7.811  -4.285  -6.669  0.00  0.00    -0.043 NA
ENDBRANCH  16  19
ENDBRANCH  15  16
ENDBRANCH  14  15
ENDBRANCH  11  14
ENDBRANCH  10  11
ENDBRANCH   1  10
BRANCH   6  23
ATOM     23  O   UNL     1       1.242  -2.041  -0.020  0.00  0.00    -0.484 OA
BRANCH  23  24
ATOM     24  C   UNL     1       1.240  -2.683  -1.297  0.00  0.00    +0.264 C 
BRANCH  24  25
ATOM     25  C   UNL     1       1.268  -4.178  -1.107  0.00  0.00    -0.010 A 
ATOM     26  C   UNL     1       2.477  -4.843  -1.037  0.00  0.00    +0.007 A 
ATOM     27  C   UNL     1       2.502  -6.214  -0.858  0.00  0.00    +0.000 A 
ATOM     28  C   UNL     1       1.318  -6.920  -0.760  0.00  0.00    +0.000 A 
ATOM     29  C   UNL     1       0.108  -6.255  -0.835  0.00  0.00    +0.000 A 
ATOM     30  C   UNL     1       0.083  -4.884  -1.009  0.00  0.00    +0.007 A 
ENDBRANCH  24  25
ENDBRANCH  23  24
ENDBRANCH   6  23
TORSDOF 10
