REMARK  Name = ZINC15229964
REMARK  12 active torsions:
REMARK  status: ('A' for Active; 'I' for Inactive)
REMARK    1  A    between atoms: C_1  and  C_2
REMARK    2  A    between atoms: C_5  and  S_8
REMARK    3  A    between atoms: S_8  and  N_11
REMARK    4  A    between atoms: N_11  and  C_12
REMARK    5  A    between atoms: C_12  and  C_14
REMARK    6  A    between atoms: C_12  and  C_30
REMARK    7  A    between atoms: C_14  and  C_15
REMARK    8  A    between atoms: N_17  and  N_18
REMARK    9  A    between atoms: C_19  and  C_20
REMARK   10  A    between atoms: C_23  and  O_26
REMARK   11  A    between atoms: O_26  and  C_27
REMARK   12  A    between atoms: C_27  and  C_28
REMARK                            x       y       z     vdW  Elec       q    Type
REMARK                         _______ _______ _______ _____ _____    ______ ____
ROOT
ATOM      1  C   UNL     1       2.457   1.002  -0.016  0.00  0.00    +0.115 C 
ENDROOT
BRANCH   1   2
ATOM      2  C   UNL     1       3.747   1.770  -0.148  0.00  0.00    -0.028 A 
ATOM      3  C   UNL     1       4.306   2.377   0.960  0.00  0.00    +0.005 A 
ATOM      4  C   UNL     1       5.491   3.078   0.840  0.00  0.00    +0.000 A 
ATOM      5  C   UNL     1       6.113   3.179  -0.390  0.00  0.00    +0.000 A 
ATOM      6  C   UNL     1       5.551   2.575  -1.500  0.00  0.00    +0.000 A 
ATOM      7  C   UNL     1       4.368   1.871  -1.379  0.00  0.00    +0.005 A 
ENDBRANCH   1   2
BRANCH   1   8
ATOM      8  N   UNL     1       2.471   0.234   1.232  0.00  0.00    -0.182 NA
ATOM      9  H   UNL     1       2.198   0.654   2.062  0.00  0.00    +0.149 HD
BRANCH   8  10
ATOM     10  S   UNL     1       2.953  -1.350   1.224  0.00  0.00    +0.059 S 
ATOM     11  O   UNL     1       2.883  -1.803   2.569  0.00  0.00    -0.153 OA
ATOM     12  O   UNL     1       2.243  -1.985   0.168  0.00  0.00    -0.153 OA
BRANCH  10  17
ATOM     13  C   UNL     1       8.784  -1.434  -0.323  0.00  0.00    +0.044 C 
ATOM     14  C   UNL     1       7.328  -1.413   0.063  0.00  0.00    -0.050 A 
ATOM     15  C   UNL     1       6.967  -1.315   1.394  0.00  0.00    +0.005 A 
ATOM     16  C   UNL     1       5.631  -1.296   1.748  0.00  0.00    +0.029 A 
ATOM     17  C   UNL     1       4.655  -1.375   0.772  0.00  0.00    +0.105 A 
ATOM     18  C   UNL     1       5.016  -1.477  -0.559  0.00  0.00    +0.029 A 
ATOM     19  C   UNL     1       6.352  -1.492  -0.913  0.00  0.00    +0.005 A 
ENDBRANCH  10  17
ENDBRANCH   8  10
ENDBRANCH   1   8
BRANCH   1  20
ATOM     20  C   UNL     1       1.280   1.980   0.001  0.00  0.00    +0.122 C 
BRANCH  20  21
ATOM     21  C   UNL     1      -0.014   1.209   0.009  0.00  0.00    +0.234 C 
ATOM     22  O   UNL     1       0.002  -0.004   0.002  0.00  0.00    -0.274 OA
ATOM     23  N   UNL     1      -1.191   1.867   0.018  0.00  0.00    -0.207 N 
ATOM     24  H   UNL     1      -1.204   2.837   0.023  0.00  0.00    +0.177 HD
BRANCH  23  25
ATOM     25  N   UNL     1      -2.394   1.150   0.020  0.00  0.00    -0.188 NA
ATOM     26  C   UNL     1      -3.527   1.784   0.029  0.00  0.00    +0.138 C 
BRANCH  26  27
ATOM     27  C   UNL     1      -4.793   1.029   0.030  0.00  0.00    -0.005 A 
ATOM     28  C   UNL     1      -4.777  -0.368   0.017  0.00  0.00    +0.013 A 
ATOM     29  C   UNL     1      -5.963  -1.069   0.024  0.00  0.00    +0.046 A 
ATOM     30  C   UNL     1      -7.174  -0.389   0.034  0.00  0.00    +0.122 A 
ATOM     31  C   UNL     1      -7.196   1.000   0.042  0.00  0.00    +0.046 A 
ATOM     32  C   UNL     1      -6.014   1.709   0.040  0.00  0.00    +0.013 A 
BRANCH  30  33
ATOM     33  O   UNL     1      -8.341  -1.084   0.035  0.00  0.00    -0.477 OA
BRANCH  33  34
ATOM     34  C   UNL     1      -8.247  -2.510   0.026  0.00  0.00    +0.346 C 
BRANCH  34  35
ATOM     35  C   UNL     1      -9.600  -3.091   0.028  0.00  0.00    +0.104 C 
ATOM     36  N   UNL     1     -10.644  -3.539   0.030  0.00  0.00    -0.193 NA
ENDBRANCH  34  35
ENDBRANCH  33  34
ENDBRANCH  30  33
ENDBRANCH  26  27
ENDBRANCH  23  25
ENDBRANCH  20  21
ENDBRANCH   1  20
TORSDOF 11
