REMARK  Name = ZINC38665436
REMARK  12 active torsions:
REMARK  status: ('A' for Active; 'I' for Inactive)
REMARK    1  A    between atoms: C_1  and  C_2
REMARK    2  A    between atoms: C_2  and  C_3
REMARK    3  A    between atoms: C_3  and  O_42
REMARK    4  A    between atoms: C_9  and  O_30
REMARK    5  A    between atoms: C_11  and  O_14
REMARK    6  A    between atoms: O_14  and  C_15
REMARK    7  A    between atoms: C_18  and  N_27
REMARK    8  A    between atoms: C_20  and  O_26
REMARK    9  A    between atoms: C_22  and  C_25
REMARK   10  A    between atoms: N_27  and  C_28
REMARK   11  A    between atoms: N_27  and  C_29
REMARK   12  A    between atoms: C_38  and  O_39
REMARK                            x       y       z     vdW  Elec       q    Type
REMARK                         _______ _______ _______ _____ _____    ______ ____
ROOT
ATOM      1  C   UNL     1       0.650  -0.322  -1.825  0.00  0.00    +0.072 C 
ATOM      2  C   UNL     1       2.081   0.143  -1.566  0.00  0.00    +0.070 C 
ATOM      3  C   UNL     1       3.055  -0.638  -2.410  0.00  0.00    -0.035 A 
ATOM      4  C   UNL     1       4.330  -0.101  -2.580  0.00  0.00    +0.016 A 
ATOM      5  C   UNL     1       5.282  -0.767  -3.337  0.00  0.00    +0.037 A 
ATOM      6  C   UNL     1       4.954  -1.997  -3.938  0.00  0.00    +0.075 A 
ATOM      7  C   UNL     1       3.675  -2.524  -3.765  0.00  0.00    +0.134 A 
ATOM      8  C   UNL     1       2.727  -1.837  -2.998  0.00  0.00    +0.027 A 
ATOM      9  C   UNL     1       1.362  -2.460  -2.862  0.00  0.00    +0.158 C 
ATOM     10  C   UNL     1       0.606  -1.848  -1.685  0.00  0.00    +0.071 C 
ATOM     11  C   UNL     1       5.964  -2.712  -4.743  0.00  0.00    +0.202 C 
ATOM     12  O   UNL     1       5.635  -3.632  -5.467  0.00  0.00    -0.286 OA
ATOM     13  C   UNL     1       7.377  -2.296  -4.659  0.00  0.00    +0.075 A 
ATOM     14  C   UNL     1       7.709  -1.065  -4.060  0.00  0.00    +0.037 A 
ATOM     15  C   UNL     1       9.040  -0.673  -3.980  0.00  0.00    +0.012 A 
ATOM     16  C   UNL     1      10.035  -1.492  -4.490  0.00  0.00    +0.004 A 
ATOM     17  C   UNL     1       9.717  -2.699  -5.078  0.00  0.00    +0.046 A 
ATOM     18  C   UNL     1       8.390  -3.111  -5.169  0.00  0.00    +0.128 A 
ATOM     19  C   UNL     1       6.637  -0.202  -3.519  0.00  0.00    +0.195 C 
ATOM     20  O   UNL     1       6.865   0.956  -3.229  0.00  0.00    -0.287 OA
ENDROOT
BRANCH   1  22
ATOM     21  C   UNL     1      -0.244   1.839  -0.945  0.00  0.00    +0.007 C 
ATOM     22  C   UNL     1      -0.292   0.317  -0.802  0.00  0.00    +0.032 C 
ENDBRANCH   1  22
BRANCH   7  23
ATOM     23  O   UNL     1       3.349  -3.707  -4.341  0.00  0.00    -0.506 OA
ATOM     24  H   UNL     1       3.602  -4.481  -3.820  0.00  0.00    +0.292 HD
ENDBRANCH   7  23
BRANCH  18  25
ATOM     25  O   UNL     1       8.083  -4.299  -5.747  0.00  0.00    -0.506 OA
ATOM     26  H   UNL     1       7.922  -4.242  -6.699  0.00  0.00    +0.292 HD
ENDBRANCH  18  25
BRANCH   1  27
ATOM     27  O   UNL     1       0.253   0.053  -3.145  0.00  0.00    -0.388 OA
ATOM     28  H   UNL     1       0.266   1.007  -3.304  0.00  0.00    +0.210 HD
ENDBRANCH   1  27
BRANCH   9  29
ATOM     29  O   UNL     1       1.505  -3.866  -2.649  0.00  0.00    -0.343 OA
BRANCH  29  30
ATOM     30  C   UNL     1       0.380  -4.636  -3.076  0.00  0.00    +0.250 C 
ATOM     31  C   UNL     1       0.549  -6.086  -2.616  0.00  0.00    +0.049 C 
ATOM     32  C   UNL     1      -0.631  -6.918  -3.129  0.00  0.00    -0.033 C 
ATOM     33  C   UNL     1      -0.703  -6.796  -4.654  0.00  0.00    +0.130 C 
ATOM     34  C   UNL     1      -0.824  -5.318  -5.035  0.00  0.00    +0.145 C 
ATOM     35  O   UNL     1       0.288  -4.597  -4.502  0.00  0.00    -0.346 OA
ATOM     36  C   UNL     1      -0.836  -5.184  -6.559  0.00  0.00    +0.040 C 
BRANCH  32  37
ATOM     37  N   UNL     1      -0.439  -8.325  -2.755  0.00  0.00    +0.380 N 
ATOM     38  C   UNL     1      -0.361  -8.437  -1.292  0.00  0.00    -0.096 C 
ATOM     39  C   UNL     1      -1.572  -9.121  -3.247  0.00  0.00    -0.096 C 
ATOM     40  H   UNL     1       0.416  -8.669  -3.164  0.00  0.00    -0.082 HD
ENDBRANCH  32  37
BRANCH  33  41
ATOM     41  O   UNL     1       0.483  -7.344  -5.233  0.00  0.00    -0.391 OA
ATOM     42  H   UNL     1       0.506  -7.300  -6.199  0.00  0.00    +0.210 HD
ENDBRANCH  33  41
ENDBRANCH  29  30
ENDBRANCH   9  29
TORSDOF 8
