REMARK  Name = ZINC66402167
REMARK  5 active torsions:
REMARK  status: ('A' for Active; 'I' for Inactive)
REMARK    1  A    between atoms: C_1  and  C_2
REMARK    2  A    between atoms: C_7  and  C_11
REMARK    3  A    between atoms: C_11  and  N_12
REMARK    4  A    between atoms: N_15  and  C_16
REMARK    5  A    between atoms: C_18  and  C_24
REMARK                            x       y       z     vdW  Elec       q    Type
REMARK                         _______ _______ _______ _____ _____    ______ ____
ROOT
ATOM      1  N   UNL     1       1.477  -5.978   2.516  0.00  0.00    -0.294 N 
ATOM      2  C   UNL     1       1.755  -7.108   3.195  0.00  0.00    +0.304 C 
ATOM      3  O   UNL     1       0.879  -7.928   3.396  0.00  0.00    -0.252 OA
ATOM      4  N   UNL     1       3.003  -7.331   3.651  0.00  0.00    -0.265 N 
ATOM      5  H   UNL     1       2.175  -5.324   2.355  0.00  0.00    +0.151 HD
ATOM      6  H   UNL     1       3.718  -6.714   3.427  0.00  0.00    +0.157 HD
ENDROOT
BRANCH   4   7
ATOM      7  C   UNL     1       3.269  -8.454   4.447  0.00  0.00    +0.100 A 
ATOM      8  C   UNL     1       4.199  -9.376   4.055  0.00  0.00    +0.042 A 
ATOM      9  C   UNL     1       4.446 -10.490   4.871  0.00  0.00    +0.073 A 
ATOM     10  C   UNL     1       3.768 -10.642   6.031  0.00  0.00    +0.098 A 
ATOM     11  N   UNL     1       2.842  -9.726   6.423  0.00  0.00    -0.327 N 
ATOM     12  H   UNL     1       2.366  -9.853   7.258  0.00  0.00    +0.168 HD
ATOM     13  C   UNL     1       2.584  -8.642   5.667  0.00  0.00    +0.270 A 
ATOM     14  O   UNL     1       1.754  -7.825   6.035  0.00  0.00    -0.266 OA
BRANCH   9  15
ATOM     15  C   UNL     1       5.467 -11.517   4.455  0.00  0.00    +0.419 C 
ATOM     16  F   UNL     1       5.535 -12.525   5.422  0.00  0.00    -0.166 F 
ATOM     17  F   UNL     1       5.094 -12.074   3.227  0.00  0.00    -0.166 F 
ATOM     18  F   UNL     1       6.719 -10.906   4.329  0.00  0.00    -0.166 F 
ENDBRANCH   9  15
ENDBRANCH   4   7
BRANCH   1  19
ATOM     19  C   UNL     1       0.120  -5.736   2.020  0.00  0.00    +0.160 C 
BRANCH  19  26
ATOM     20  C   UNL     1      -0.317   1.345  -0.107  0.00  0.00    +0.044 C 
ATOM     21  C   UNL     1      -0.167  -0.154  -0.149  0.00  0.00    -0.046 A 
ATOM     22  C   UNL     1       0.037  -0.808  -1.375  0.00  0.00    +0.021 A 
ATOM     23  C   UNL     1       0.172  -2.150  -1.417  0.00  0.00    +0.093 A 
ATOM     24  N   UNL     1       0.111  -2.890  -0.271  0.00  0.00    -0.308 N 
ATOM     25  C   UNL     1       0.213  -4.234  -0.031  0.00  0.00    +0.115 A 
ATOM     26  C   UNL     1       0.076  -4.412   1.301  0.00  0.00    +0.051 A 
ATOM     27  N   UNL     1      -0.105  -3.220   1.875  0.00  0.00    -0.342 N 
ATOM     28  C   UNL     1      -0.087  -2.280   0.940  0.00  0.00    +0.116 A 
ATOM     29  C   UNL     1      -0.224  -0.879   1.000  0.00  0.00    +0.048 A 
ATOM     30  H   UNL     1      -0.230  -3.066   2.824  0.00  0.00    +0.167 HD
ENDBRANCH  19  26
ENDBRANCH   1  19
TORSDOF 4
