REMARK  Name = ZINC63138378
REMARK  10 active torsions:
REMARK  status: ('A' for Active; 'I' for Inactive)
REMARK    1  A    between atoms: C_1  and  C_2
REMARK    2  A    between atoms: C_2  and  C_4
REMARK    3  A    between atoms: C_2  and  N_12
REMARK    4  A    between atoms: C_4  and  C_5
REMARK    5  A    between atoms: C_5  and  C_6
REMARK    6  A    between atoms: C_32  and  C_34
REMARK    7  A    between atoms: C_36  and  O_42
REMARK    8  A    between atoms: C_39  and  O_40
REMARK    9  A    between atoms: O_40  and  C_41
REMARK   10  A    between atoms: O_42  and  C_43
REMARK                            x       y       z     vdW  Elec       q    Type
REMARK                         _______ _______ _______ _____ _____    ______ ____
ROOT
ATOM      1  N   UNL     1       0.521  -0.789   1.203  0.00  0.00    -0.288 N 
ATOM      2  C   UNL     1       0.008  -0.417   2.511  0.00  0.00    +0.204 C 
ATOM      3  C   UNL     1       0.905  -0.861   3.617  0.00  0.00    +0.234 C 
ATOM      4  O   UNL     1       0.571  -0.600   4.753  0.00  0.00    -0.274 OA
ATOM      5  N   UNL     1       2.053  -1.528   3.445  0.00  0.00    -0.279 N 
ATOM      6  C   UNL     1       2.550  -1.915   2.129  0.00  0.00    +0.167 C 
ATOM      7  C   UNL     1       1.655  -1.464   1.022  0.00  0.00    +0.237 C 
ATOM      8  O   UNL     1       1.983  -1.727  -0.116  0.00  0.00    -0.274 OA
ATOM      9  C   UNL     1       2.721  -3.444   2.061  0.00  0.00    +0.065 C 
ATOM     10  C   UNL     1       3.427  -3.854   3.330  0.00  0.00    -0.034 C 
ATOM     11  C   UNL     1       4.510  -4.593   3.535  0.00  0.00    -0.001 A 
ATOM     12  C   UNL     1       5.352  -5.374   2.615  0.00  0.00    +0.010 A 
ATOM     13  C   UNL     1       6.419  -6.008   3.171  0.00  0.00    +0.001 A 
ATOM     14  C   UNL     1       6.728  -5.944   4.533  0.00  0.00    +0.002 A 
ATOM     15  C   UNL     1       6.003  -5.258   5.452  0.00  0.00    +0.026 A 
ATOM     16  C   UNL     1       4.851  -4.556   4.990  0.00  0.00    +0.043 A 
ATOM     17  N   UNL     1       3.978  -3.850   5.644  0.00  0.00    -0.375 N 
ATOM     18  C   UNL     1       2.948  -3.404   4.705  0.00  0.00    +0.131 C 
ATOM     19  C   UNL     1       2.836  -1.878   4.651  0.00  0.00    +0.137 C 
ATOM     20  H   UNL     1       4.004  -3.651   6.593  0.00  0.00    +0.160 HD
ENDROOT
BRANCH  19  21
ATOM     21  C   UNL     1       2.130  -1.374   5.883  0.00  0.00    +0.020 A 
ATOM     22  C   UNL     1       1.292  -2.213   6.592  0.00  0.00    +0.054 A 
ATOM     23  C   UNL     1       0.643  -1.749   7.726  0.00  0.00    +0.121 A 
ATOM     24  C   UNL     1       0.835  -0.442   8.149  0.00  0.00    +0.049 A 
ATOM     25  C   UNL     1       1.673   0.398   7.441  0.00  0.00    +0.049 A 
ATOM     26  C   UNL     1       2.326  -0.069   6.309  0.00  0.00    +0.125 A 
BRANCH  26  27
ATOM     27  O   UNL     1       3.156   0.756   5.615  0.00  0.00    -0.495 OA
ATOM     28  C   UNL     1       3.311   2.087   6.111  0.00  0.00    +0.277 C 
ENDBRANCH  26  27
BRANCH  23  29
ATOM     29  O   UNL     1      -0.182  -2.575   8.423  0.00  0.00    -0.495 OA
ATOM     30  C   UNL     1      -0.818  -2.030   9.581  0.00  0.00    +0.277 C 
ENDBRANCH  23  29
ENDBRANCH  19  21
BRANCH   1  32
ATOM     31  C   UNL     1      -0.383   1.119  -0.032  0.00  0.00    +0.028 C 
ATOM     32  C   UNL     1      -0.253  -0.405   0.020  0.00  0.00    +0.074 C 
BRANCH  32  33
ATOM     33  C   UNL     1      -1.645  -1.033   0.096  0.00  0.00    +0.027 C 
BRANCH  33  34
ATOM     34  C   UNL     1      -1.522  -2.556   0.022  0.00  0.00    +0.037 C 
BRANCH  34  35
ATOM     35  C   UNL     1      -2.894  -3.175   0.097  0.00  0.00    -0.047 A 
ATOM     36  C   UNL     1      -3.438  -3.505   1.324  0.00  0.00    +0.003 A 
ATOM     37  C   UNL     1      -4.696  -4.073   1.393  0.00  0.00    +0.000 A 
ATOM     38  C   UNL     1      -5.411  -4.311   0.234  0.00  0.00    +0.000 A 
ATOM     39  C   UNL     1      -4.868  -3.981  -0.994  0.00  0.00    +0.000 A 
ATOM     40  C   UNL     1      -3.611  -3.409  -1.062  0.00  0.00    +0.003 A 
ENDBRANCH  34  35
ENDBRANCH  33  34
ENDBRANCH  32  33
ENDBRANCH   1  32
TORSDOF 7
