REMARK  Name = ZINC44020542
REMARK  10 active torsions:
REMARK  status: ('A' for Active; 'I' for Inactive)
REMARK    1  A    between atoms: C_1  and  C_2
REMARK    2  A    between atoms: C_2  and  C_3
REMARK    3  A    between atoms: C_3  and  C_4
REMARK    4  A    between atoms: C_15  and  O_39
REMARK    5  A    between atoms: C_23  and  C_38
REMARK    6  A    between atoms: C_26  and  O_37
REMARK    7  A    between atoms: C_29  and  C_36
REMARK    8  A    between atoms: C_30  and  C_32
REMARK    9  A    between atoms: C_32  and  C_34
REMARK   10  A    between atoms: C_34  and  O_35
REMARK                            x       y       z     vdW  Elec       q    Type
REMARK                         _______ _______ _______ _____ _____    ______ ____
ROOT
ATOM      1  C   UNL     1      -1.635  -2.151  -0.261  0.00  0.00    +0.252 C 
ATOM      2  O   UNL     1      -0.818  -2.472   0.876  0.00  0.00    -0.345 OA
ATOM      3  C   UNL     1      -1.699  -2.490   2.008  0.00  0.00    +0.161 C 
ATOM      4  C   UNL     1      -1.382  -3.733   2.880  0.00  0.00    +0.039 C 
ATOM      5  C   UNL     1      -2.774  -4.261   3.244  0.00  0.00    +0.004 C 
ATOM      6  C   UNL     1      -2.839  -5.722   3.651  0.00  0.00    +0.002 C 
ATOM      7  C   UNL     1      -2.023  -5.944   4.926  0.00  0.00    +0.040 C 
ATOM      8  C   UNL     1      -2.059  -7.428   5.308  0.00  0.00    +0.142 C 
ATOM      9  C   UNL     1      -3.511  -7.850   5.425  0.00  0.00    -0.028 C 
ATOM     10  C   UNL     1      -3.913  -8.470   6.526  0.00  0.00    +0.053 C 
ATOM     11  C   UNL     1      -5.318  -8.876   6.685  0.00  0.00    +0.179 C 
ATOM     12  O   UNL     1      -5.682  -9.481   7.676  0.00  0.00    -0.288 OA
ATOM     13  C   UNL     1      -6.273  -8.534   5.618  0.00  0.00    +0.047 C 
ATOM     14  C   UNL     1      -5.848  -7.921   4.524  0.00  0.00    -0.012 C 
ATOM     15  C   UNL     1      -4.428  -7.544   4.277  0.00  0.00    +0.015 C 
ATOM     16  C   UNL     1      -4.317  -6.066   3.895  0.00  0.00    +0.035 C 
ATOM     17  C   UNL     1      -5.173  -5.779   2.665  0.00  0.00    +0.120 C 
ATOM     18  C   UNL     1      -5.000  -4.332   2.178  0.00  0.00    +0.042 C 
ATOM     19  C   UNL     1      -3.531  -4.108   1.898  0.00  0.00    +0.012 C 
ATOM     20  C   UNL     1      -3.122  -2.698   1.414  0.00  0.00    +0.164 C 
ATOM     21  O   UNL     1      -2.931  -2.714  -0.012  0.00  0.00    -0.334 OA
ATOM     22  C   UNL     1      -3.047  -5.169   0.908  0.00  0.00    +0.015 C 
ATOM     23  C   UNL     1      -3.938  -8.337   3.064  0.00  0.00    +0.020 C 
ENDROOT
BRANCH  20  24
ATOM     24  C   UNL     1      -4.085  -1.629   1.861  0.00  0.00    +0.193 C 
ATOM     25  O   UNL     1      -3.943  -1.101   2.938  0.00  0.00    -0.292 OA
BRANCH  24  26
ATOM     26  C   UNL     1      -5.226  -1.220   0.966  0.00  0.00    +0.233 C 
BRANCH  26  27
ATOM     27  O   UNL     1      -5.922  -0.119   1.554  0.00  0.00    -0.387 OA
ATOM     28  H   UNL     1      -6.670   0.198   1.030  0.00  0.00    +0.210 HD
ENDBRANCH  26  27
ENDBRANCH  24  26
ENDBRANCH  20  24
BRANCH  17  29
ATOM     29  O   UNL     1      -6.547  -5.998   2.992  0.00  0.00    -0.391 OA
ATOM     30  H   UNL     1      -7.156  -5.836   2.259  0.00  0.00    +0.210 HD
ENDBRANCH  17  29
BRANCH   8  31
ATOM     31  O   UNL     1      -1.410  -8.202   4.298  0.00  0.00    -0.387 OA
ATOM     32  H   UNL     1      -1.397  -9.152   4.478  0.00  0.00    +0.210 HD
ENDBRANCH   8  31
BRANCH   1  33
ATOM     33  C   UNL     1      -1.745  -0.632  -0.414  0.00  0.00    +0.061 C 
BRANCH  33  35
ATOM     34  C   UNL     1      -0.492   1.459  -0.962  0.00  0.00    +0.004 C 
ATOM     35  C   UNL     1      -0.382  -0.060  -0.808  0.00  0.00    +0.002 C 
ENDBRANCH  33  35
ENDBRANCH   1  33
TORSDOF 7
