REMARK  Name = ZINC57580809
REMARK  3 active torsions:
REMARK  status: ('A' for Active; 'I' for Inactive)
REMARK    1  A    between atoms: C_3  and  C_7
REMARK    2  A    between atoms: C_7  and  N_8
REMARK    3  A    between atoms: N_16  and  C_17
REMARK                            x       y       z     vdW  Elec       q    Type
REMARK                         _______ _______ _______ _____ _____    ______ ____
ROOT
ATOM      1  N   UNL     1       4.238  -0.643   0.567  0.00  0.00    -0.297 NA
ATOM      2  C   UNL     1       4.341  -0.615   2.033  0.00  0.00    +0.103 C 
ATOM      3  C   UNL     1       4.826  -1.979   2.534  0.00  0.00    +0.124 C 
ATOM      4  N   UNL     1       6.072  -2.319   1.830  0.00  0.00    -0.283 N 
ATOM      5  C   UNL     1       6.086  -2.237   0.361  0.00  0.00    +0.124 C 
ATOM      6  C   UNL     1       5.551  -0.863  -0.055  0.00  0.00    +0.103 C 
ATOM      7  C   UNL     1       7.171  -2.696   2.512  0.00  0.00    +0.303 C 
ATOM      8  O   UNL     1       7.172  -2.668   3.728  0.00  0.00    -0.253 OA
ATOM      9  N   UNL     1       8.270  -3.105   1.847  0.00  0.00    -0.294 N 
ATOM     10  H   UNL     1       8.295  -3.061   0.878  0.00  0.00    +0.151 HD
ENDROOT
BRANCH   9  11
ATOM     11  C   UNL     1       9.426  -3.617   2.587  0.00  0.00    +0.037 C 
ATOM     12  C   UNL     1       9.008  -4.844   3.401  0.00  0.00    +0.029 C 
ATOM     13  C   UNL     1      10.216  -5.378   4.173  0.00  0.00    -0.008 C 
ATOM     14  C   UNL     1      11.319  -5.771   3.188  0.00  0.00    +0.007 C 
ATOM     15  C   UNL     1      11.736  -4.544   2.375  0.00  0.00    -0.008 C 
ATOM     16  C   UNL     1      10.529  -4.010   1.602  0.00  0.00    +0.029 C 
ATOM     17  C   UNL     1      12.258  -3.459   3.319  0.00  0.00    +0.007 C 
ATOM     18  C   UNL     1      11.155  -3.067   4.304  0.00  0.00    -0.008 C 
ATOM     19  C   UNL     1      10.738  -4.293   5.118  0.00  0.00    +0.007 C 
ATOM     20  C   UNL     1       9.948  -2.532   3.531  0.00  0.00    +0.029 C 
ENDBRANCH   9  11
BRANCH   1  21
ATOM     21  C   UNL     1       3.614   0.585   0.059  0.00  0.00    +0.116 C 
BRANCH  21  24
ATOM     22  C   UNL     1      -0.020   1.539   0.018  0.00  0.00    +0.031 C 
ATOM     23  C   UNL     1       1.475   1.940   0.010  0.00  0.00    +0.035 C 
ATOM     24  C   UNL     1       2.160   0.652   0.532  0.00  0.00    +0.132 C 
ATOM     25  O   UNL     1       1.380  -0.408  -0.061  0.00  0.00    -0.375 OA
ATOM     26  C   UNL     1       0.003  -0.002   0.003  0.00  0.00    +0.160 C 
ENDBRANCH  21  24
ENDBRANCH   1  21
TORSDOF 3
