REMARK  Name = ZINC38740470
REMARK  4 active torsions:
REMARK  status: ('A' for Active; 'I' for Inactive)
REMARK    1  A    between atoms: C_13  and  C_15
REMARK    2  A    between atoms: C_21  and  C_23
REMARK    3  A    between atoms: N_25  and  N_26
REMARK    4  A    between atoms: N_26  and  C_27
REMARK                            x       y       z     vdW  Elec       q    Type
REMARK                         _______ _______ _______ _____ _____    ______ ____
ROOT
ATOM      1  C   UNL     1       0.176  -6.648   1.147  0.00  0.00    +0.091 C 
ATOM      2  C   UNL     1      -0.684  -6.224   2.340  0.00  0.00    +0.040 C 
ATOM      3  C   UNL     1      -1.836  -7.171   2.509  0.00  0.00    -0.030 C 
ATOM      4  C   UNL     1      -1.893  -8.348   1.972  0.00  0.00    -0.030 C 
ATOM      5  C   UNL     1      -0.818  -8.926   1.099  0.00  0.00    +0.040 C 
ATOM      6  C   UNL     1       0.485  -8.145   1.273  0.00  0.00    +0.092 C 
ENDROOT
BRANCH   1  19
ATOM      7  C   UNL     1       2.581   1.062  -1.341  0.00  0.00    +0.005 A 
ATOM      8  C   UNL     1       1.355   1.653  -1.618  0.00  0.00    +0.018 A 
ATOM      9  C   UNL     1       0.213   0.879  -1.606  0.00  0.00    +0.084 A 
ATOM     10  N   UNL     1       0.273  -0.412  -1.336  0.00  0.00    -0.350 N 
ATOM     11  C   UNL     1       1.422  -1.012  -1.068  0.00  0.00    +0.099 A 
ATOM     12  C   UNL     1       2.613  -0.293  -1.063  0.00  0.00    +0.042 A 
ATOM     13  N   UNL     1       1.439  -2.374  -0.789  0.00  0.00    -0.314 N 
ATOM     14  C   UNL     1       2.713  -3.087  -0.617  0.00  0.00    +0.125 C 
ATOM     15  C   UNL     1       2.701  -3.790   0.745  0.00  0.00    +0.126 C 
ATOM     16  N   UNL     1       1.446  -4.543   0.875  0.00  0.00    -0.298 N 
ATOM     17  C   UNL     1       0.172  -3.830   0.703  0.00  0.00    +0.126 C 
ATOM     18  C   UNL     1       0.183  -3.126  -0.654  0.00  0.00    +0.125 C 
ATOM     19  C   UNL     1       1.462  -5.863   1.145  0.00  0.00    +0.220 C 
ATOM     20  O   UNL     1       2.512  -6.420   1.387  0.00  0.00    -0.275 OA
ATOM     21  H   UNL     1      -0.545  -0.933  -1.335  0.00  0.00    +0.166 HD
ENDBRANCH   1  19
BRANCH   6  22
ATOM     22  C   UNL     1       1.470  -8.550   0.207  0.00  0.00    +0.233 C 
ATOM     23  O   UNL     1       1.886  -7.726  -0.580  0.00  0.00    -0.274 OA
ATOM     24  N   UNL     1       1.888  -9.829   0.127  0.00  0.00    -0.236 N 
ATOM     25  H   UNL     1       1.555 -10.489   0.755  0.00  0.00    +0.173 HD
BRANCH  24  26
ATOM     26  N   UNL     1       2.803 -10.206  -0.865  0.00  0.00    -0.264 N 
ATOM     27  H   UNL     1       3.136  -9.547  -1.494  0.00  0.00    +0.170 HD
BRANCH  26  28
ATOM     28  C   UNL     1       3.237 -11.531  -0.948  0.00  0.00    +0.045 A 
ATOM     29  C   UNL     1       2.756 -12.478  -0.051  0.00  0.00    +0.024 A 
ATOM     30  C   UNL     1       3.186 -13.788  -0.136  0.00  0.00    +0.003 A 
ATOM     31  C   UNL     1       4.094 -14.158  -1.111  0.00  0.00    +0.015 A 
ATOM     32  C   UNL     1       4.574 -13.218  -2.006  0.00  0.00    +0.020 A 
ATOM     33  C   UNL     1       4.144 -11.907  -1.930  0.00  0.00    +0.039 A 
ATOM     34 BR   UNL     1       5.816 -13.729  -3.337  0.00  0.00    -0.050 Br
ENDBRANCH  26  28
ENDBRANCH  24  26
ENDBRANCH   6  22
TORSDOF 4
