REMARK  Name = ZINC21918637
REMARK  7 active torsions:
REMARK  status: ('A' for Active; 'I' for Inactive)
REMARK    1  A    between atoms: C_1  and  C_2
REMARK    2  A    between atoms: C_2  and  O_3
REMARK    3  A    between atoms: O_3  and  C_4
REMARK    4  A    between atoms: C_8  and  C_10
REMARK    5  A    between atoms: N_30  and  C_31
REMARK    6  A    between atoms: C_36  and  O_37
REMARK    7  A    between atoms: O_37  and  C_38
REMARK                            x       y       z     vdW  Elec       q    Type
REMARK                         _______ _______ _______ _____ _____    ______ ____
ROOT
ATOM      1  C   UNL     1       0.158  -2.278   1.817  0.00  0.00    +0.155 C 
ATOM      2  C   UNL     1      -0.601  -1.989   0.557  0.00  0.00    +0.049 A 
ATOM      3  C   UNL     1      -1.567  -2.702  -0.040  0.00  0.00    +0.025 A 
ATOM      4  C   UNL     1      -2.001  -1.967  -1.165  0.00  0.00    +0.020 A 
ATOM      5  C   UNL     1      -1.264  -0.834  -1.220  0.00  0.00    +0.092 A 
ATOM      6  N   UNL     1      -0.383  -0.857  -0.194  0.00  0.00    -0.312 N 
ATOM      7  C   UNL     1       0.641   0.013   0.158  0.00  0.00    +0.090 A 
ATOM      8  C   UNL     1       1.892  -0.387   0.511  0.00  0.00    +0.005 A 
ATOM      9  C   UNL     1       2.802   0.625   0.883  0.00  0.00    -0.030 A 
ATOM     10  C   UNL     1       2.366   1.911   0.843  0.00  0.00    -0.005 A 
ATOM     11  S   UNL     1       0.683   1.773   0.298  0.00  0.00    -0.075 S 
ATOM     12  C   UNL     1       3.135   3.147   1.183  0.00  0.00    +0.043 C 
ATOM     13  C   UNL     1       4.402   2.731   1.947  0.00  0.00    +0.005 C 
ATOM     14  C   UNL     1       5.074   1.579   1.194  0.00  0.00    +0.005 C 
ATOM     15  C   UNL     1       4.231   0.309   1.317  0.00  0.00    +0.036 C 
ATOM     16  C   UNL     1       2.256  -1.855   0.489  0.00  0.00    +0.148 C 
ATOM     17  N   UNL     1       1.573  -2.627   1.543  0.00  0.00    -0.268 N 
ATOM     18  C   UNL     1       2.205  -3.603   2.225  0.00  0.00    +0.308 C 
ATOM     19  O   UNL     1       1.615  -4.221   3.089  0.00  0.00    -0.252 OA
ATOM     20  N   UNL     1       3.492  -3.893   1.949  0.00  0.00    -0.266 N 
ATOM     21  H   UNL     1       4.051  -3.281   1.225  0.00  0.00    +0.156 HD
ENDROOT
BRANCH   1  26
ATOM     22  C   UNL     1       1.156   0.364   4.327  0.00  0.00    +0.121 A 
ATOM     23  C   UNL     1       0.031   1.177   4.332  0.00  0.00    +0.045 A 
ATOM     24  C   UNL     1      -1.046   0.868   3.524  0.00  0.00    +0.004 A 
ATOM     25  C   UNL     1      -1.003  -0.249   2.710  0.00  0.00    +0.006 A 
ATOM     26  C   UNL     1       0.116  -1.061   2.704  0.00  0.00    -0.018 A 
ATOM     27  C   UNL     1       1.194  -0.759   3.515  0.00  0.00    +0.051 A 
BRANCH  22  28
ATOM     28  O   UNL     1       2.216   0.665   5.122  0.00  0.00    -0.492 OA
BRANCH  28  30
ATOM     29  C   UNL     1       3.385   2.008   6.756  0.00  0.00    +0.048 C 
ATOM     30  C   UNL     1       2.105   1.834   5.938  0.00  0.00    +0.225 C 
ENDBRANCH  28  30
ENDBRANCH  22  28
ENDBRANCH   1  26
BRANCH  20  31
ATOM     31  C   UNL     1       4.118  -4.974   2.583  0.00  0.00    +0.077 A 
ATOM     32  C   UNL     1       3.696  -5.383   3.840  0.00  0.00    +0.027 A 
ATOM     33  C   UNL     1       4.312  -6.452   4.461  0.00  0.00    +0.002 A 
ATOM     34  C   UNL     1       5.356  -7.112   3.838  0.00  0.00    +0.004 A 
ATOM     35  C   UNL     1       5.785  -6.707   2.588  0.00  0.00    +0.047 A 
ATOM     36  C   UNL     1       5.170  -5.639   1.956  0.00  0.00    +0.141 A 
BRANCH  36  37
ATOM     37  O   UNL     1       5.591  -5.239   0.726  0.00  0.00    -0.493 OA
ATOM     38  C   UNL     1       6.675  -5.967   0.144  0.00  0.00    +0.277 C 
ENDBRANCH  36  37
ENDBRANCH  20  31
TORSDOF 5
