REMARK  Name = ZINC56905801
REMARK  6 active torsions:
REMARK  status: ('A' for Active; 'I' for Inactive)
REMARK    1  A    between atoms: C_1  and  C_2
REMARK    2  A    between atoms: C_4  and  C_8
REMARK    3  A    between atoms: C_5  and  C_7
REMARK    4  A    between atoms: N_16  and  C_17
REMARK    5  A    between atoms: C_17  and  C_18
REMARK    6  A    between atoms: C_17  and  C_24
REMARK                            x       y       z     vdW  Elec       q    Type
REMARK                         _______ _______ _______ _____ _____    ______ ____
ROOT
ATOM      1  C   UNL     1      -1.370  -3.421  -0.010  0.00  0.00    +0.253 A 
ATOM      2  N   UNL     1      -0.899  -4.645  -0.012  0.00  0.00    -0.106 NA
ATOM      3  N   UNL     1      -1.878  -5.479  -0.013  0.00  0.00    -0.092 NA
ATOM      4  C   UNL     1      -3.012  -4.822  -0.011  0.00  0.00    +0.316 A 
ATOM      5  O   UNL     1      -2.718  -3.508  -0.004  0.00  0.00    -0.404 OA
ATOM      6  N   UNL     1      -4.282  -5.379  -0.012  0.00  0.00    -0.222 N 
ATOM      7  C   UNL     1      -4.431  -6.718  -0.015  0.00  0.00    +0.308 C 
ATOM      8  O   UNL     1      -3.452  -7.439  -0.016  0.00  0.00    -0.252 OA
ATOM      9  N   UNL     1      -5.666  -7.259  -0.015  0.00  0.00    -0.288 N 
ATOM     10  H   UNL     1      -5.064  -4.804  -0.011  0.00  0.00    +0.161 HD
ATOM     11  H   UNL     1      -6.447  -6.684  -0.014  0.00  0.00    +0.151 HD
ENDROOT
BRANCH   1  15
ATOM     12  C   UNL     1      -0.018   1.503   0.010  0.00  0.00    +0.086 C 
ATOM     13  C   UNL     1       0.002  -0.004   0.002  0.00  0.00    +0.103 A 
ATOM     14  C   UNL     1      -1.081  -0.798   0.003  0.00  0.00    +0.058 A 
ATOM     15  C   UNL     1      -0.573  -2.176  -0.007  0.00  0.00    +0.079 A 
ATOM     16  C   UNL     1       0.783  -2.069  -0.013  0.00  0.00    +0.114 A 
ATOM     17  O   UNL     1       1.105  -0.768  -0.013  0.00  0.00    -0.464 OA
ATOM     18  C   UNL     1       1.758  -3.218  -0.023  0.00  0.00    +0.087 C 
ENDBRANCH   1  15
BRANCH   9  19
ATOM     19  C   UNL     1      -5.828  -8.715  -0.018  0.00  0.00    +0.135 C 
BRANCH  19  20
ATOM     20  C   UNL     1      -5.760  -9.231   1.397  0.00  0.00    -0.023 A 
ATOM     21  C   UNL     1      -6.373  -8.530   2.418  0.00  0.00    +0.006 A 
ATOM     22  C   UNL     1      -6.311  -9.003   3.716  0.00  0.00    +0.000 A 
ATOM     23  C   UNL     1      -5.636 -10.177   3.991  0.00  0.00    +0.000 A 
ATOM     24  C   UNL     1      -5.023 -10.878   2.970  0.00  0.00    +0.000 A 
ATOM     25  C   UNL     1      -5.089 -10.408   1.672  0.00  0.00    +0.006 A 
ENDBRANCH  19  20
BRANCH  19  26
ATOM     26  C   UNL     1      -7.163  -9.071  -0.619  0.00  0.00    -0.023 A 
ATOM     27  C   UNL     1      -8.277  -8.306  -0.329  0.00  0.00    +0.006 A 
ATOM     28  C   UNL     1      -9.502  -8.633  -0.880  0.00  0.00    +0.000 A 
ATOM     29  C   UNL     1      -9.613  -9.724  -1.721  0.00  0.00    +0.000 A 
ATOM     30  C   UNL     1      -8.499 -10.488  -2.012  0.00  0.00    +0.000 A 
ATOM     31  C   UNL     1      -7.273 -10.159  -1.464  0.00  0.00    +0.006 A 
ENDBRANCH  19  26
ENDBRANCH   9  19
TORSDOF 4
