REMARK  Name = ZINC36543780
REMARK  12 active torsions:
REMARK  status: ('A' for Active; 'I' for Inactive)
REMARK    1  A    between atoms: C_1  and  C_2
REMARK    2  A    between atoms: C_9  and  O_20
REMARK    3  A    between atoms: C_12  and  C_14
REMARK    4  A    between atoms: C_23  and  O_39
REMARK    5  A    between atoms: C_24  and  C_31
REMARK    6  A    between atoms: C_27  and  O_30
REMARK    7  A    between atoms: N_32  and  C_33
REMARK    8  A    between atoms: C_33  and  C_34
REMARK    9  A    between atoms: C_34  and  O_35
REMARK   10  A    between atoms: C_34  and  O_37
REMARK   11  A    between atoms: O_35  and  C_36
REMARK   12  A    between atoms: O_37  and  C_38
REMARK                            x       y       z     vdW  Elec       q    Type
REMARK                         _______ _______ _______ _____ _____    ______ ____
ROOT
ATOM      1  C   UNL     1      -0.803   2.327  -0.851  0.00  0.00    +0.014 C 
ATOM      2  C   UNL     1      -1.293   0.873  -0.808  0.00  0.00    +0.004 C 
ATOM      3  C   UNL     1      -2.542   0.826   0.042  0.00  0.00    +0.010 C 
ATOM      4  C   UNL     1      -3.006  -0.588   0.343  0.00  0.00    +0.005 C 
ATOM      5  C   UNL     1      -1.905  -1.470   0.908  0.00  0.00    +0.009 C 
ATOM      6  C   UNL     1      -0.639  -1.404   0.093  0.00  0.00    +0.025 C 
ATOM      7  C   UNL     1      -0.154  -0.009  -0.276  0.00  0.00    +0.075 C 
ATOM      8  C   UNL     1       0.742  -0.181  -1.544  0.00  0.00    +0.036 C 
ATOM      9  C   UNL     1      -0.254  -0.273  -2.717  0.00  0.00    +0.011 C 
ATOM     10  C   UNL     1      -1.551   0.411  -2.248  0.00  0.00    +0.027 C 
ATOM     11  C   UNL     1       0.499  -2.234   0.680  0.00  0.00    +0.009 C 
ATOM     12  C   UNL     1       0.655  -2.020   2.183  0.00  0.00    +0.036 C 
ATOM     13  C   UNL     1      -0.663  -2.327   2.884  0.00  0.00    +0.079 C 
ATOM     14  C   UNL     1      -1.741  -1.343   2.413  0.00  0.00    +0.038 C 
ATOM     15  C   UNL     1      -3.065  -1.729   3.096  0.00  0.00    +0.018 C 
ATOM     16  C   UNL     1      -2.924  -1.684   4.614  0.00  0.00    +0.032 C 
ATOM     17  C   UNL     1      -1.809  -2.613   5.087  0.00  0.00    +0.117 C 
ATOM     18  C   UNL     1      -0.491  -2.252   4.398  0.00  0.00    +0.067 C 
ENDROOT
BRANCH  10  19
ATOM     19  C   UNL     1      -1.852   1.599  -3.125  0.00  0.00    -0.022 C 
ATOM     20  C   UNL     1      -1.016   2.185  -3.980  0.00  0.00    +0.094 C 
ATOM     21  C   UNL     1      -1.707   3.303  -4.631  0.00  0.00    +0.332 C 
ATOM     22  O   UNL     1      -1.215   4.037  -5.465  0.00  0.00    -0.246 OA
ATOM     23  O   UNL     1      -2.967   3.392  -4.168  0.00  0.00    -0.457 OA
ATOM     24  C   UNL     1      -3.160   2.348  -3.208  0.00  0.00    +0.264 C 
ENDBRANCH  10  19
BRANCH   7  25
ATOM     25  O   UNL     1       0.577   0.634   0.774  0.00  0.00    -0.388 OA
ATOM     26  H   UNL     1       1.303   0.103   1.130  0.00  0.00    +0.210 HD
ENDBRANCH   7  25
BRANCH  17  27
ATOM     27  O   UNL     1      -1.651  -2.483   6.503  0.00  0.00    -0.392 OA
ATOM     28  H   UNL     1      -2.445  -2.706   7.009  0.00  0.00    +0.210 HD
ENDBRANCH  17  27
BRANCH  14  29
ATOM     29  C   UNL     1      -1.381   0.056   2.827  0.00  0.00    +0.087 C 
ATOM     30  N   UNL     1      -2.149   0.707   3.616  0.00  0.00    -0.290 NA
BRANCH  30  31
ATOM     31  C   UNL     1      -1.798   2.071   4.019  0.00  0.00    +0.202 C 
BRANCH  31  32
ATOM     32  C   UNL     1      -2.838   3.049   3.469  0.00  0.00    +0.270 C 
BRANCH  32  33
ATOM     33  O   UNL     1      -2.863   2.966   2.043  0.00  0.00    -0.353 OA
ATOM     34  C   UNL     1      -3.482   4.085   1.406  0.00  0.00    +0.197 C 
ENDBRANCH  32  33
BRANCH  32  35
ATOM     35  O   UNL     1      -4.127   2.716   3.989  0.00  0.00    -0.353 OA
ATOM     36  C   UNL     1      -5.078   3.780   3.910  0.00  0.00    +0.197 C 
ENDBRANCH  32  35
ENDBRANCH  31  32
ENDBRANCH  30  31
ENDBRANCH  14  29
BRANCH  13  37
ATOM     37  O   UNL     1      -1.071  -3.658   2.535  0.00  0.00    -0.388 OA
ATOM     38  H   UNL     1      -0.438  -4.343   2.790  0.00  0.00    +0.210 HD
ENDBRANCH  13  37
TORSDOF 9
