REMARK  Name = ZINC15005737
REMARK  11 active torsions:
REMARK  status: ('A' for Active; 'I' for Inactive)
REMARK    1  A    between atoms: C_1  and  C_2
REMARK    2  A    between atoms: C_6  and  C_8
REMARK    3  A    between atoms: C_9  and  C_19
REMARK    4  A    between atoms: C_15  and  C_18
REMARK    5  A    between atoms: C_19  and  N_20
REMARK    6  A    between atoms: N_20  and  C_21
REMARK    7  A    between atoms: C_21  and  C_22
REMARK    8  A    between atoms: C_22  and  N_74
REMARK    9  A    between atoms: C_23  and  N_74
REMARK   10  A    between atoms: C_24  and  N_74
REMARK   11  A    between atoms: C_25  and  C_27
REMARK                            x       y       z     vdW  Elec       q    Type
REMARK                         _______ _______ _______ _____ _____    ______ ____
ROOT
ATOM      1  N   UNL     1       3.070   0.838  -0.988  0.00  0.00    -0.295 N 
ATOM      2  C   UNL     1       3.247   1.217  -2.269  0.00  0.00    +0.252 C 
ATOM      3  O   UNL     1       2.290   1.305  -3.015  0.00  0.00    -0.270 OA
ENDROOT
BRANCH   2   4
ATOM      4  C   UNL     1       4.597   1.525  -2.766  0.00  0.00    +0.101 A 
ATOM      5  C   UNL     1       4.848   2.701  -3.463  0.00  0.00    +0.023 A 
ATOM      6  C   UNL     1       6.145   2.975  -3.918  0.00  0.00    -0.027 A 
ATOM      7  C   UNL     1       7.143   2.092  -3.682  0.00  0.00    +0.022 A 
ATOM      8  N   UNL     1       6.895   0.932  -3.010  0.00  0.00    -0.325 N 
ATOM      9  H   UNL     1       7.624   0.310  -2.861  0.00  0.00    +0.169 HD
ATOM     10  C   UNL     1       5.672   0.625  -2.549  0.00  0.00    +0.261 A 
ATOM     11  O   UNL     1       5.487  -0.419  -1.948  0.00  0.00    -0.267 OA
ATOM     12  C   UNL     1       8.563   2.334  -4.126  0.00  0.00    +0.053 C 
ATOM     13  C   UNL     1       8.616   3.408  -5.210  0.00  0.00    +0.006 C 
ATOM     14  C   UNL     1       7.835   4.631  -4.713  0.00  0.00    +0.005 C 
ATOM     15  C   UNL     1       6.353   4.265  -4.668  0.00  0.00    +0.037 C 
ENDBRANCH   2   4
BRANCH   1  16
ATOM     16  C   UNL     1       1.719   0.758  -0.428  0.00  0.00    +0.145 C 
BRANCH  16  18
ATOM     17  C   UNL     1       1.394  -1.613  -1.227  0.00  0.00    +0.076 A 
ATOM     18  C   UNL     1       1.366  -0.685  -0.174  0.00  0.00    -0.004 A 
ATOM     19  C   UNL     1       1.023  -1.094   1.081  0.00  0.00    +0.017 A 
ATOM     20  C   UNL     1       0.695  -2.451   1.274  0.00  0.00    +0.001 A 
ATOM     21  C   UNL     1       0.328  -2.938   2.539  0.00  0.00    +0.010 A 
ATOM     22  C   UNL     1       0.023  -4.256   2.690  0.00  0.00    +0.001 A 
ATOM     23  C   UNL     1       0.070  -5.130   1.606  0.00  0.00    +0.005 A 
ATOM     24  C   UNL     1       0.421  -4.693   0.366  0.00  0.00    -0.024 A 
ATOM     25  C   UNL     1       0.743  -3.338   0.170  0.00  0.00    +0.075 A 
ATOM     26  N   UNL     1       1.091  -2.882  -1.037  0.00  0.00    -0.246 NA
ATOM     27  C   UNL     1       0.465  -5.656  -0.792  0.00  0.00    +0.046 C 
BRANCH  17  33
ATOM     28  C   UNL     1       4.840  -1.087  -4.802  0.00  0.00    +0.044 C 
ATOM     29  C   UNL     1       3.429  -0.900  -4.307  0.00  0.00    -0.050 A 
ATOM     30  C   UNL     1       2.485  -0.301  -5.122  0.00  0.00    +0.003 A 
ATOM     31  C   UNL     1       1.188  -0.127  -4.674  0.00  0.00    +0.001 A 
ATOM     32  C   UNL     1       0.827  -0.555  -3.413  0.00  0.00    +0.010 A 
ATOM     33  C   UNL     1       1.775  -1.155  -2.585  0.00  0.00    +0.001 A 
ATOM     34  C   UNL     1       3.081  -1.328  -3.042  0.00  0.00    +0.013 A 
ENDBRANCH  17  33
ENDBRANCH  16  18
ENDBRANCH   1  16
BRANCH   1  35
ATOM     35  C   UNL     1       4.229   0.507  -0.155  0.00  0.00    +0.090 C 
BRANCH  35  36
ATOM     36  C   UNL     1       3.998  -0.842   0.528  0.00  0.00    -0.060 C 
BRANCH  36  39
ATOM     37  C   UNL     1       4.931  -2.405   2.124  0.00  0.00    -0.097 C 
ATOM     38  C   UNL     1       6.365  -1.349   0.483  0.00  0.00    -0.097 C 
ATOM     39  N   UNL     1       5.181  -1.171   1.350  0.00  0.00    +0.377 N 
ATOM     40  H   UNL     1       5.359  -0.398   2.003  0.00  0.00    -0.083 HD
ENDBRANCH  36  39
ENDBRANCH  35  36
ENDBRANCH   1  35
TORSDOF 7
