REMARK  Name = ZINC36660458
REMARK  10 active torsions:
REMARK  status: ('A' for Active; 'I' for Inactive)
REMARK    1  A    between atoms: C_1  and  C_2
REMARK    2  A    between atoms: C_2  and  C_3
REMARK    3  A    between atoms: N_12  and  C_13
REMARK    4  A    between atoms: C_13  and  C_14
REMARK    5  A    between atoms: C_14  and  N_15
REMARK    6  A    between atoms: N_15  and  C_16
REMARK    7  A    between atoms: N_15  and  C_17
REMARK    8  A    between atoms: C_18  and  C_20
REMARK    9  A    between atoms: N_25  and  S_26
REMARK   10  A    between atoms: S_26  and  C_29
REMARK                            x       y       z     vdW  Elec       q    Type
REMARK                         _______ _______ _______ _____ _____    ______ ____
ROOT
ATOM      1  C   UNL     1       0.254  -0.512  -0.968  0.00  0.00    -0.021 A 
ATOM      2  C   UNL     1      -0.611  -0.868  -1.970  0.00  0.00    +0.006 A 
ATOM      3  C   UNL     1      -0.151  -1.327  -3.196  0.00  0.00    +0.001 A 
ATOM      4  C   UNL     1       1.212  -1.427  -3.413  0.00  0.00    +0.017 A 
ATOM      5  C   UNL     1       2.085  -1.073  -2.416  0.00  0.00    +0.041 A 
ATOM      6  C   UNL     1       1.653  -0.597  -1.157  0.00  0.00    +0.083 A 
ATOM      7  N   UNL     1       2.633  -0.284  -0.281  0.00  0.00    -0.224 NA
ATOM      8  C   UNL     1       3.906  -0.408  -0.575  0.00  0.00    +0.168 A 
ATOM      9  S   UNL     1       3.853  -1.038  -2.246  0.00  0.00    -0.052 S 
ATOM     10  N   UNL     1       5.011  -0.128   0.213  0.00  0.00    -0.251 N 
ATOM     11  C   UNL     1       4.845   0.226   1.503  0.00  0.00    +0.240 C 
ATOM     12  O   UNL     1       5.802   0.570   2.165  0.00  0.00    -0.273 OA
ENDROOT
BRANCH  11  13
ATOM     13  C   UNL     1       3.472   0.194   2.124  0.00  0.00    +0.166 C 
ATOM     14  C   UNL     1       2.767   1.549   1.907  0.00  0.00    +0.031 C 
ATOM     15  C   UNL     1       2.013   1.767   3.246  0.00  0.00    +0.019 C 
ATOM     16  C   UNL     1       3.007   1.156   4.265  0.00  0.00    +0.110 C 
ATOM     17  N   UNL     1       3.584  -0.017   3.574  0.00  0.00    -0.165 NA
BRANCH  17  18
ATOM     18  S   UNL     1       4.245  -1.345   4.309  0.00  0.00    +0.062 S 
ATOM     19  O   UNL     1       3.584  -1.490   5.558  0.00  0.00    -0.153 OA
ATOM     20  O   UNL     1       4.266  -2.379   3.334  0.00  0.00    -0.153 OA
BRANCH  18  21
ATOM     21  C   UNL     1       5.926  -0.959   4.670  0.00  0.00    +0.106 A 
ATOM     22  C   UNL     1       6.923  -1.311   3.779  0.00  0.00    +0.030 A 
ATOM     23  C   UNL     1       8.241  -1.008   4.062  0.00  0.00    +0.022 A 
ATOM     24  C   UNL     1       8.563  -0.352   5.237  0.00  0.00    +0.041 A 
ATOM     25  C   UNL     1       7.565   0.000   6.128  0.00  0.00    +0.022 A 
ATOM     26  C   UNL     1       6.246  -0.298   5.841  0.00  0.00    +0.030 A 
ATOM     27 CL   UNL     1      10.219   0.029   5.593  0.00  0.00    -0.084 Cl
ENDBRANCH  18  21
ENDBRANCH  17  18
ENDBRANCH  11  13
BRANCH   1  29
ATOM     28  C   UNL     1      -0.400   1.506   0.315  0.00  0.00    +0.009 C 
ATOM     29  C   UNL     1      -0.292  -0.019   0.348  0.00  0.00    +0.034 C 
ENDBRANCH   1  29
BRANCH  10  30
ATOM     30  C   UNL     1       6.358  -0.217  -0.355  0.00  0.00    +0.097 C 
BRANCH  30  31
ATOM     31  C   UNL     1       6.709   1.104  -1.043  0.00  0.00    -0.060 C 
BRANCH  31  32
ATOM     32  N   UNL     1       8.060   1.015  -1.613  0.00  0.00    +0.377 N 
ATOM     33  C   UNL     1       8.076   0.005  -2.679  0.00  0.00    -0.097 C 
ATOM     34  C   UNL     1       8.445   2.320  -2.168  0.00  0.00    -0.097 C 
ATOM     35  H   UNL     1       8.713   0.751  -0.890  0.00  0.00    -0.083 HD
ENDBRANCH  31  32
ENDBRANCH  30  31
ENDBRANCH  10  30
TORSDOF 7
