REMARK  Name = ZINC39673290
REMARK  10 active torsions:
REMARK  status: ('A' for Active; 'I' for Inactive)
REMARK    1  A    between atoms: C_1  and  O_2
REMARK    2  A    between atoms: O_2  and  C_3
REMARK    3  A    between atoms: C_6  and  C_11
REMARK    4  A    between atoms: C_7  and  O_9
REMARK    5  A    between atoms: O_9  and  C_10
REMARK    6  A    between atoms: C_15  and  C_24
REMARK    7  A    between atoms: N_26  and  C_27
REMARK    8  A    between atoms: C_27  and  C_28
REMARK    9  A    between atoms: C_31  and  O_34
REMARK   10  A    between atoms: O_34  and  C_35
REMARK                            x       y       z     vdW  Elec       q    Type
REMARK                         _______ _______ _______ _____ _____    ______ ____
ROOT
ATOM      1  C   UNL     1      -4.817  -2.464  -0.041  0.00  0.00    +0.250 C 
ATOM      2  O   UNL     1      -4.827  -3.680  -0.067  0.00  0.00    -0.270 OA
ATOM      3  N   UNL     1      -5.969  -1.784   0.122  0.00  0.00    -0.296 N 
ATOM      4  C   UNL     1      -6.173  -0.317   0.073  0.00  0.00    +0.121 C 
ATOM      5  C   UNL     1      -7.517  -0.134  -0.665  0.00  0.00    +0.100 C 
ATOM      6  C   UNL     1      -8.266  -1.460  -0.452  0.00  0.00    -0.004 C 
ATOM      7  C   UNL     1      -7.321  -2.335   0.384  0.00  0.00    +0.115 C 
ATOM      8  C   UNL     1      -9.569  -1.216   0.304  0.00  0.00    -0.010 C 
ATOM      9  C   UNL     1     -10.323  -2.541   0.452  0.00  0.00    -0.082 C 
ATOM     10  N   UNL     1     -10.602  -3.099  -0.876  0.00  0.00    +0.379 N 
ATOM     11  C   UNL     1      -9.343  -3.417  -1.560  0.00  0.00    -0.082 C 
ATOM     12  C   UNL     1      -8.547  -2.130  -1.794  0.00  0.00    -0.010 C 
ATOM     13  H   UNL     1     -11.151  -3.940  -0.778  0.00  0.00    -0.086 HD
ATOM     14  H   UNL     1     -11.118  -2.425  -1.421  0.00  0.00    -0.086 HD
ENDROOT
BRANCH   1  18
ATOM     15  C   UNL     1      -1.151  -0.361  -0.461  0.00  0.00    +0.124 A 
ATOM     16  C   UNL     1      -2.153   0.143   0.363  0.00  0.00    +0.046 A 
ATOM     17  C   UNL     1      -3.341  -0.535   0.501  0.00  0.00    +0.020 A 
ATOM     18  C   UNL     1      -3.546  -1.735  -0.187  0.00  0.00    +0.079 A 
ATOM     19  C   UNL     1      -2.534  -2.242  -1.017  0.00  0.00    +0.136 A 
ATOM     20  C   UNL     1      -1.345  -1.547  -1.153  0.00  0.00    +0.092 A 
BRANCH  15  22
ATOM     21  C   UNL     1       0.154   1.529   0.148  0.00  0.00    +0.277 C 
ATOM     22  O   UNL     1       0.019   0.315  -0.592  0.00  0.00    -0.495 OA
ENDBRANCH  15  22
BRANCH  19  23
ATOM     23  O   UNL     1      -2.724  -3.405  -1.688  0.00  0.00    -0.494 OA
ATOM     24  C   UNL     1      -1.651  -3.860  -2.515  0.00  0.00    +0.277 C 
ENDBRANCH  19  23
ENDBRANCH   1  18
BRANCH   5  25
ATOM     25  C   UNL     1      -8.293   1.011  -0.067  0.00  0.00    +0.218 C 
ATOM     26  O   UNL     1      -8.175   1.273   1.111  0.00  0.00    -0.275 OA
ATOM     27  N   UNL     1      -9.118   1.744  -0.841  0.00  0.00    -0.311 N 
ATOM     28  H   UNL     1      -9.213   1.534  -1.783  0.00  0.00    +0.149 HD
BRANCH  27  29
ATOM     29  C   UNL     1      -9.872   2.857  -0.259  0.00  0.00    +0.139 C 
BRANCH  29  30
ATOM     30  C   UNL     1     -10.713   3.507  -1.327  0.00  0.00    -0.030 A 
ATOM     31  C   UNL     1     -10.193   4.546  -2.077  0.00  0.00    +0.009 A 
ATOM     32  C   UNL     1     -10.962   5.145  -3.056  0.00  0.00    +0.046 A 
ATOM     33  C   UNL     1     -12.256   4.701  -3.288  0.00  0.00    +0.127 A 
ATOM     34  C   UNL     1     -12.775   3.658  -2.535  0.00  0.00    +0.046 A 
ATOM     35  C   UNL     1     -12.000   3.060  -1.560  0.00  0.00    +0.009 A 
BRANCH  33  36
ATOM     36  O   UNL     1     -13.014   5.288  -4.251  0.00  0.00    -0.434 OA
BRANCH  36  37
ATOM     37  C   UNL     1     -14.337   4.780  -4.434  0.00  0.00    +0.541 C 
ATOM     38  F   UNL     1     -14.273   3.426  -4.780  0.00  0.00    -0.166 F 
ATOM     39  F   UNL     1     -15.061   4.924  -3.246  0.00  0.00    -0.166 F 
ENDBRANCH  36  37
ENDBRANCH  33  36
ENDBRANCH  29  30
ENDBRANCH  27  29
ENDBRANCH   5  25
TORSDOF 8
