REMARK  Name = ZINC39710327
REMARK  10 active torsions:
REMARK  status: ('A' for Active; 'I' for Inactive)
REMARK    1  A    between atoms: C_1  and  C_2
REMARK    2  A    between atoms: C_9  and  C_14
REMARK    3  A    between atoms: C_14  and  C_16
REMARK    4  A    between atoms: C_14  and  N_27
REMARK    5  A    between atoms: N_21  and  C_22
REMARK    6  A    between atoms: N_27  and  C_28
REMARK    7  A    between atoms: N_27  and  C_36
REMARK    8  A    between atoms: C_28  and  C_29
REMARK    9  A    between atoms: C_29  and  C_30
REMARK   10  A    between atoms: C_36  and  C_37
REMARK                            x       y       z     vdW  Elec       q    Type
REMARK                         _______ _______ _______ _____ _____    ______ ____
ROOT
ATOM      1  C   UNL     1       1.349  -4.983   2.758  0.00  0.00    +0.115 C 
ENDROOT
BRANCH   1  10
ATOM      2  C   UNL     1      -1.015   0.705  -0.858  0.00  0.00    +0.044 C 
ATOM      3  C   UNL     1      -0.803  -0.775  -0.665  0.00  0.00    -0.050 A 
ATOM      4  C   UNL     1      -0.810  -1.617  -1.778  0.00  0.00    +0.005 A 
ATOM      5  C   UNL     1      -0.626  -2.959  -1.682  0.00  0.00    +0.024 A 
ATOM      6  C   UNL     1      -0.417  -3.564  -0.429  0.00  0.00    +0.040 A 
ATOM      7  N   UNL     1      -0.237  -4.883  -0.347  0.00  0.00    -0.284 N 
ATOM      8  C   UNL     1      -0.037  -5.514   0.797  0.00  0.00    +0.226 C 
ATOM      9  O   UNL     1       0.121  -6.720   0.809  0.00  0.00    -0.275 OA
ATOM     10  C   UNL     1      -0.005  -4.732   2.091  0.00  0.00    +0.119 C 
ATOM     11  C   UNL     1      -0.209  -3.232   2.003  0.00  0.00    -0.003 C 
ATOM     12  C   UNL     1      -0.406  -2.699   0.764  0.00  0.00    -0.007 A 
ATOM     13  C   UNL     1      -0.605  -1.260   0.588  0.00  0.00    +0.012 A 
ATOM     14  H   UNL     1      -0.255  -5.403  -1.165  0.00  0.00    +0.155 HD
ENDBRANCH   1  10
BRANCH   1  15
ATOM     15  C   UNL     1       1.529  -6.483   2.998  0.00  0.00    +0.235 C 
ATOM     16  N   UNL     1       0.450  -6.998   3.852  0.00  0.00    -0.148 NA
ATOM     17  N   UNL     1       0.942  -7.452   4.887  0.00  0.00    -0.069 NA
ATOM     18  N   UNL     1       2.331  -7.337   4.923  0.00  0.00    -0.179 N 
ATOM     19  N   UNL     1       2.766  -6.738   3.766  0.00  0.00    -0.182 NA
ATOM     20  H   UNL     1       2.901  -7.633   5.649  0.00  0.00    +0.191 HD
BRANCH  19  21
ATOM     21  C   UNL     1       3.674  -7.621   3.022  0.00  0.00    +0.080 C 
ATOM     22  C   UNL     1       3.013  -8.998   2.806  0.00  0.00    +0.021 C 
ATOM     23  C   UNL     1       4.180 -10.006   2.949  0.00  0.00    +0.002 C 
ATOM     24  C   UNL     1       5.024  -9.391   4.093  0.00  0.00    +0.002 C 
ATOM     25  C   UNL     1       4.953  -7.871   3.841  0.00  0.00    +0.021 C 
ENDBRANCH  19  21
ENDBRANCH   1  15
BRANCH   1  26
ATOM     26  N   UNL     1       1.402  -4.271   4.042  0.00  0.00    -0.290 NA
BRANCH  26  27
ATOM     27  C   UNL     1       1.884  -2.895   3.862  0.00  0.00    +0.090 C 
BRANCH  27  28
ATOM     28  C   UNL     1       3.400  -2.908   3.661  0.00  0.00    +0.050 C 
BRANCH  28  29
ATOM     29  C   UNL     1       3.912  -1.492   3.602  0.00  0.00    -0.046 A 
ATOM     30  C   UNL     1       3.983  -0.833   2.389  0.00  0.00    +0.003 A 
ATOM     31  C   UNL     1       4.452   0.467   2.335  0.00  0.00    +0.000 A 
ATOM     32  C   UNL     1       4.849   1.107   3.494  0.00  0.00    +0.000 A 
ATOM     33  C   UNL     1       4.776   0.448   4.707  0.00  0.00    +0.000 A 
ATOM     34  C   UNL     1       4.303  -0.850   4.762  0.00  0.00    +0.003 A 
ENDBRANCH  28  29
ENDBRANCH  27  28
ENDBRANCH  26  27
BRANCH  26  35
ATOM     35  C   UNL     1       0.092  -4.287   4.707  0.00  0.00    +0.127 C 
BRANCH  35  36
ATOM     36  C   UNL     1       0.229  -3.730   6.100  0.00  0.00    +0.004 A 
ATOM     37  C   UNL     1       0.004  -2.469   6.541  0.00  0.00    +0.012 A 
ATOM     38  C   UNL     1       0.196  -2.182   7.880  0.00  0.00    +0.008 A 
ATOM     39  C   UNL     1       0.604  -3.171   8.712  0.00  0.00    +0.045 A 
ATOM     40  S   UNL     1       0.723  -4.563   7.601  0.00  0.00    -0.100 S 
ENDBRANCH  35  36
ENDBRANCH  26  35
ENDBRANCH   1  26
TORSDOF 9
