REMARK  Name = ZINC15085430
REMARK  11 active torsions:
REMARK  status: ('A' for Active; 'I' for Inactive)
REMARK    1  A    between atoms: C_1  and  O_2
REMARK    2  A    between atoms: O_2  and  C_3
REMARK    3  A    between atoms: C_4  and  C_26
REMARK    4  A    between atoms: C_5  and  C_14
REMARK    5  A    between atoms: C_6  and  O_12
REMARK    6  A    between atoms: O_12  and  C_13
REMARK    7  A    between atoms: N_15  and  N_16
REMARK    8  A    between atoms: C_17  and  C_19
REMARK    9  A    between atoms: C_19  and  C_20
REMARK   10  A    between atoms: C_26  and  C_27
REMARK   11  A    between atoms: C_30  and  C_33
REMARK                            x       y       z     vdW  Elec       q    Type
REMARK                         _______ _______ _______ _____ _____    ______ ____
ROOT
ATOM      1  C   UNL     1       1.109   1.850  -0.006  0.00  0.00    +0.169 A 
ATOM      2  C   UNL     1       1.755   2.256   1.146  0.00  0.00    +0.014 A 
ATOM      3  C   UNL     1       2.908   3.042   1.060  0.00  0.00    +0.047 A 
ATOM      4  C   UNL     1       3.398   3.423  -0.196  0.00  0.00    +0.174 A 
ATOM      5  C   UNL     1       2.741   3.015  -1.348  0.00  0.00    +0.212 A 
ATOM      6  C   UNL     1       1.597   2.229  -1.255  0.00  0.00    +0.211 A 
ATOM      7  O   UNL     1       1.145   1.966  -2.517  0.00  0.00    -0.449 OA
ATOM      8  C   UNL     1       1.786   2.936  -3.365  0.00  0.00    +0.467 C 
ATOM      9  O   UNL     1       3.007   3.245  -2.668  0.00  0.00    -0.449 OA
ENDROOT
BRANCH   1  11
ATOM     10  C   UNL     1      -1.267   1.760   0.038  0.00  0.00    +0.277 C 
ATOM     11  O   UNL     1      -0.010   1.081   0.079  0.00  0.00    -0.491 OA
ENDBRANCH   1  11
BRANCH   4  12
ATOM     12  O   UNL     1       4.516   4.192  -0.285  0.00  0.00    -0.491 OA
ATOM     13  C   UNL     1       4.331   5.609  -0.290  0.00  0.00    +0.277 C 
ENDBRANCH   4  12
BRANCH   3  14
ATOM     14  C   UNL     1       3.602   3.473   2.286  0.00  0.00    +0.142 C 
ATOM     15  N   UNL     1       4.670   4.207   2.204  0.00  0.00    -0.188 NA
BRANCH  15  16
ATOM     16  N   UNL     1       5.330   4.616   3.370  0.00  0.00    -0.207 N 
ATOM     17  C   UNL     1       6.439   5.377   3.285  0.00  0.00    +0.237 C 
ATOM     18  O   UNL     1       6.865   5.708   2.198  0.00  0.00    -0.274 OA
ATOM     19  H   UNL     1       4.989   4.351   4.239  0.00  0.00    +0.177 HD
BRANCH  17  20
ATOM     20  C   UNL     1       7.148   5.818   4.539  0.00  0.00    +0.132 C 
BRANCH  20  21
ATOM     21  C   UNL     1       8.348   6.652   4.170  0.00  0.00    -0.039 A 
ATOM     22  C   UNL     1       9.575   6.048   3.971  0.00  0.00    +0.004 A 
ATOM     23  C   UNL     1      10.675   6.812   3.629  0.00  0.00    +0.000 A 
ATOM     24  C   UNL     1      10.550   8.182   3.495  0.00  0.00    +0.000 A 
ATOM     25  C   UNL     1       9.324   8.787   3.700  0.00  0.00    +0.000 A 
ATOM     26  C   UNL     1       8.223   8.022   4.037  0.00  0.00    +0.004 A 
ENDBRANCH  20  21
ENDBRANCH  17  20
ENDBRANCH  15  16
ENDBRANCH   3  14
BRANCH   2  27
ATOM     27  C   UNL     1       1.219   1.848   2.494  0.00  0.00    +0.087 C 
BRANCH  27  28
ATOM     28  C   UNL     1       1.785   0.478   2.874  0.00  0.00    +0.215 C 
ATOM     29  C   UNL     1       1.174  -0.023   4.205  0.00  0.00    +0.107 C 
ATOM     30  C   UNL     1       2.353  -0.705   4.872  0.00  0.00    +0.091 C 
ATOM     31  N   UNL     1       3.431  -0.332   4.268  0.00  0.00    -0.089 NA
ATOM     32  O   UNL     1       3.184   0.573   3.211  0.00  0.00    -0.390 OA
BRANCH  30  33
ATOM     33  C   UNL     1       2.279  -1.636   6.015  0.00  0.00    -0.000 A 
ATOM     34  C   UNL     1       1.043  -1.954   6.582  0.00  0.00    +0.012 A 
ATOM     35  C   UNL     1       0.980  -2.828   7.647  0.00  0.00    +0.039 A 
ATOM     36  C   UNL     1       2.142  -3.382   8.161  0.00  0.00    +0.123 A 
ATOM     37  C   UNL     1       3.372  -3.066   7.606  0.00  0.00    +0.039 A 
ATOM     38  C   UNL     1       3.446  -2.197   6.538  0.00  0.00    +0.012 A 
ATOM     39  F   UNL     1       2.075  -4.234   9.207  0.00  0.00    -0.205 F 
ENDBRANCH  30  33
ENDBRANCH  27  28
ENDBRANCH   2  27
TORSDOF 9
