REMARK  Name = ZINC04700406
REMARK  9 active torsions:
REMARK  status: ('A' for Active; 'I' for Inactive)
REMARK    1  A    between atoms: C_1  and  C_2
REMARK    2  A    between atoms: C_5  and  C_8
REMARK    3  A    between atoms: C_8  and  C_30
REMARK    4  A    between atoms: N_9  and  N_10
REMARK    5  A    between atoms: C_11  and  C_13
REMARK    6  A    between atoms: C_13  and  C_14
REMARK    7  A    between atoms: C_14  and  C_15
REMARK    8  A    between atoms: N_17  and  C_18
REMARK    9  A    between atoms: N_17  and  C_24
REMARK                            x       y       z     vdW  Elec       q    Type
REMARK                         _______ _______ _______ _____ _____    ______ ____
ROOT
ATOM      1  C   UNL     1       2.487  -1.150   3.172  0.00  0.00    +0.106 C 
ENDROOT
BRANCH   1   2
ATOM      2  C   UNL     1       2.595  -2.650   3.271  0.00  0.00    +0.225 C 
ATOM      3  O   UNL     1       1.592  -3.333   3.250  0.00  0.00    -0.275 OA
ATOM      4  N   UNL     1       3.805  -3.233   3.382  0.00  0.00    -0.240 N 
BRANCH   4   5
ATOM      5  C   UNL     1       4.951  -2.443   3.533  0.00  0.00    +0.041 A 
ATOM      6  C   UNL     1       5.467  -1.750   2.446  0.00  0.00    +0.024 A 
ATOM      7  C   UNL     1       6.595  -0.968   2.599  0.00  0.00    +0.002 A 
ATOM      8  C   UNL     1       7.216  -0.883   3.831  0.00  0.00    +0.000 A 
ATOM      9  C   UNL     1       6.709  -1.576   4.915  0.00  0.00    +0.002 A 
ATOM     10  C   UNL     1       5.578  -2.356   4.769  0.00  0.00    +0.024 A 
ENDBRANCH   4   5
BRANCH   4  11
ATOM     11  C   UNL     1       3.916  -4.629   3.347  0.00  0.00    +0.041 A 
ATOM     12  C   UNL     1       3.410  -5.393   4.391  0.00  0.00    +0.024 A 
ATOM     13  C   UNL     1       3.517  -6.770   4.351  0.00  0.00    +0.002 A 
ATOM     14  C   UNL     1       4.135  -7.386   3.278  0.00  0.00    +0.000 A 
ATOM     15  C   UNL     1       4.644  -6.627   2.240  0.00  0.00    +0.002 A 
ATOM     16  C   UNL     1       4.536  -5.251   2.272  0.00  0.00    +0.024 A 
ENDBRANCH   4  11
ENDBRANCH   1   2
BRANCH   1  17
ATOM     17  C   UNL     1       1.016  -0.752   3.037  0.00  0.00    +0.107 C 
BRANCH  17  19
ATOM     18  N   UNL     1      -0.300   1.329   2.806  0.00  0.00    -0.207 N 
ATOM     19  C   UNL     1       0.908   0.747   2.938  0.00  0.00    +0.233 C 
ATOM     20  O   UNL     1       1.910   1.431   2.972  0.00  0.00    -0.274 OA
ATOM     21  H   UNL     1      -1.101   0.782   2.775  0.00  0.00    +0.177 HD
BRANCH  18  23
ATOM     22  C   UNL     1      -1.567   3.290   2.695  0.00  0.00    +0.063 C 
ATOM     23  N   UNL     1      -0.401   2.724   2.715  0.00  0.00    -0.185 NA
ATOM     24  C   UNL     1      -1.682   4.771   2.437  0.00  0.00    +0.068 C 
BRANCH  22  29
ATOM     25  C   UNL     1      -6.304   0.154   3.595  0.00  0.00    +0.044 C 
ATOM     26  C   UNL     1      -5.063   0.976   3.359  0.00  0.00    -0.050 A 
ATOM     27  C   UNL     1      -3.913   0.709   4.081  0.00  0.00    +0.004 A 
ATOM     28  C   UNL     1      -2.773   1.457   3.870  0.00  0.00    +0.010 A 
ATOM     29  C   UNL     1      -2.782   2.486   2.926  0.00  0.00    -0.003 A 
ATOM     30  C   UNL     1      -3.948   2.753   2.205  0.00  0.00    +0.010 A 
ATOM     31  C   UNL     1      -5.079   1.994   2.422  0.00  0.00    +0.004 A 
ENDBRANCH  22  29
ENDBRANCH  18  23
ENDBRANCH  17  19
ENDBRANCH   1  17
TORSDOF 7
