REMARK  Name = ZINC20720299
REMARK  2 active torsions:
REMARK  status: ('A' for Active; 'I' for Inactive)
REMARK    1  A    between atoms: C_1  and  C_2
REMARK    2  A    between atoms: C_2  and  N_3
REMARK                            x       y       z     vdW  Elec       q    Type
REMARK                         _______ _______ _______ _____ _____    ______ ____
ROOT
ATOM      1  N   UNL     1       0.688  -0.476  -1.203  0.00  0.00    -0.270 N 
ATOM      2  C   UNL     1       0.052  -0.731  -2.405  0.00  0.00    +0.041 A 
ATOM      3  C   UNL     1      -1.299  -0.613  -2.735  0.00  0.00    +0.024 A 
ATOM      4  C   UNL     1      -1.667  -0.939  -4.031  0.00  0.00    +0.002 A 
ATOM      5  C   UNL     1      -0.745  -1.364  -4.966  0.00  0.00    +0.000 A 
ATOM      6  C   UNL     1       0.604  -1.487  -4.651  0.00  0.00    +0.007 A 
ATOM      7  C   UNL     1       0.977  -1.165  -3.364  0.00  0.00    -0.006 A 
ATOM      8  C   UNL     1       2.307  -1.180  -2.682  0.00  0.00    +0.112 C 
ATOM      9  C   UNL     1       2.015  -0.709  -1.274  0.00  0.00    +0.235 C 
ATOM     10  O   UNL     1       2.821  -0.570  -0.378  0.00  0.00    -0.274 OA
ATOM     11  C   UNL     1       2.901  -2.587  -2.659  0.00  0.00    +0.122 C 
ATOM     12  C   UNL     1       3.559  -2.923  -3.968  0.00  0.00    +0.220 C 
ATOM     13  O   UNL     1       3.468  -4.054  -4.398  0.00  0.00    -0.275 OA
ATOM     14  N   UNL     1       4.247  -2.007  -4.681  0.00  0.00    -0.270 N 
ATOM     15  C   UNL     1       4.178  -0.671  -4.287  0.00  0.00    +0.125 A 
ATOM     16  C   UNL     1       3.276  -0.242  -3.346  0.00  0.00    +0.032 A 
ATOM     17  C   UNL     1       3.456   1.122  -3.175  0.00  0.00    +0.141 A 
ATOM     18  N   UNL     1       4.416   1.513  -3.980  0.00  0.00    -0.180 NA
ATOM     19  N   UNL     1       4.877   0.397  -4.696  0.00  0.00    -0.264 N 
ATOM     20  H   UNL     1       5.577   0.398  -5.367  0.00  0.00    +0.190 HD
ATOM     21  H   UNL     1       4.778  -2.272  -5.448  0.00  0.00    +0.156 HD
ENDROOT
BRANCH   1  23
ATOM     22  C   UNL     1      -0.019   1.526   0.010  0.00  0.00    +0.025 C 
ATOM     23  C   UNL     1       0.002  -0.004   0.002  0.00  0.00    +0.110 C 
ENDBRANCH   1  23
TORSDOF 1
