REMARK  Name = ZINC36024239
REMARK  10 active torsions:
REMARK  status: ('A' for Active; 'I' for Inactive)
REMARK    1  A    between atoms: C_1  and  C_2
REMARK    2  A    between atoms: C_2  and  C_4
REMARK    3  A    between atoms: C_2  and  N_10
REMARK    4  A    between atoms: C_13  and  C_29
REMARK    5  A    between atoms: N_24  and  C_25
REMARK    6  A    between atoms: C_25  and  C_26
REMARK    7  A    between atoms: C_25  and  C_27
REMARK    8  A    between atoms: C_25  and  C_28
REMARK    9  A    between atoms: C_29  and  C_30
REMARK   10  A    between atoms: C_29  and  C_31
REMARK                            x       y       z     vdW  Elec       q    Type
REMARK                         _______ _______ _______ _____ _____    ______ ____
ROOT
ATOM      1  N   UNL     1       1.072  -0.421  -1.157  0.00  0.00    -0.307 N 
ATOM      2  C   UNL     1       2.390  -0.134  -1.134  0.00  0.00    +0.201 C 
ATOM      3  O   UNL     1       2.964   0.489  -0.266  0.00  0.00    -0.277 OA
ATOM      4  C   UNL     1       3.031  -0.720  -2.373  0.00  0.00    +0.022 C 
ATOM      5  N   UNL     1       2.044  -1.704  -2.881  0.00  0.00    +0.401 N 
ATOM      6  C   UNL     1       0.760  -1.187  -2.367  0.00  0.00    +0.007 C 
ATOM      7  C   UNL     1      -0.169  -2.353  -2.030  0.00  0.00    +0.025 C 
ATOM      8  C   UNL     1      -1.485  -1.807  -1.465  0.00  0.00    +0.109 C 
ATOM      9  N   UNL     1      -2.041  -0.836  -2.418  0.00  0.00    -0.286 N 
ATOM     10  C   UNL     1      -1.197   0.282  -2.861  0.00  0.00    +0.109 C 
ATOM     11  C   UNL     1       0.116  -0.281  -3.415  0.00  0.00    +0.025 C 
ATOM     12  C   UNL     1      -3.301  -0.969  -2.876  0.00  0.00    +0.303 C 
ATOM     13  O   UNL     1      -4.021  -1.842  -2.432  0.00  0.00    -0.253 OA
ATOM     14  N   UNL     1      -3.764  -0.133  -3.826  0.00  0.00    -0.294 N 
ATOM     15  H   UNL     1       2.046  -1.722  -3.889  0.00  0.00    -0.082 HD
ATOM     16  H   UNL     1      -3.169   0.516  -4.234  0.00  0.00    +0.151 HD
ATOM     17  H   UNL     1       2.231  -2.622  -2.506  0.00  0.00    -0.082 HD
ENDROOT
BRANCH  14  18
ATOM     18  C   UNL     1      -5.167  -0.203  -4.244  0.00  0.00    +0.028 C 
ATOM     19  C   UNL     1      -6.072   0.068  -3.040  0.00  0.00    +0.031 C 
ATOM     20  C   UNL     1      -5.430   0.845  -5.326  0.00  0.00    +0.031 C 
ATOM     21  C   UNL     1      -5.464  -1.597  -4.801  0.00  0.00    +0.031 C 
ENDBRANCH  14  18
BRANCH   4  22
ATOM     22  C   UNL     1       3.279   0.375  -3.413  0.00  0.00    -0.023 C 
ATOM     23  C   UNL     1       4.154   1.471  -2.801  0.00  0.00    +0.006 C 
ATOM     24  C   UNL     1       3.990  -0.227  -4.627  0.00  0.00    +0.006 C 
ENDBRANCH   4  22
BRANCH   1  26
ATOM     25  C   UNL     1       0.497   1.325   0.455  0.00  0.00    +0.033 C 
ATOM     26  C   UNL     1       0.104  -0.033  -0.129  0.00  0.00    +0.101 C 
BRANCH  26  27
ATOM     27  C   UNL     1       0.093  -1.067   0.968  0.00  0.00    -0.027 A 
ATOM     28  C   UNL     1       1.254  -1.747   1.288  0.00  0.00    +0.005 A 
ATOM     29  C   UNL     1       1.244  -2.695   2.293  0.00  0.00    +0.000 A 
ATOM     30  C   UNL     1       0.074  -2.963   2.979  0.00  0.00    +0.000 A 
ATOM     31  C   UNL     1      -1.086  -2.283   2.660  0.00  0.00    +0.000 A 
ATOM     32  C   UNL     1      -1.075  -1.331   1.657  0.00  0.00    +0.005 A 
ENDBRANCH  26  27
ENDBRANCH   1  26
TORSDOF 4
