REMARK  Name = ZINC01301430
REMARK  15 active torsions:
REMARK  status: ('A' for Active; 'I' for Inactive)
REMARK    1  A    between atoms: C_1  and  C_2
REMARK    2  A    between atoms: C_2  and  O_3
REMARK    3  A    between atoms: O_3  and  C_4
REMARK    4  A    between atoms: C_7  and  C_13
REMARK    5  A    between atoms: C_9  and  O_10
REMARK    6  A    between atoms: O_10  and  C_11
REMARK    7  A    between atoms: C_11  and  C_12
REMARK    8  A    between atoms: C_18  and  C_33
REMARK    9  A    between atoms: C_23  and  C_31
REMARK   10  A    between atoms: C_24  and  N_30
REMARK   11  A    between atoms: C_25  and  C_26
REMARK   12  A    between atoms: C_25  and  C_28
REMARK   13  A    between atoms: C_33  and  C_34
REMARK   14  A    between atoms: C_33  and  C_35
REMARK   15  A    between atoms: C_33  and  C_36
REMARK                            x       y       z     vdW  Elec       q    Type
REMARK                         _______ _______ _______ _____ _____    ______ ____
ROOT
ATOM      1  C   UNL     1      -3.450   2.211   0.733  0.00  0.00    +0.066 C 
ATOM      2  C   UNL     1      -2.279   1.231   0.644  0.00  0.00    +0.031 C 
ATOM      3  C   UNL     1      -1.982   0.835  -0.784  0.00  0.00    +0.013 C 
ATOM      4  C   UNL     1      -0.814   1.630  -1.364  0.00  0.00    -0.001 C 
ATOM      5  C   UNL     1       0.422   1.379  -0.490  0.00  0.00    +0.031 C 
ATOM      6  C   UNL     1       0.113   1.873   0.900  0.00  0.00    -0.021 C 
ATOM      7  C   UNL     1      -1.121   1.842   1.375  0.00  0.00    -0.029 C 
ATOM      8  C   UNL     1      -1.394   2.417   2.715  0.00  0.00    +0.074 C 
ATOM      9  C   UNL     1      -2.678   2.673   3.071  0.00  0.00    +0.054 C 
ATOM     10  C   UNL     1      -3.857   2.364   2.199  0.00  0.00    +0.188 C 
ENDROOT
BRANCH   1  14
ATOM     11  C   UNL     1      -6.758   0.707  -1.521  0.00  0.00    +0.162 A 
ATOM     12  C   UNL     1      -6.615   2.070  -1.322  0.00  0.00    +0.050 A 
ATOM     13  C   UNL     1      -5.548   2.553  -0.588  0.00  0.00    +0.008 A 
ATOM     14  C   UNL     1      -4.615   1.679  -0.061  0.00  0.00    -0.037 A 
ATOM     15  C   UNL     1      -4.753   0.317  -0.256  0.00  0.00    +0.053 A 
ATOM     16  C   UNL     1      -5.823  -0.174  -0.986  0.00  0.00    +0.162 A 
BRANCH  11  17
ATOM     17  O   UNL     1      -7.811   0.230  -2.238  0.00  0.00    -0.489 OA
BRANCH  17  19
ATOM     18  C   UNL     1      -9.839   0.472  -3.529  0.00  0.00    +0.048 C 
ATOM     19  C   UNL     1      -8.731   1.192  -2.758  0.00  0.00    +0.226 C 
ENDBRANCH  17  19
ENDBRANCH  11  17
BRANCH  16  20
ATOM     20  O   UNL     1      -5.960  -1.513  -1.179  0.00  0.00    -0.489 OA
BRANCH  20  21
ATOM     21  C   UNL     1      -4.962  -2.357  -0.600  0.00  0.00    +0.226 C 
ATOM     22  C   UNL     1      -5.282  -3.818  -0.921  0.00  0.00    +0.048 C 
ENDBRANCH  20  21
ENDBRANCH  16  20
ENDBRANCH   1  14
BRANCH   4  23
ATOM     23  C   UNL     1      -1.153   3.122  -1.361  0.00  0.00    -0.035 C 
ATOM     24  C   UNL     1      -0.205   3.861  -2.308  0.00  0.00    +0.011 C 
ATOM     25  C   UNL     1      -2.596   3.318  -1.828  0.00  0.00    +0.011 C 
ATOM     26  C   UNL     1      -0.995   3.678   0.055  0.00  0.00    +0.011 C 
ENDBRANCH   4  23
BRANCH   9  27
ATOM     27  N   UNL     1      -2.908   3.243   4.292  0.00  0.00    -0.358 N 
ATOM     28  H   UNL     1      -3.938   3.463   4.611  0.00  0.00    +0.142 HD
ATOM     29  H   UNL     1      -2.064   3.482   4.955  0.00  0.00    +0.142 HD
ENDBRANCH   9  27
BRANCH  10  30
ATOM     30  C   UNL     1      -4.838   3.455   2.314  0.00  0.00    +0.091 C 
ATOM     31  N   UNL     1      -5.596   4.297   2.402  0.00  0.00    -0.194 NA
ENDBRANCH  10  30
BRANCH  10  32
ATOM     32  C   UNL     1      -4.478   1.111   2.659  0.00  0.00    +0.091 C 
ATOM     33  N   UNL     1      -4.956   0.143   3.014  0.00  0.00    -0.194 NA
ENDBRANCH  10  32
BRANCH   8  34
ATOM     34  C   UNL     1      -0.320   2.719   3.612  0.00  0.00    +0.101 C 
ATOM     35  N   UNL     1       0.532   2.958   4.324  0.00  0.00    -0.191 NA
ENDBRANCH   8  34
TORSDOF 10
