REMARK  Name = ZINC43424752
REMARK  2 active torsions:
REMARK  status: ('A' for Active; 'I' for Inactive)
REMARK    1  A    between atoms: C_5  and  N_19
REMARK    2  A    between atoms: C_6  and  N_7
REMARK                            x       y       z     vdW  Elec       q    Type
REMARK                         _______ _______ _______ _____ _____    ______ ____
ROOT
ATOM      1  C   UNL     1      -0.017   1.387   0.010  0.00  0.00    +0.026 A 
ATOM      2  C   UNL     1       1.177   2.085   0.002  0.00  0.00    +0.019 A 
ATOM      3  C   UNL     1       2.367   1.398  -0.013  0.00  0.00    +0.041 A 
ATOM      4  C   UNL     1       2.429  -0.013  -0.021  0.00  0.00    +0.101 A 
ATOM      5  C   UNL     1       1.195  -0.705  -0.013  0.00  0.00    +0.073 A 
ATOM      6  C   UNL     1       0.002  -0.004   0.002  0.00  0.00    +0.053 A 
ATOM      7  N   UNL     1       3.689  -0.495  -0.036  0.00  0.00    -0.246 NA
ATOM      8  C   UNL     1       4.729   0.286  -0.042  0.00  0.00    +0.157 A 
ATOM      9  S   UNL     1       4.085   1.841  -0.028  0.00  0.00    -0.075 S 
ENDROOT
BRANCH   6  10
ATOM     10  N   UNL     1      -1.212  -0.710   0.010  0.00  0.00    -0.321 N 
ATOM     11  C   UNL     1      -1.865  -1.096   1.273  0.00  0.00    +0.133 C 
ATOM     12  C   UNL     1      -2.215  -2.587   1.214  0.00  0.00    +0.179 C 
ATOM     13  O   UNL     1      -2.929  -2.870   0.005  0.00  0.00    -0.373 OA
ATOM     14  C   UNL     1      -2.180  -2.595  -1.176  0.00  0.00    +0.139 C 
ATOM     15  C   UNL     1      -1.885  -1.087  -1.239  0.00  0.00    +0.102 C 
ATOM     16  C   UNL     1      -0.992  -0.805  -2.446  0.00  0.00    +0.025 C 
ATOM     17  C   UNL     1      -1.738  -1.214  -3.720  0.00  0.00    +0.002 C 
ATOM     18  C   UNL     1      -2.088  -2.701  -3.666  0.00  0.00    +0.003 C 
ATOM     19  C   UNL     1      -2.955  -2.988  -2.432  0.00  0.00    +0.033 C 
ENDBRANCH   6  10
BRANCH   5  20
ATOM     20  N   UNL     1       1.180  -2.106  -0.020  0.00  0.00    -0.355 N 
ATOM     21  H   UNL     1       2.015  -2.599  -0.031  0.00  0.00    +0.142 HD
ATOM     22  H   UNL     1       0.335  -2.582  -0.014  0.00  0.00    +0.142 HD
ENDBRANCH   5  20
TORSDOF 2
