REMARK  Name = ZINC35426998
REMARK  7 active torsions:
REMARK  status: ('A' for Active; 'I' for Inactive)
REMARK    1  A    between atoms: C_1  and  C_2
REMARK    2  A    between atoms: C_2  and  C_3
REMARK    3  A    between atoms: C_2  and  N_4
REMARK    4  A    between atoms: C_19  and  C_21
REMARK    5  A    between atoms: C_24  and  O_27
REMARK    6  A    between atoms: O_27  and  C_28
REMARK    7  A    between atoms: N_30  and  C_33
REMARK                            x       y       z     vdW  Elec       q    Type
REMARK                         _______ _______ _______ _____ _____    ______ ____
ROOT
ATOM      1  N   UNL     1       0.909  -0.326  -0.756  0.00  0.00    -0.297 N 
ATOM      2  C   UNL     1       2.229  -0.523  -0.938  0.00  0.00    +0.303 C 
ATOM      3  O   UNL     1       3.004  -0.335  -0.019  0.00  0.00    -0.253 OA
ATOM      4  N   UNL     1       2.692  -0.929  -2.137  0.00  0.00    -0.269 N 
ATOM      5  C   UNL     1       1.786  -1.162  -3.276  0.00  0.00    +0.148 C 
ATOM      6  C   UNL     1       2.361  -0.681  -4.589  0.00  0.00    +0.004 A 
ATOM      7  C   UNL     1       1.854   0.428  -5.293  0.00  0.00    -0.034 A 
ATOM      8  C   UNL     1       2.441   0.751  -6.477  0.00  0.00    -0.021 A 
ATOM      9  S   UNL     1       3.724  -0.459  -6.658  0.00  0.00    -0.077 S 
ATOM     10  C   UNL     1       3.421  -1.326  -5.148  0.00  0.00    +0.090 A 
ATOM     11  N   UNL     1       4.070  -2.408  -4.566  0.00  0.00    -0.312 N 
ATOM     12  C   UNL     1       4.479  -3.590  -5.080  0.00  0.00    +0.092 A 
ATOM     13  C   UNL     1       5.000  -4.327  -4.073  0.00  0.00    +0.020 A 
ATOM     14  C   UNL     1       4.922  -3.552  -2.895  0.00  0.00    +0.025 A 
ATOM     15  C   UNL     1       4.374  -2.374  -3.225  0.00  0.00    +0.049 A 
ATOM     16  C   UNL     1       4.138  -1.157  -2.376  0.00  0.00    +0.155 C 
ATOM     17  C   UNL     1       2.063   1.872  -7.388  0.00  0.00    -0.036 C 
ATOM     18  N   UNL     1       0.728   2.360  -6.994  0.00  0.00    +0.381 N 
ATOM     19  C   UNL     1       0.704   2.603  -5.546  0.00  0.00    -0.074 C 
ATOM     20  C   UNL     1       0.688   1.274  -4.785  0.00  0.00    +0.018 C 
ATOM     21  C   UNL     1       0.435   3.612  -7.705  0.00  0.00    -0.096 C 
ATOM     22  H   UNL     1       0.291  -0.476  -1.489  0.00  0.00    +0.150 HD
ATOM     23  H   UNL     1       0.034   1.668  -7.231  0.00  0.00    -0.082 HD
ENDROOT
BRANCH  16  24
ATOM     24  C   UNL     1       4.717   0.050  -3.068  0.00  0.00    -0.021 A 
ATOM     25  C   UNL     1       4.074   1.272  -2.978  0.00  0.00    +0.009 A 
ATOM     26  C   UNL     1       4.603   2.379  -3.612  0.00  0.00    +0.046 A 
ATOM     27  C   UNL     1       5.780   2.266  -4.338  0.00  0.00    +0.120 A 
ATOM     28  C   UNL     1       6.423   1.040  -4.426  0.00  0.00    +0.046 A 
ATOM     29  C   UNL     1       5.893  -0.064  -3.786  0.00  0.00    +0.009 A 
BRANCH  27  30
ATOM     30  O   UNL     1       6.301   3.354  -4.963  0.00  0.00    -0.495 OA
ATOM     31  C   UNL     1       7.515   3.164  -5.692  0.00  0.00    +0.277 C 
ENDBRANCH  27  30
ENDBRANCH  16  24
BRANCH   1  33
ATOM     32  C   UNL     1       0.497   1.639   0.640  0.00  0.00    +0.027 C 
ATOM     33  C   UNL     1       0.406   0.115   0.547  0.00  0.00    +0.068 C 
ATOM     34  C   UNL     1      -1.052  -0.320   0.705  0.00  0.00    +0.027 C 
ENDBRANCH   1  33
TORSDOF 3
