REMARK  Name = ZINC41584729
REMARK  8 active torsions:
REMARK  status: ('A' for Active; 'I' for Inactive)
REMARK    1  A    between atoms: C_1  and  C_2
REMARK    2  A    between atoms: C_2  and  O_3
REMARK    3  A    between atoms: O_3  and  C_4
REMARK    4  A    between atoms: C_7  and  C_10
REMARK    5  A    between atoms: C_15  and  C_39
REMARK    6  A    between atoms: C_17  and  O_38
REMARK    7  A    between atoms: C_18  and  C_21
REMARK    8  A    between atoms: C_21  and  N_22
REMARK                            x       y       z     vdW  Elec       q    Type
REMARK                         _______ _______ _______ _____ _____    ______ ____
ROOT
ATOM      1  C   UNL     1       1.141  -6.024   1.761  0.00  0.00    +0.058 C 
ATOM      2  C   UNL     1       1.867  -6.540   2.786  0.00  0.00    +0.176 C 
ATOM      3  C   UNL     1       2.165  -7.962   3.010  0.00  0.00    +0.232 C 
ATOM      4  O   UNL     1       1.821  -8.912   2.330  0.00  0.00    -0.283 OA
ATOM      5  C   UNL     1       2.975  -7.980   4.242  0.00  0.00    +0.071 A 
ATOM      6  C   UNL     1       3.567  -9.005   4.980  0.00  0.00    -0.033 A 
ATOM      7  C   UNL     1       4.276  -8.710   6.110  0.00  0.00    +0.050 A 
ATOM      8  C   UNL     1       4.408  -7.388   6.526  0.00  0.00    +0.122 A 
ATOM      9  C   UNL     1       3.825  -6.359   5.804  0.00  0.00    +0.020 A 
ATOM     10  C   UNL     1       3.102  -6.643   4.652  0.00  0.00    +0.145 A 
ATOM     11  O   UNL     1       2.454  -5.837   3.783  0.00  0.00    -0.451 OA
ATOM     12  C   UNL     1       3.424 -10.437   4.532  0.00  0.00    +0.045 C 
ENDROOT
BRANCH   1  16
ATOM     13  C   UNL     1       0.815  -1.823   1.296  0.00  0.00    +0.121 A 
ATOM     14  C   UNL     1       1.450  -2.348   2.416  0.00  0.00    +0.046 A 
ATOM     15  C   UNL     1       1.559  -3.712   2.572  0.00  0.00    +0.011 A 
ATOM     16  C   UNL     1       1.028  -4.570   1.600  0.00  0.00    -0.021 A 
ATOM     17  C   UNL     1       0.389  -4.034   0.474  0.00  0.00    +0.011 A 
ATOM     18  C   UNL     1       0.282  -2.670   0.331  0.00  0.00    +0.046 A 
BRANCH  13  19
ATOM     19  O   UNL     1       0.711  -0.477   1.148  0.00  0.00    -0.492 OA
BRANCH  19  21
ATOM     20  C   UNL     1       1.067   1.812   1.837  0.00  0.00    +0.048 C 
ATOM     21  C   UNL     1       1.281   0.335   2.176  0.00  0.00    +0.225 C 
ENDBRANCH  19  21
ENDBRANCH  13  19
ENDBRANCH   1  16
BRANCH   8  22
ATOM     22  O   UNL     1       5.114  -7.104   7.651  0.00  0.00    -0.506 OA
ATOM     23  H   UNL     1       6.055  -6.944   7.494  0.00  0.00    +0.292 HD
ENDBRANCH   8  22
BRANCH   9  24
ATOM     24  C   UNL     1       3.977  -4.933   6.267  0.00  0.00    -0.036 C 
BRANCH  24  25
ATOM     25  N   UNL     1       5.180  -4.347   5.662  0.00  0.00    +0.383 N 
ATOM     26  C   UNL     1       5.257  -2.925   6.009  0.00  0.00    -0.073 C 
ATOM     27  C   UNL     1       6.493  -2.277   5.404  0.00  0.00    -0.007 C 
ATOM     28  C   UNL     1       7.761  -3.015   5.841  0.00  0.00    +0.011 C 
ATOM     29  C   UNL     1       7.601  -4.485   5.433  0.00  0.00    +0.020 C 
ATOM     30  C   UNL     1       6.371  -5.048   6.164  0.00  0.00    -0.069 C 
ATOM     31  C   UNL     1       7.334  -4.558   3.946  0.00  0.00    +0.023 A 
ATOM     32  C   UNL     1       7.739  -5.677   3.289  0.00  0.00    +0.022 A 
ATOM     33  C   UNL     1       7.467  -5.839   1.926  0.00  0.00    +0.007 A 
ATOM     34  C   UNL     1       6.767  -4.867   1.274  0.00  0.00    +0.070 A 
ATOM     35  C   UNL     1       6.360  -3.727   1.982  0.00  0.00    +0.251 A 
ATOM     36  O   UNL     1       5.679  -2.881   1.425  0.00  0.00    -0.268 OA
ATOM     37  N   UNL     1       6.714  -3.556   3.280  0.00  0.00    -0.312 N 
ATOM     38  C   UNL     1       6.433  -2.257   3.885  0.00  0.00    +0.126 C 
ATOM     39  H   UNL     1       5.132  -4.444   4.659  0.00  0.00    -0.081 HD
ENDBRANCH  24  25
ENDBRANCH   9  24
TORSDOF 6
