REMARK  Name = ZINC03322712
REMARK  10 active torsions:
REMARK  status: ('A' for Active; 'I' for Inactive)
REMARK    1  A    between atoms: C_1  and  C_2
REMARK    2  A    between atoms: C_3  and  C_35
REMARK    3  A    between atoms: C_11  and  C_13
REMARK    4  A    between atoms: C_13  and  S_14
REMARK    5  A    between atoms: S_14  and  C_15
REMARK    6  A    between atoms: C_18  and  C_29
REMARK    7  A    between atoms: N_19  and  C_20
REMARK    8  A    between atoms: C_25  and  C_26
REMARK    9  A    between atoms: C_26  and  C_27
REMARK   10  A    between atoms: C_26  and  C_28
REMARK                            x       y       z     vdW  Elec       q    Type
REMARK                         _______ _______ _______ _____ _____    ______ ____
ROOT
ATOM      1  C   UNL     1       2.034  -4.190   0.120  0.00  0.00    +0.197 A 
ATOM      2  N   UNL     1       0.761  -4.171  -0.208  0.00  0.00    -0.122 NA
ATOM      3  N   UNL     1       0.343  -2.959  -0.292  0.00  0.00    -0.128 NA
ATOM      4  C   UNL     1       1.322  -2.127  -0.022  0.00  0.00    +0.171 A 
ATOM      5  N   UNL     1       2.439  -2.889   0.244  0.00  0.00    -0.270 N 
ENDROOT
BRANCH   5   6
ATOM      6  C   UNL     1       3.720  -2.429   0.576  0.00  0.00    +0.054 A 
ATOM      7  C   UNL     1       4.063  -2.223   1.906  0.00  0.00    +0.026 A 
ATOM      8  C   UNL     1       5.326  -1.769   2.230  0.00  0.00    +0.002 A 
ATOM      9  C   UNL     1       6.250  -1.521   1.231  0.00  0.00    +0.000 A 
ATOM     10  C   UNL     1       5.912  -1.725  -0.094  0.00  0.00    +0.006 A 
ATOM     11  C   UNL     1       4.652  -2.183  -0.424  0.00  0.00    -0.021 A 
BRANCH  11  12
ATOM     12  C   UNL     1       4.286  -2.412  -1.868  0.00  0.00    +0.015 C 
ATOM     13  C   UNL     1       4.420  -1.099  -2.642  0.00  0.00    +0.012 C 
ATOM     14  C   UNL     1       5.224  -3.458  -2.472  0.00  0.00    +0.012 C 
ENDBRANCH  11  12
ENDBRANCH   5   6
BRANCH   4  15
ATOM     15  C   UNL     1       1.244  -0.651  -0.013  0.00  0.00    +0.038 A 
ATOM     16  C   UNL     1       0.002  -0.004   0.002  0.00  0.00    +0.014 A 
ATOM     17  C   UNL     1      -0.017   1.379   0.010  0.00  0.00    +0.020 A 
ATOM     18  C   UNL     1       1.180   2.073   0.002  0.00  0.00    +0.111 A 
ATOM     19  N   UNL     1       2.336   1.437  -0.013  0.00  0.00    -0.263 NA
ATOM     20  C   UNL     1       2.406   0.122  -0.020  0.00  0.00    +0.122 A 
ENDBRANCH   4  15
BRANCH   1  21
ATOM     21  S   UNL     1       3.033  -5.623   0.349  0.00  0.00    -0.078 S 
BRANCH  21  22
ATOM     22  C   UNL     1       1.812  -6.915   0.009  0.00  0.00    +0.151 C 
BRANCH  22  33
ATOM     23  C   UNL     1       3.838 -13.294   0.406  0.00  0.00    +0.045 C 
ATOM     24  C   UNL     1       4.449 -11.928   0.590  0.00  0.00    -0.026 A 
ATOM     25  C   UNL     1       5.742 -11.802   0.926  0.00  0.00    -0.008 A 
ATOM     26  S   UNL     1       5.974 -10.037   1.020  0.00  0.00    -0.073 S 
ATOM     27  C   UNL     1       4.328  -9.521   0.606  0.00  0.00    +0.116 A 
ATOM     28  C   UNL     1       3.645 -10.734   0.406  0.00  0.00    +0.075 A 
ATOM     29  C   UNL     1       2.261 -10.615   0.052  0.00  0.00    +0.260 A 
ATOM     30  O   UNL     1       1.584 -11.610  -0.142  0.00  0.00    -0.267 OA
ATOM     31  N   UNL     1       1.720  -9.388  -0.057  0.00  0.00    -0.310 N 
ATOM     32  H   UNL     1       0.753  -9.298  -0.296  0.00  0.00    +0.170 HD
ATOM     33  C   UNL     1       2.461  -8.268   0.150  0.00  0.00    +0.121 A 
ATOM     34  N   UNL     1       3.724  -8.344   0.474  0.00  0.00    -0.226 NA
ATOM     35  C   UNL     1       6.756 -12.892   1.166  0.00  0.00    +0.052 C 
ENDBRANCH  22  33
ENDBRANCH  21  22
ENDBRANCH   1  21
TORSDOF 6
