REMARK  Name = ZINC39324928
REMARK  10 active torsions:
REMARK  status: ('A' for Active; 'I' for Inactive)
REMARK    1  A    between atoms: C_1  and  C_2
REMARK    2  A    between atoms: C_9  and  C_14
REMARK    3  A    between atoms: C_14  and  N_15
REMARK    4  A    between atoms: N_15  and  C_16
REMARK    5  A    between atoms: N_15  and  S_25
REMARK    6  A    between atoms: C_16  and  C_17
REMARK    7  A    between atoms: C_20  and  O_23
REMARK    8  A    between atoms: O_23  and  C_24
REMARK    9  A    between atoms: S_25  and  C_28
REMARK   10  A    between atoms: C_33  and  C_34
REMARK                            x       y       z     vdW  Elec       q    Type
REMARK                         _______ _______ _______ _____ _____    ______ ____
ROOT
ATOM      1  N   UNL     1      -1.576  -5.892   3.276  0.00  0.00    -0.171 NA
ENDROOT
BRANCH   1   2
ATOM      2  S   UNL     1      -1.811  -6.837   1.937  0.00  0.00    +0.062 S 
ATOM      3  O   UNL     1      -1.368  -6.077   0.821  0.00  0.00    -0.153 OA
ATOM      4  O   UNL     1      -1.280  -8.118   2.246  0.00  0.00    -0.153 OA
BRANCH   2   5
ATOM      5  C   UNL     1      -3.550  -7.045   1.746  0.00  0.00    +0.117 A 
ATOM      6  C   UNL     1      -4.198  -6.490   0.658  0.00  0.00    +0.029 A 
ATOM      7  C   UNL     1      -5.562  -6.654   0.507  0.00  0.00    +0.002 A 
ATOM      8  C   UNL     1      -6.279  -7.373   1.445  0.00  0.00    +0.001 A 
ATOM      9  C   UNL     1      -5.632  -7.929   2.532  0.00  0.00    +0.014 A 
ATOM     10  C   UNL     1      -4.267  -7.769   2.680  0.00  0.00    +0.081 A 
BRANCH  10  11
ATOM     11  C   UNL     1      -3.560  -8.380   3.863  0.00  0.00    +0.419 C 
ATOM     12  F   UNL     1      -4.504  -8.924   4.740  0.00  0.00    -0.166 F 
ATOM     13  F   UNL     1      -2.699  -9.390   3.421  0.00  0.00    -0.166 F 
ATOM     14  F   UNL     1      -2.821  -7.394   4.525  0.00  0.00    -0.166 F 
ENDBRANCH  10  11
ENDBRANCH   2   5
ENDBRANCH   1   2
BRANCH   1  15
ATOM     15  C   UNL     1      -2.710  -5.197   3.891  0.00  0.00    +0.126 C 
BRANCH  15  24
ATOM     16  C   UNL     1      -7.245   0.168   5.176  0.00  0.00    +0.044 C 
ATOM     17  C   UNL     1      -6.218  -0.556   4.345  0.00  0.00    -0.050 A 
ATOM     18  C   UNL     1      -6.160  -0.318   2.972  0.00  0.00    +0.005 A 
ATOM     19  C   UNL     1      -5.261  -0.932   2.159  0.00  0.00    +0.024 A 
ATOM     20  C   UNL     1      -4.336  -1.853   2.683  0.00  0.00    +0.040 A 
ATOM     21  N   UNL     1      -3.459  -2.450   1.876  0.00  0.00    -0.284 N 
ATOM     22  C   UNL     1      -2.564  -3.325   2.303  0.00  0.00    +0.225 C 
ATOM     23  O   UNL     1      -1.789  -3.837   1.518  0.00  0.00    -0.275 OA
ATOM     24  C   UNL     1      -2.508  -3.685   3.770  0.00  0.00    +0.114 C 
ATOM     25  C   UNL     1      -3.503  -3.009   4.693  0.00  0.00    -0.003 C 
ATOM     26  C   UNL     1      -4.376  -2.125   4.131  0.00  0.00    -0.007 A 
ATOM     27  C   UNL     1      -5.366  -1.424   4.949  0.00  0.00    +0.012 A 
ATOM     28  H   UNL     1      -3.479  -2.233   0.931  0.00  0.00    +0.155 HD
ENDBRANCH  15  24
ENDBRANCH   1  15
BRANCH   1  29
ATOM     29  C   UNL     1      -0.234  -5.750   3.846  0.00  0.00    +0.144 C 
BRANCH  29  30
ATOM     30  C   UNL     1      -0.083  -6.690   5.014  0.00  0.00    -0.031 A 
ATOM     31  C   UNL     1      -0.492  -6.296   6.275  0.00  0.00    +0.008 A 
ATOM     32  C   UNL     1      -0.354  -7.156   7.347  0.00  0.00    +0.046 A 
ATOM     33  C   UNL     1       0.196  -8.416   7.158  0.00  0.00    +0.120 A 
ATOM     34  C   UNL     1       0.605  -8.809   5.893  0.00  0.00    +0.046 A 
ATOM     35  C   UNL     1       0.460  -7.947   4.822  0.00  0.00    +0.008 A 
BRANCH  33  36
ATOM     36  O   UNL     1       0.333  -9.264   8.212  0.00  0.00    -0.495 OA
ATOM     37  C   UNL     1       0.907 -10.544   7.944  0.00  0.00    +0.277 C 
ENDBRANCH  33  36
ENDBRANCH  29  30
ENDBRANCH   1  29
TORSDOF 8
