REMARK  Name = ZINC19938760
REMARK  9 active torsions:
REMARK  status: ('A' for Active; 'I' for Inactive)
REMARK    1  A    between atoms: C_1  and  C_2
REMARK    2  A    between atoms: C_2  and  O_3
REMARK    3  A    between atoms: O_3  and  C_4
REMARK    4  A    between atoms: C_6  and  C_14
REMARK    5  A    between atoms: C_8  and  N_11
REMARK    6  A    between atoms: C_9  and  O_10
REMARK    7  A    between atoms: C_19  and  C_24
REMARK    8  A    between atoms: C_27  and  O_30
REMARK    9  A    between atoms: O_30  and  C_31
REMARK                            x       y       z     vdW  Elec       q    Type
REMARK                         _______ _______ _______ _____ _____    ______ ____
ROOT
ATOM      1  C   UNL     1       1.259   3.715  -0.019  0.00  0.00    +0.136 C 
ATOM      2  C   UNL     1       1.329   2.208   0.079  0.00  0.00    +0.036 C 
ATOM      3  C   UNL     1       0.281   1.370   0.081  0.00  0.00    +0.017 C 
ATOM      4  C   UNL     1       0.501  -0.133   0.155  0.00  0.00    +0.059 C 
ATOM      5  C   UNL     1       1.743  -0.435   0.993  0.00  0.00    +0.032 C 
ATOM      6  C   UNL     1       2.939   0.241   0.313  0.00  0.00    +0.088 C 
ATOM      7  C   UNL     1       2.647   1.705   0.177  0.00  0.00    +0.163 C 
ATOM      8  O   UNL     1       3.577   2.487   0.149  0.00  0.00    -0.292 OA
ATOM      9  N   UNL     1      -1.023   1.746   0.026  0.00  0.00    -0.316 N 
ATOM     10  C   UNL     1      -1.540   2.675  -0.877  0.00  0.00    +0.052 A 
ATOM     11  C   UNL     1      -2.493   2.342  -1.823  0.00  0.00    +0.025 A 
ATOM     12  C   UNL     1      -3.022   3.333  -2.632  0.00  0.00    +0.002 A 
ATOM     13  C   UNL     1      -2.598   4.643  -2.496  0.00  0.00    +0.002 A 
ATOM     14  C   UNL     1      -1.628   4.973  -1.567  0.00  0.00    +0.025 A 
ATOM     15  C   UNL     1      -1.083   3.980  -0.766  0.00  0.00    +0.049 A 
ATOM     16  N   UNL     1      -0.071   4.261   0.148  0.00  0.00    -0.331 N 
ATOM     17  H   UNL     1      -1.751   1.309   0.725  0.00  0.00    +0.152 HD
ATOM     18  H   UNL     1      -0.296   4.909   1.008  0.00  0.00    +0.147 HD
ENDROOT
BRANCH   1  21
ATOM     19  C   UNL     1       3.404   5.291  -2.700  0.00  0.00    +0.164 A 
ATOM     20  C   UNL     1       2.922   4.907  -1.459  0.00  0.00    +0.055 A 
ATOM     21  C   UNL     1       1.781   4.131  -1.370  0.00  0.00    -0.017 A 
ATOM     22  C   UNL     1       1.122   3.732  -2.517  0.00  0.00    +0.042 A 
ATOM     23  C   UNL     1       1.594   4.116  -3.759  0.00  0.00    +0.171 A 
ATOM     24  C   UNL     1       2.737   4.894  -3.855  0.00  0.00    +0.189 A 
BRANCH  23  25
ATOM     25  N   UNL     1       0.882   3.692  -4.985  0.00  0.00    +0.060 N 
ATOM     26  O   UNL     1      -0.123   3.009  -4.900  0.00  0.00    -0.126 OA
ATOM     27  O   UNL     1       1.300   4.027  -6.079  0.00  0.00    -0.126 OA
ENDBRANCH  23  25
BRANCH  24  28
ATOM     28  O   UNL     1       3.206   5.268  -5.075  0.00  0.00    -0.502 OA
ATOM     29  H   UNL     1       2.678   4.953  -5.988  0.00  0.00    +0.292 HD
ENDBRANCH  24  28
BRANCH  19  30
ATOM     30  O   UNL     1       4.526   6.053  -2.789  0.00  0.00    -0.488 OA
BRANCH  30  32
ATOM     31  C   UNL     1       6.395   7.273  -1.862  0.00  0.00    +0.048 C 
ATOM     32  C   UNL     1       5.159   6.423  -1.563  0.00  0.00    +0.226 C 
ENDBRANCH  30  32
ENDBRANCH  19  30
ENDBRANCH   1  21
BRANCH   5  33
ATOM     33  C   UNL     1       1.966  -1.924   1.057  0.00  0.00    -0.043 A 
ATOM     34  C   UNL     1       2.164  -2.643  -0.107  0.00  0.00    +0.007 A 
ATOM     35  C   UNL     1       2.374  -4.007  -0.051  0.00  0.00    +0.046 A 
ATOM     36  C   UNL     1       2.374  -4.658   1.175  0.00  0.00    +0.120 A 
ATOM     37  C   UNL     1       2.169  -3.935   2.341  0.00  0.00    +0.046 A 
ATOM     38  C   UNL     1       1.965  -2.570   2.280  0.00  0.00    +0.007 A 
BRANCH  36  39
ATOM     39  O   UNL     1       2.576  -6.000   1.233  0.00  0.00    -0.495 OA
ATOM     40  C   UNL     1       2.781  -6.680  -0.008  0.00  0.00    +0.277 C 
ENDBRANCH  36  39
ENDBRANCH   5  33
TORSDOF 7
