REMARK  Name = ZINC30987481
REMARK  9 active torsions:
REMARK  status: ('A' for Active; 'I' for Inactive)
REMARK    1  A    between atoms: C_1  and  C_2
REMARK    2  A    between atoms: C_2  and  C_4
REMARK    3  A    between atoms: C_2  and  N_14
REMARK    4  A    between atoms: C_7  and  S_10
REMARK    5  A    between atoms: S_10  and  C_13
REMARK    6  A    between atoms: C_15  and  C_17
REMARK    7  A    between atoms: N_20  and  C_23
REMARK    8  A    between atoms: C_23  and  C_24
REMARK    9  A    between atoms: C_26  and  C_29
REMARK                            x       y       z     vdW  Elec       q    Type
REMARK                         _______ _______ _______ _____ _____    ______ ____
ROOT
ATOM      1  C   UNL     1       1.761   1.283   4.160  0.00  0.00    +0.071 C 
ATOM      2  C   UNL     1       0.792   1.219   5.344  0.00  0.00    -0.006 C 
ATOM      3  C   UNL     1       1.551   0.770   6.594  0.00  0.00    -0.077 C 
ATOM      4  N   UNL     1       2.635   1.719   6.877  0.00  0.00    +0.386 N 
ATOM      5  C   UNL     1       3.604   1.762   5.774  0.00  0.00    -0.077 C 
ATOM      6  C   UNL     1       2.906   2.241   4.499  0.00  0.00    -0.006 C 
ATOM      7  H   UNL     1       2.189   2.720   6.971  0.00  0.00    -0.081 HD
ENDROOT
BRANCH   1   9
ATOM      8  N   UNL     1      -0.020   1.094   2.454  0.00  0.00    -0.309 N 
ATOM      9  C   UNL     1       1.032   1.782   2.939  0.00  0.00    +0.216 C 
ATOM     10  O   UNL     1       1.392   2.804   2.393  0.00  0.00    -0.276 OA
ATOM     11  H   UNL     1      -0.347   0.168   2.949  0.00  0.00    +0.149 HD
BRANCH   8  13
ATOM     12  C   UNL     1      -0.013   1.086   0.008  0.00  0.00    +0.033 C 
ATOM     13  C   UNL     1      -0.729   1.579   1.267  0.00  0.00    +0.100 C 
BRANCH  13  14
ATOM     14  C   UNL     1      -2.143   1.058   1.278  0.00  0.00    -0.027 A 
ATOM     15  C   UNL     1      -2.397  -0.241   1.677  0.00  0.00    +0.007 A 
ATOM     16  C   UNL     1      -3.695  -0.718   1.692  0.00  0.00    +0.027 A 
ATOM     17  C   UNL     1      -4.736   0.100   1.296  0.00  0.00    +0.088 A 
ATOM     18  C   UNL     1      -4.481   1.397   0.892  0.00  0.00    +0.027 A 
ATOM     19  C   UNL     1      -3.184   1.876   0.882  0.00  0.00    +0.007 A 
BRANCH  17  20
ATOM     20  S   UNL     1      -6.389  -0.510   1.308  0.00  0.00    -0.006 S 
ATOM     21  O   UNL     1      -6.390  -1.536   2.291  0.00  0.00    -0.170 OA
ATOM     22  O   UNL     1      -7.201   0.646   1.467  0.00  0.00    -0.170 OA
ATOM     23  C   UNL     1      -6.634  -1.224  -0.341  0.00  0.00    +0.200 C 
ENDBRANCH  17  20
ENDBRANCH  13  14
ENDBRANCH   8  13
ENDBRANCH   1   9
BRANCH   4  24
ATOM     24  C   UNL     1       3.299   1.397   8.148  0.00  0.00    +0.022 C 
BRANCH  24  25
ATOM     25  C   UNL     1       2.331   1.600   9.285  0.00  0.00    +0.211 A 
ATOM     26  N   UNL     1       1.516   0.704   9.783  0.00  0.00    -0.193 NA
ATOM     27  C   UNL     1       0.849   1.332  10.778  0.00  0.00    +0.202 A 
ATOM     28  N   UNL     1       1.294   2.561  10.825  0.00  0.00    -0.056 NA
ATOM     29  O   UNL     1       2.147   2.728   9.979  0.00  0.00    -0.340 OA
BRANCH  27  30
ATOM     30  C   UNL     1      -0.193   0.738  11.652  0.00  0.00    +0.023 A 
ATOM     31  C   UNL     1      -0.573  -0.591  11.482  0.00  0.00    +0.013 A 
ATOM     32  C   UNL     1      -1.538  -1.141  12.301  0.00  0.00    +0.021 A 
ATOM     33  C   UNL     1      -2.137  -0.369  13.282  0.00  0.00    +0.041 A 
ATOM     34  C   UNL     1      -1.766   0.954  13.452  0.00  0.00    +0.021 A 
ATOM     35  C   UNL     1      -0.798   1.510  12.642  0.00  0.00    +0.013 A 
ATOM     36 CL   UNL     1      -3.356  -1.064  14.305  0.00  0.00    -0.084 Cl
ENDBRANCH  27  30
ENDBRANCH  24  25
ENDBRANCH   4  24
TORSDOF 7
