REMARK  Name = ZINC39887137
REMARK  5 active torsions:
REMARK  status: ('A' for Active; 'I' for Inactive)
REMARK    1  A    between atoms: C_1  and  C_2
REMARK    2  A    between atoms: C_5  and  N_8
REMARK    3  A    between atoms: C_9  and  C_19
REMARK    4  A    between atoms: C_14  and  C_17
REMARK    5  A    between atoms: C_25  and  C_28
REMARK                            x       y       z     vdW  Elec       q    Type
REMARK                         _______ _______ _______ _____ _____    ______ ____
ROOT
ATOM      1  N   UNL     1       0.056  -4.364  -0.293  0.00  0.00    -0.270 N 
ATOM      2  C   UNL     1       0.146  -5.074   0.987  0.00  0.00    +0.197 C 
ATOM      3  N   UNL     1      -0.798  -6.193   0.999  0.00  0.00    -0.288 N 
ATOM      4  C   UNL     1      -1.119  -6.832  -0.143  0.00  0.00    +0.258 C 
ATOM      5  O   UNL     1      -1.872  -7.789  -0.118  0.00  0.00    -0.269 OA
ATOM      6  C   UNL     1      -0.558  -6.368  -1.415  0.00  0.00    +0.142 C 
ATOM      7  C   UNL     1       0.028  -5.095  -1.455  0.00  0.00    +0.103 C 
ATOM      8  S   UNL     1       0.710  -4.458  -2.950  0.00  0.00    -0.033 SA
ATOM      9  H   UNL     1      -1.195  -6.478   1.837  0.00  0.00    +0.151 HD
ENDROOT
BRANCH   2  10
ATOM     10  C   UNL     1       1.546  -5.598   1.172  0.00  0.00    -0.008 A 
ATOM     11  C   UNL     1       2.615  -4.899   0.606  0.00  0.00    +0.009 A 
ATOM     12  C   UNL     1       3.897  -5.323   0.739  0.00  0.00    +0.032 A 
ATOM     13  C   UNL     1       4.169  -6.502   1.470  0.00  0.00    +0.114 A 
ATOM     14  C   UNL     1       3.041  -7.236   2.066  0.00  0.00    +0.049 A 
ATOM     15  C   UNL     1       1.737  -6.735   1.890  0.00  0.00    +0.021 A 
ATOM     16  C   UNL     1       3.586  -8.340   2.717  0.00  0.00    +0.175 A 
ATOM     17  O   UNL     1       4.916  -8.300   2.546  0.00  0.00    -0.353 OA
ATOM     18  N   UNL     1       5.264  -7.165   1.777  0.00  0.00    -0.078 NA
BRANCH  16  19
ATOM     19  C   UNL     1       2.837  -9.367   3.461  0.00  0.00    +0.021 A 
ATOM     20  C   UNL     1       3.268  -9.772   4.728  0.00  0.00    +0.013 A 
ATOM     21  C   UNL     1       2.562 -10.733   5.419  0.00  0.00    +0.021 A 
ATOM     22  C   UNL     1       1.427 -11.299   4.860  0.00  0.00    +0.041 A 
ATOM     23  C   UNL     1       0.994 -10.903   3.605  0.00  0.00    +0.021 A 
ATOM     24  C   UNL     1       1.688  -9.938   2.906  0.00  0.00    +0.013 A 
ATOM     25 CL   UNL     1       0.544 -12.509   5.736  0.00  0.00    -0.084 Cl
ENDBRANCH  16  19
ENDBRANCH   2  10
BRANCH   1  30
ATOM     26  C   UNL     1      -0.190   1.301  -0.442  0.00  0.00    +0.044 C 
ATOM     27  C   UNL     1      -0.124  -0.204  -0.402  0.00  0.00    -0.050 A 
ATOM     28  C   UNL     1      -1.171  -0.926   0.142  0.00  0.00    +0.005 A 
ATOM     29  C   UNL     1      -1.114  -2.305   0.179  0.00  0.00    +0.024 A 
ATOM     30  C   UNL     1      -0.004  -2.967  -0.330  0.00  0.00    +0.036 A 
ATOM     31  C   UNL     1       1.045  -2.239  -0.876  0.00  0.00    +0.024 A 
ATOM     32  C   UNL     1       0.980  -0.860  -0.915  0.00  0.00    +0.005 A 
ENDBRANCH   1  30
BRANCH   6  33
ATOM     33  C   UNL     1      -0.612  -7.192  -2.585  0.00  0.00    +0.107 C 
ATOM     34  N   UNL     1      -0.654  -7.845  -3.513  0.00  0.00    -0.191 NA
ENDBRANCH   6  33
TORSDOF 4
