REMARK  Name = ZINC36340245
REMARK  11 active torsions:
REMARK  status: ('A' for Active; 'I' for Inactive)
REMARK    1  A    between atoms: C_1  and  C_2
REMARK    2  A    between atoms: C_3  and  C_31
REMARK    3  A    between atoms: C_4  and  N_14
REMARK    4  A    between atoms: C_6  and  C_8
REMARK    5  A    between atoms: N_17  and  C_20
REMARK    6  A    between atoms: C_20  and  C_21
REMARK    7  A    between atoms: C_21  and  C_23
REMARK    8  A    between atoms: C_21  and  O_30
REMARK    9  A    between atoms: C_23  and  C_24
REMARK   10  A    between atoms: C_31  and  C_32
REMARK   11  A    between atoms: C_35  and  N_38
REMARK                            x       y       z     vdW  Elec       q    Type
REMARK                         _______ _______ _______ _____ _____    ______ ____
ROOT
ATOM      1  C   UNL     1      -0.656   1.495   0.153  0.00  0.00    +0.066 C 
ATOM      2  C   UNL     1      -0.446   0.004   0.082  0.00  0.00    +0.047 A 
ATOM      3  C   UNL     1      -0.210  -0.611  -1.133  0.00  0.00    +0.018 A 
ATOM      4  C   UNL     1      -0.021  -1.995  -1.154  0.00  0.00    +0.129 A 
ATOM      5  N   UNL     1      -0.072  -2.670  -0.011  0.00  0.00    -0.212 NA
ATOM      6  C   UNL     1      -0.300  -2.042   1.134  0.00  0.00    +0.162 A 
ATOM      7  N   UNL     1      -0.479  -0.729   1.184  0.00  0.00    -0.232 NA
ENDROOT
BRANCH   6   8
ATOM      8  C   UNL     1      -0.352  -2.828   2.391  0.00  0.00    +0.019 A 
ATOM      9  C   UNL     1      -0.156  -4.207   2.363  0.00  0.00    +0.011 A 
ATOM     10  C   UNL     1      -0.205  -4.933   3.536  0.00  0.00    +0.001 A 
ATOM     11  C   UNL     1      -0.447  -4.293   4.738  0.00  0.00    +0.000 A 
ATOM     12  C   UNL     1      -0.642  -2.924   4.772  0.00  0.00    +0.001 A 
ATOM     13  C   UNL     1      -0.591  -2.188   3.606  0.00  0.00    +0.011 A 
ENDBRANCH   6   8
BRANCH   4  14
ATOM     14  N   UNL     1       0.217  -2.653  -2.350  0.00  0.00    -0.312 N 
ATOM     15  C   UNL     1       1.587  -2.992  -2.765  0.00  0.00    +0.122 C 
ATOM     16  C   UNL     1       1.631  -4.479  -3.133  0.00  0.00    +0.103 C 
ATOM     17  N   UNL     1       0.590  -4.764  -4.130  0.00  0.00    -0.297 NA
ATOM     18  C   UNL     1      -0.752  -4.518  -3.586  0.00  0.00    +0.103 C 
ATOM     19  C   UNL     1      -0.893  -3.038  -3.234  0.00  0.00    +0.122 C 
BRANCH  17  20
ATOM     20  C   UNL     1       0.709  -6.138  -4.636  0.00  0.00    +0.116 C 
BRANCH  20  21
ATOM     21  C   UNL     1      -0.219  -6.320  -5.839  0.00  0.00    +0.133 C 
BRANCH  21  22
ATOM     22  O   UNL     1       0.221  -5.483  -6.911  0.00  0.00    -0.390 OA
ATOM     23  H   UNL     1       1.120  -5.671  -7.213  0.00  0.00    +0.210 HD
ENDBRANCH  21  22
BRANCH  21  24
ATOM     24  C   UNL     1      -0.190  -7.782  -6.289  0.00  0.00    +0.067 C 
BRANCH  24  25
ATOM     25  C   UNL     1      -1.194  -7.988  -7.394  0.00  0.00    -0.045 A 
ATOM     26  C   UNL     1      -2.494  -8.344  -7.088  0.00  0.00    +0.004 A 
ATOM     27  C   UNL     1      -3.416  -8.533  -8.101  0.00  0.00    +0.000 A 
ATOM     28  C   UNL     1      -3.037  -8.366  -9.420  0.00  0.00    +0.000 A 
ATOM     29  C   UNL     1      -1.736  -8.009  -9.726  0.00  0.00    +0.000 A 
ATOM     30  C   UNL     1      -0.816  -7.816  -8.712  0.00  0.00    +0.004 A 
ENDBRANCH  24  25
ENDBRANCH  21  24
ENDBRANCH  20  21
ENDBRANCH  17  20
ENDBRANCH   4  14
BRANCH   3  31
ATOM     31  C   UNL     1      -0.161   0.193  -2.407  0.00  0.00    +0.075 C 
BRANCH  31  32
ATOM     32  C   UNL     1       1.220   0.772  -2.582  0.00  0.00    -0.043 A 
ATOM     33  C   UNL     1       1.563   1.947  -1.940  0.00  0.00    +0.006 A 
ATOM     34  C   UNL     1       2.830   2.478  -2.100  0.00  0.00    +0.033 A 
ATOM     35  C   UNL     1       3.753   1.833  -2.902  0.00  0.00    +0.126 A 
ATOM     36  C   UNL     1       3.410   0.657  -3.543  0.00  0.00    +0.033 A 
ATOM     37  C   UNL     1       2.145   0.124  -3.379  0.00  0.00    +0.006 A 
BRANCH  35  38
ATOM     38  N   UNL     1       5.108   2.402  -3.075  0.00  0.00    +0.056 N 
ATOM     39  O   UNL     1       5.408   3.430  -2.514  0.00  0.00    -0.126 OA
ATOM     40  O   UNL     1       5.916   1.838  -3.776  0.00  0.00    -0.126 OA
ENDBRANCH  35  38
ENDBRANCH  31  32
ENDBRANCH   3  31
TORSDOF 10
