REMARK  Name = ZINC02858405
REMARK  7 active torsions:
REMARK  status: ('A' for Active; 'I' for Inactive)
REMARK    1  A    between atoms: C_1  and  C_2
REMARK    2  A    between atoms: C_2  and  O_3
REMARK    3  A    between atoms: O_3  and  C_4
REMARK    4  A    between atoms: C_4  and  C_6
REMARK    5  A    between atoms: C_10  and  N_11
REMARK    6  A    between atoms: N_11  and  C_12
REMARK    7  A    between atoms: C_12  and  N_14
REMARK                            x       y       z     vdW  Elec       q    Type
REMARK                         _______ _______ _______ _____ _____    ______ ____
ROOT
ATOM      1  C   UNL     1       2.996  -1.655   1.735  0.00  0.00    +0.091 A 
ATOM      2  C   UNL     1       2.175  -0.700   1.002  0.00  0.00    -0.021 A 
ATOM      3  C   UNL     1       2.842   0.047   0.097  0.00  0.00    -0.004 A 
ATOM      4  S   UNL     1       4.527  -0.489   0.216  0.00  0.00    -0.077 S 
ATOM      5  C   UNL     1       4.352  -1.697   1.444  0.00  0.00    +0.086 A 
ATOM      6  C   UNL     1       2.283   1.089  -0.821  0.00  0.00    +0.043 C 
ATOM      7  C   UNL     1       1.397   2.049  -0.017  0.00  0.00    +0.005 C 
ATOM      8  C   UNL     1      -0.027   1.501  -0.009  0.00  0.00    +0.001 C 
ATOM      9  C   UNL     1      -0.002  -0.026  -0.017  0.00  0.00    +0.005 C 
ATOM     10  C   UNL     1       0.678  -0.554   1.242  0.00  0.00    +0.037 C 
ENDROOT
BRANCH   1  11
ATOM     11  C   UNL     1       2.410  -2.540   2.743  0.00  0.00    +0.342 C 
ATOM     12  O   UNL     1       1.985  -3.633   2.420  0.00  0.00    -0.245 OA
BRANCH  11  13
ATOM     13  O   UNL     1       2.341  -2.143   4.031  0.00  0.00    -0.461 OA
BRANCH  13  15
ATOM     14  C   UNL     1       1.758  -2.452   6.375  0.00  0.00    +0.048 C 
ATOM     15  C   UNL     1       1.748  -3.072   4.976  0.00  0.00    +0.229 C 
ENDBRANCH  13  15
ENDBRANCH  11  13
ENDBRANCH   1  11
BRANCH   5  16
ATOM     16  N   UNL     1       5.327  -2.507   2.001  0.00  0.00    -0.291 N 
ATOM     17  H   UNL     1       5.091  -3.149   2.689  0.00  0.00    +0.154 HD
BRANCH  16  18
ATOM     18  C   UNL     1       6.606  -2.404   1.587  0.00  0.00    +0.140 C 
ATOM     19  S   UNL     1       7.024  -1.271   0.373  0.00  0.00    -0.018 S 
BRANCH  18  20
ATOM     20  N   UNL     1       7.555  -3.192   2.129  0.00  0.00    -0.282 N 
ATOM     21  C   UNL     1       8.855  -3.163   1.627  0.00  0.00    +0.124 A 
ATOM     22  C   UNL     1       9.803  -4.056   2.117  0.00  0.00    +0.045 A 
ATOM     23  C   UNL     1      11.088  -4.020   1.606  0.00  0.00    +0.025 A 
ATOM     24  C   UNL     1      11.386  -3.082   0.626  0.00  0.00    +0.059 A 
ATOM     25  C   UNL     1      10.396  -2.222   0.189  0.00  0.00    +0.132 A 
ATOM     26  N   UNL     1       9.177  -2.284   0.692  0.00  0.00    -0.239 NA
ATOM     27 CL   UNL     1      12.985  -2.990  -0.044  0.00  0.00    -0.082 Cl
ATOM     28  H   UNL     1       7.334  -3.779   2.869  0.00  0.00    +0.155 HD
ENDBRANCH  18  20
ENDBRANCH  16  18
ENDBRANCH   5  16
TORSDOF 6
