REMARK  Name = ZINC08915354
REMARK  7 active torsions:
REMARK  status: ('A' for Active; 'I' for Inactive)
REMARK    1  A    between atoms: C_4  and  C_7
REMARK    2  A    between atoms: C_7  and  C_9
REMARK    3  A    between atoms: C_11  and  C_23
REMARK    4  A    between atoms: C_17  and  C_18
REMARK    5  A    between atoms: C_17  and  O_22
REMARK    6  A    between atoms: C_26  and  C_28
REMARK    7  A    between atoms: C_32  and  N_34
REMARK                            x       y       z     vdW  Elec       q    Type
REMARK                         _______ _______ _______ _____ _____    ______ ____
ROOT
ATOM      1  C   UNL     1      -1.087   2.325   0.582  0.00  0.00    +0.147 C 
ATOM      2  C   UNL     1      -0.719   3.773   0.241  0.00  0.00    +0.156 C 
ATOM      3  N   UNL     1       0.732   3.937   0.347  0.00  0.00    -0.289 N 
ATOM      4  C   UNL     1       1.568   2.912   0.123  0.00  0.00    +0.302 C 
ATOM      5  O   UNL     1       2.765   3.104   0.213  0.00  0.00    -0.253 OA
ATOM      6  N   UNL     1       1.136   1.683  -0.198  0.00  0.00    -0.264 N 
ATOM      7  C   UNL     1      -0.291   1.391  -0.340  0.00  0.00    +0.243 C 
ATOM      8  H   UNL     1       1.096   4.804   0.584  0.00  0.00    +0.151 HD
ATOM      9  H   UNL     1       1.782   0.974  -0.342  0.00  0.00    +0.153 HD
ENDROOT
BRANCH   2  10
ATOM     10  C   UNL     1      -1.160   4.087  -1.165  0.00  0.00    +0.127 A 
ATOM     11  C   UNL     1      -0.424   4.728  -2.094  0.00  0.00    +0.047 A 
ATOM     12  C   UNL     1      -1.211   4.807  -3.261  0.00  0.00    +0.050 A 
ATOM     13  C   UNL     1      -2.398   4.211  -2.974  0.00  0.00    +0.135 A 
ATOM     14  O   UNL     1      -2.353   3.779  -1.699  0.00  0.00    -0.458 OA
BRANCH  13  15
ATOM     15  C   UNL     1      -3.541   4.064  -3.899  0.00  0.00    +0.019 A 
ATOM     16  C   UNL     1      -3.457   4.560  -5.201  0.00  0.00    +0.012 A 
ATOM     17  C   UNL     1      -4.528   4.419  -6.060  0.00  0.00    +0.003 A 
ATOM     18  C   UNL     1      -5.683   3.788  -5.633  0.00  0.00    +0.033 A 
ATOM     19  C   UNL     1      -5.772   3.293  -4.344  0.00  0.00    +0.127 A 
ATOM     20  C   UNL     1      -4.707   3.423  -3.477  0.00  0.00    +0.044 A 
BRANCH  19  21
ATOM     21  N   UNL     1      -7.012   2.620  -3.896  0.00  0.00    +0.056 N 
ATOM     22  O   UNL     1      -7.951   2.501  -4.662  0.00  0.00    -0.126 OA
ATOM     23  O   UNL     1      -7.092   2.184  -2.762  0.00  0.00    -0.126 OA
ENDBRANCH  19  21
ENDBRANCH  13  15
ENDBRANCH   2  10
BRANCH   7  24
ATOM     24  C   UNL     1      -0.717   1.616  -1.793  0.00  0.00    +0.436 C 
ATOM     25  F   UNL     1      -0.417   0.477  -2.548  0.00  0.00    -0.166 F 
ATOM     26  F   UNL     1      -2.093   1.859  -1.843  0.00  0.00    -0.166 F 
ATOM     27  F   UNL     1      -0.029   2.716  -2.315  0.00  0.00    -0.166 F 
ENDBRANCH   7  24
BRANCH   1  28
ATOM     28  C   UNL     1      -0.740   2.040   2.021  0.00  0.00    +0.173 C 
ATOM     29  O   UNL     1       0.359   1.611   2.305  0.00  0.00    -0.292 OA
BRANCH  28  33
ATOM     30  C   UNL     1      -3.602   2.734   5.073  0.00  0.00    +0.000 A 
ATOM     31  C   UNL     1      -2.350   2.245   5.402  0.00  0.00    +0.001 A 
ATOM     32  C   UNL     1      -1.414   2.017   4.415  0.00  0.00    +0.011 A 
ATOM     33  C   UNL     1      -1.733   2.280   3.079  0.00  0.00    +0.018 A 
ATOM     34  C   UNL     1      -2.998   2.780   2.756  0.00  0.00    +0.011 A 
ATOM     35  C   UNL     1      -3.925   2.998   3.753  0.00  0.00    +0.001 A 
ENDBRANCH  28  33
ENDBRANCH   1  28
BRANCH   7  36
ATOM     36  O   UNL     1      -0.540   0.033   0.027  0.00  0.00    -0.364 OA
ATOM     37  H   UNL     1      -0.062  -0.614  -0.510  0.00  0.00    +0.212 HD
ENDBRANCH   7  36
TORSDOF 7
