REMARK  Name = ZINC01201287
REMARK  9 active torsions:
REMARK  status: ('A' for Active; 'I' for Inactive)
REMARK    1  A    between atoms: C_1  and  C_2
REMARK    2  A    between atoms: C_3  and  C_31
REMARK    3  A    between atoms: C_4  and  C_22
REMARK    4  A    between atoms: C_10  and  C_15
REMARK    5  A    between atoms: C_26  and  N_28
REMARK    6  A    between atoms: C_31  and  O_33
REMARK    7  A    between atoms: O_33  and  C_34
REMARK    8  A    between atoms: C_34  and  C_35
REMARK    9  A    between atoms: C_34  and  C_36
REMARK                            x       y       z     vdW  Elec       q    Type
REMARK                         _______ _______ _______ _____ _____    ______ ____
ROOT
ATOM      1  C   UNL     1       2.362  -0.233   0.185  0.00  0.00    +0.061 C 
ATOM      2  C   UNL     1       2.365   1.271   0.088  0.00  0.00    +0.016 C 
ATOM      3  C   UNL     1       1.216   1.927  -0.147  0.00  0.00    +0.065 C 
ATOM      4  C   UNL     1       1.183   3.423  -0.263  0.00  0.00    +0.092 C 
ATOM      5  C   UNL     1       2.424   4.038   0.338  0.00  0.00    +0.024 C 
ATOM      6  C   UNL     1       3.529   3.292   0.550  0.00  0.00    +0.016 C 
ATOM      7  N   UNL     1       3.537   1.958   0.240  0.00  0.00    -0.321 N 
ATOM      8  C   UNL     1       4.780   3.904   1.129  0.00  0.00    +0.059 C 
ATOM      9  C   UNL     1       4.404   5.052   2.068  0.00  0.00    +0.032 C 
ATOM     10  C   UNL     1       3.594   6.083   1.275  0.00  0.00    +0.088 C 
ATOM     11  C   UNL     1       2.397   5.404   0.667  0.00  0.00    +0.162 C 
ATOM     12  O   UNL     1       1.389   6.049   0.457  0.00  0.00    -0.292 OA
ATOM     13  H   UNL     1       4.499   1.440   0.113  0.00  0.00    +0.152 HD
ENDROOT
BRANCH   9  14
ATOM     14  C   UNL     1       5.655   5.697   2.606  0.00  0.00    -0.043 A 
ATOM     15  C   UNL     1       6.581   6.242   1.736  0.00  0.00    +0.005 A 
ATOM     16  C   UNL     1       7.726   6.838   2.230  0.00  0.00    +0.020 A 
ATOM     17  C   UNL     1       7.951   6.880   3.595  0.00  0.00    +0.041 A 
ATOM     18  C   UNL     1       7.026   6.329   4.465  0.00  0.00    +0.020 A 
ATOM     19  C   UNL     1       5.879   5.738   3.970  0.00  0.00    +0.005 A 
ATOM     20 CL   UNL     1       9.392   7.622   4.215  0.00  0.00    -0.084 Cl
ENDBRANCH   9  14
BRANCH   4  21
ATOM     21  C   UNL     1       1.092   3.804  -1.719  0.00  0.00    -0.033 A 
ATOM     22  C   UNL     1       2.086   3.417  -2.598  0.00  0.00    +0.005 A 
ATOM     23  C   UNL     1       2.002   3.767  -3.933  0.00  0.00    +0.003 A 
ATOM     24  C   UNL     1       0.923   4.502  -4.388  0.00  0.00    +0.033 A 
ATOM     25  C   UNL     1      -0.070   4.889  -3.509  0.00  0.00    +0.126 A 
ATOM     26  C   UNL     1       0.011   4.535  -2.175  0.00  0.00    +0.037 A 
BRANCH  25  27
ATOM     27  N   UNL     1      -1.225   5.676  -3.996  0.00  0.00    +0.056 N 
ATOM     28  O   UNL     1      -1.299   5.984  -5.173  0.00  0.00    -0.126 OA
ATOM     29  O   UNL     1      -2.100   6.017  -3.221  0.00  0.00    -0.126 OA
ENDBRANCH  25  27
ENDBRANCH   4  21
BRANCH   3  30
ATOM     30  C   UNL     1       0.016   1.193  -0.293  0.00  0.00    +0.338 C 
ATOM     31  O   UNL     1      -0.809   1.191   0.602  0.00  0.00    -0.245 OA
BRANCH  30  32
ATOM     32  O   UNL     1      -0.213   0.491  -1.423  0.00  0.00    -0.459 OA
BRANCH  32  33
ATOM     33  C   UNL     1      -1.443  -0.231  -1.500  0.00  0.00    +0.171 C 
ATOM     34  C   UNL     1      -2.522   0.663  -2.114  0.00  0.00    +0.052 C 
ATOM     35  C   UNL     1      -1.252  -1.472  -2.374  0.00  0.00    +0.052 C 
ENDBRANCH  32  33
ENDBRANCH  30  32
ENDBRANCH   3  30
TORSDOF 6
