REMARK  Name = ZINC13302265
REMARK  7 active torsions:
REMARK  status: ('A' for Active; 'I' for Inactive)
REMARK    1  A    between atoms: C_1  and  O_2
REMARK    2  A    between atoms: O_2  and  C_3
REMARK    3  A    between atoms: C_6  and  N_9
REMARK    4  A    between atoms: C_13  and  S_17
REMARK    5  A    between atoms: S_17  and  C_18
REMARK    6  A    between atoms: N_20  and  N_21
REMARK    7  A    between atoms: C_22  and  C_23
REMARK                            x       y       z     vdW  Elec       q    Type
REMARK                         _______ _______ _______ _____ _____    ______ ____
ROOT
ATOM      1  S   UNL     1      -6.969  -5.117  -1.555  0.00  0.00    -0.078 S 
ENDROOT
BRANCH   1   6
ATOM      2  N   UNL     1      -4.892  -2.582   0.034  0.00  0.00    -0.209 N 
ATOM      3  C   UNL     1      -6.055  -1.927   0.136  0.00  0.00    +0.228 C 
ATOM      4  O   UNL     1      -6.178  -0.725   0.231  0.00  0.00    -0.275 OA
ATOM      5  C   UNL     1      -7.192  -2.925   0.114  0.00  0.00    +0.120 C 
ATOM      6  C   UNL     1      -6.476  -4.285  -0.020  0.00  0.00    +0.149 C 
ATOM      7  C   UNL     1      -5.011  -3.912  -0.065  0.00  0.00    +0.240 C 
ATOM      8  O   UNL     1      -4.090  -4.693  -0.172  0.00  0.00    -0.274 OA
BRANCH   2  12
ATOM      9  C   UNL     1      -1.201  -0.637   0.009  0.00  0.00    +0.120 A 
ATOM     10  C   UNL     1      -1.652  -1.283  -1.133  0.00  0.00    +0.047 A 
ATOM     11  C   UNL     1      -2.874  -1.927  -1.125  0.00  0.00    +0.027 A 
ATOM     12  C   UNL     1      -3.650  -1.928   0.026  0.00  0.00    +0.044 A 
ATOM     13  C   UNL     1      -3.198  -1.282   1.168  0.00  0.00    +0.027 A 
ATOM     14  C   UNL     1      -1.974  -0.642   1.161  0.00  0.00    +0.047 A 
BRANCH   9  16
ATOM     15  C   UNL     1       0.745  -0.038  -1.219  0.00  0.00    +0.277 C 
ATOM     16  O   UNL     1       0.002  -0.003   0.001  0.00  0.00    -0.495 OA
ENDBRANCH   9  16
ENDBRANCH   2  12
ENDBRANCH   1   6
BRANCH   1  17
ATOM     17  C   UNL     1      -6.179  -6.690  -1.460  0.00  0.00    +0.146 C 
ATOM     18  N   UNL     1      -5.445  -6.989  -0.424  0.00  0.00    -0.380 N 
ATOM     19  N   UNL     1      -6.338  -7.603  -2.478  0.00  0.00    -0.217 N 
ATOM     20  H   UNL     1      -5.010  -7.854  -0.372  0.00  0.00    +0.158 HD
ATOM     21  H   UNL     1      -6.885  -7.380  -3.248  0.00  0.00    +0.176 HD
ATOM     22  H   UNL     1      -5.333  -6.346   0.294  0.00  0.00    +0.158 HD
BRANCH  19  23
ATOM     23  N   UNL     1      -5.710  -8.853  -2.403  0.00  0.00    -0.188 NA
ATOM     24  C   UNL     1      -5.859  -9.713  -3.362  0.00  0.00    +0.138 C 
BRANCH  24  25
ATOM     25  C   UNL     1      -5.198 -11.029  -3.283  0.00  0.00    -0.005 A 
ATOM     26  C   UNL     1      -4.415 -11.354  -2.173  0.00  0.00    +0.010 A 
ATOM     27  C   UNL     1      -3.800 -12.587  -2.105  0.00  0.00    +0.016 A 
ATOM     28  C   UNL     1      -3.956 -13.500  -3.134  0.00  0.00    +0.018 A 
ATOM     29  C   UNL     1      -4.731 -13.184  -4.237  0.00  0.00    +0.016 A 
ATOM     30  C   UNL     1      -5.357 -11.957  -4.314  0.00  0.00    +0.010 A 
ATOM     31 BR   UNL     1      -3.108 -15.187  -3.032  0.00  0.00    -0.050 Br
ENDBRANCH  24  25
ENDBRANCH  19  23
ENDBRANCH   1  17
TORSDOF 6
