REMARK  Name = ZINC20517930
REMARK  3 active torsions:
REMARK  status: ('A' for Active; 'I' for Inactive)
REMARK    1  A    between atoms: C_8  and  C_25
REMARK    2  A    between atoms: C_10  and  C_18
REMARK    3  A    between atoms: C_25  and  C_27
REMARK                            x       y       z     vdW  Elec       q    Type
REMARK                         _______ _______ _______ _____ _____    ______ ____
ROOT
ATOM      1  C   UNL     1       0.150   1.195  -0.132  0.00  0.00    +0.000 A 
ATOM      2  C   UNL     1       1.327   1.882   0.104  0.00  0.00    +0.002 A 
ATOM      3  C   UNL     1       1.300   3.230   0.392  0.00  0.00    +0.023 A 
ATOM      4  C   UNL     1       0.086   3.911   0.448  0.00  0.00    +0.039 A 
ATOM      5  C   UNL     1      -1.091   3.210   0.210  0.00  0.00    +0.004 A 
ATOM      6  C   UNL     1      -1.060   1.865  -0.083  0.00  0.00    +0.008 A 
ATOM      7  C   UNL     1      -2.204   4.213   0.342  0.00  0.00    +0.137 C 
ATOM      8  C   UNL     1      -3.182   3.813   1.454  0.00  0.00    +0.103 C 
ATOM      9  C   UNL     1      -4.294   3.048   0.701  0.00  0.00    +0.050 C 
ATOM     10  C   UNL     1      -4.245   3.608  -0.730  0.00  0.00    +0.077 C 
ATOM     11  N   UNL     1      -2.981   4.324  -0.898  0.00  0.00    -0.271 NA
ATOM     12  C   UNL     1      -3.085   5.748  -1.301  0.00  0.00    +0.155 C 
ATOM     13  S   UNL     1      -4.777   5.799  -2.040  0.00  0.00    -0.144 S 
ATOM     14  C   UNL     1      -5.505   4.468  -0.984  0.00  0.00    +0.090 C 
ATOM     15  C   UNL     1      -1.516   5.512   0.674  0.00  0.00    +0.243 C 
ATOM     16  O   UNL     1      -2.049   6.584   0.867  0.00  0.00    -0.273 OA
ATOM     17  N   UNL     1      -0.196   5.252   0.716  0.00  0.00    -0.283 N 
ATOM     18  H   UNL     1       0.623   5.955   0.928  0.00  0.00    +0.155 HD
ENDROOT
BRANCH   9  19
ATOM     19  C   UNL     1      -5.637   3.322   1.327  0.00  0.00    -0.041 A 
ATOM     20  C   UNL     1      -5.873   4.530   1.957  0.00  0.00    +0.004 A 
ATOM     21  C   UNL     1      -7.106   4.783   2.528  0.00  0.00    +0.002 A 
ATOM     22  C   UNL     1      -8.101   3.825   2.478  0.00  0.00    +0.020 A 
ATOM     23  C   UNL     1      -7.864   2.614   1.852  0.00  0.00    +0.041 A 
ATOM     24  C   UNL     1      -6.631   2.363   1.277  0.00  0.00    +0.024 A 
ATOM     25 CL   UNL     1      -9.113   1.410   1.790  0.00  0.00    -0.084 Cl
ENDBRANCH   9  19
BRANCH   8  26
ATOM     26  C   UNL     1      -2.506   2.913   2.457  0.00  0.00    +0.170 C 
ATOM     27  O   UNL     1      -2.539   1.710   2.311  0.00  0.00    -0.292 OA
BRANCH  26  28
ATOM     28  C   UNL     1      -1.806   3.494   3.610  0.00  0.00    +0.021 A 
ATOM     29  C   UNL     1      -1.765   4.883   3.780  0.00  0.00    +0.015 A 
ATOM     30  C   UNL     1      -1.109   5.425   4.862  0.00  0.00    +0.050 A 
ATOM     31  C   UNL     1      -0.485   4.598   5.788  0.00  0.00    +0.166 A 
ATOM     32  C   UNL     1      -0.521   3.212   5.625  0.00  0.00    +0.167 A 
ATOM     33  C   UNL     1      -1.181   2.660   4.545  0.00  0.00    +0.061 A 
ATOM     34  O   UNL     1       0.158   2.634   6.659  0.00  0.00    -0.453 OA
ATOM     35  C   UNL     1       0.258   3.655   7.670  0.00  0.00    +0.466 C 
ATOM     36  O   UNL     1       0.216   4.884   6.921  0.00  0.00    -0.453 OA
ENDBRANCH  26  28
ENDBRANCH   8  26
TORSDOF 3
