REMARK  Name = ZINC63778239
REMARK  7 active torsions:
REMARK  status: ('A' for Active; 'I' for Inactive)
REMARK    1  A    between atoms: C_1  and  O_2
REMARK    2  A    between atoms: O_2  and  C_3
REMARK    3  A    between atoms: C_8  and  N_9
REMARK    4  A    between atoms: C_10  and  C_12
REMARK    5  A    between atoms: C_12  and  N_13
REMARK    6  A    between atoms: C_16  and  C_21
REMARK    7  A    between atoms: C_21  and  C_22
REMARK                            x       y       z     vdW  Elec       q    Type
REMARK                         _______ _______ _______ _____ _____    ______ ____
ROOT
ATOM      1  N   UNL     1      -0.544  -6.367   0.452  0.00  0.00    -0.216 N 
ATOM      2  C   UNL     1      -1.435  -7.022  -0.320  0.00  0.00    +0.244 C 
ATOM      3  O   UNL     1      -2.434  -6.566  -0.832  0.00  0.00    -0.273 OA
ATOM      4  C   UNL     1      -0.925  -8.446  -0.415  0.00  0.00    +0.165 C 
ATOM      5  N   UNL     1       0.308  -8.428   0.390  0.00  0.00    -0.287 N 
ATOM      6  C   UNL     1       0.449  -7.171   0.850  0.00  0.00    +0.310 C 
ATOM      7  O   UNL     1       1.373  -6.807   1.550  0.00  0.00    -0.252 OA
ATOM      8  H   UNL     1       0.905  -9.175   0.554  0.00  0.00    +0.151 HD
ENDROOT
BRANCH   1   9
ATOM      9  C   UNL     1      -0.648  -4.950   0.807  0.00  0.00    +0.214 C 
BRANCH   9  11
ATOM     10  N   UNL     1       0.095  -2.777  -0.112  0.00  0.00    -0.281 N 
ATOM     11  C   UNL     1       0.060  -4.119  -0.232  0.00  0.00    +0.235 C 
ATOM     12  O   UNL     1       0.599  -4.658  -1.175  0.00  0.00    -0.274 OA
ATOM     13  H   UNL     1      -0.265  -2.351   0.682  0.00  0.00    +0.155 HD
BRANCH  10  19
ATOM     14  C   UNL     1       1.159  -0.731  -0.849  0.00  0.00    +0.141 A 
ATOM     15  C   UNL     1       1.714   0.034  -1.862  0.00  0.00    +0.049 A 
ATOM     16  C   UNL     1       1.757  -0.456  -3.154  0.00  0.00    +0.024 A 
ATOM     17  C   UNL     1       1.249  -1.711  -3.440  0.00  0.00    +0.043 A 
ATOM     18  C   UNL     1       0.694  -2.480  -2.433  0.00  0.00    +0.047 A 
ATOM     19  C   UNL     1       0.652  -1.997  -1.134  0.00  0.00    +0.077 A 
ATOM     20 CL   UNL     1       1.307  -2.320  -5.064  0.00  0.00    -0.083 Cl
BRANCH  14  22
ATOM     21  C   UNL     1       1.655   1.055   0.641  0.00  0.00    +0.277 C 
ATOM     22  O   UNL     1       1.116  -0.250   0.422  0.00  0.00    -0.493 OA
ENDBRANCH  14  22
ENDBRANCH  10  19
ENDBRANCH   9  11
ENDBRANCH   1   9
BRANCH   4  23
ATOM     23  C   UNL     1      -0.618  -8.812  -1.868  0.00  0.00    +0.065 C 
BRANCH  23  24
ATOM     24  C   UNL     1      -0.233 -10.267  -1.949  0.00  0.00    -0.039 C 
ATOM     25  C   UNL     1      -1.044 -11.308  -2.243  0.00  0.00    -0.001 A 
ATOM     26  C   UNL     1      -2.474 -11.396  -2.561  0.00  0.00    +0.010 A 
ATOM     27  C   UNL     1      -3.017 -12.608  -2.815  0.00  0.00    +0.001 A 
ATOM     28  C   UNL     1      -2.250 -13.780  -2.782  0.00  0.00    +0.002 A 
ATOM     29  C   UNL     1      -0.930 -13.781  -2.497  0.00  0.00    +0.026 A 
ATOM     30  C   UNL     1      -0.256 -12.561  -2.215  0.00  0.00    +0.043 A 
ATOM     31  N   UNL     1       0.994 -12.304  -1.915  0.00  0.00    -0.380 N 
ATOM     32  C   UNL     1       1.142 -10.857  -1.726  0.00  0.00    +0.144 C 
ATOM     33  H   UNL     1       1.704 -12.960  -1.837  0.00  0.00    +0.160 HD
ENDBRANCH  23  24
ENDBRANCH   4  23
TORSDOF 6
