REMARK  Name = ZINC12495730
REMARK  7 active torsions:
REMARK  status: ('A' for Active; 'I' for Inactive)
REMARK    1  A    between atoms: C_1  and  C_2
REMARK    2  A    between atoms: C_2  and  O_3
REMARK    3  A    between atoms: O_3  and  C_4
REMARK    4  A    between atoms: C_4  and  C_6
REMARK    5  A    between atoms: C_6  and  C_26
REMARK    6  A    between atoms: C_11  and  C_13
REMARK    7  A    between atoms: N_22  and  C_25
REMARK                            x       y       z     vdW  Elec       q    Type
REMARK                         _______ _______ _______ _____ _____    ______ ____
ROOT
ATOM      1  C   UNL     1       0.002  -0.004   0.002  0.00  0.00    +0.070 C 
ATOM      2  C   UNL     1       0.121   1.459  -0.005  0.00  0.00    +0.090 C 
ATOM      3  C   UNL     1       1.679   1.702  -0.076  0.00  0.00    +0.077 C 
ATOM      4  C   UNL     1       1.950   0.729  -1.230  0.00  0.00    -0.023 C 
ATOM      5  C   UNL     1       1.595   3.175  -0.371  0.00  0.00    +0.224 C 
ATOM      6  O   UNL     1       2.345   3.823  -1.070  0.00  0.00    -0.275 OA
ATOM      7  N   UNL     1       0.503   3.633   0.308  0.00  0.00    -0.245 N 
ATOM      8  C   UNL     1      -0.333   2.623   0.715  0.00  0.00    +0.225 C 
ATOM      9  O   UNL     1      -1.249   2.694   1.506  0.00  0.00    -0.275 OA
ATOM     10  C   UNL     1       0.249   5.051   0.573  0.00  0.00    +0.141 C 
ATOM     11  N   UNL     1       1.140  -0.462  -0.848  0.00  0.00    +0.398 N 
ATOM     12  H   UNL     1       0.779  -0.922  -1.692  0.00  0.00    -0.083 HD
ATOM     13  H   UNL     1       1.722  -1.123  -0.320  0.00  0.00    -0.083 HD
ENDROOT
BRANCH   4  14
ATOM     14  C   UNL     1       3.416   0.385  -1.306  0.00  0.00    -0.025 A 
ATOM     15  C   UNL     1       3.892  -0.752  -0.682  0.00  0.00    +0.005 A 
ATOM     16  C   UNL     1       5.235  -1.071  -0.755  0.00  0.00    +0.000 A 
ATOM     17  C   UNL     1       6.106  -0.245  -1.443  0.00  0.00    +0.003 A 
ATOM     18  C   UNL     1       5.633   0.895  -2.063  0.00  0.00    +0.038 A 
ATOM     19  C   UNL     1       4.286   1.212  -1.995  0.00  0.00    +0.125 A 
ATOM     20  F   UNL     1       3.823   2.328  -2.600  0.00  0.00    -0.205 F 
ENDBRANCH   4  14
BRANCH   1  21
ATOM     21  C   UNL     1       0.139  -0.536   1.405  0.00  0.00    -0.047 A 
ATOM     22  C   UNL     1       1.162  -1.414   1.715  0.00  0.00    +0.003 A 
ATOM     23  C   UNL     1       1.290  -1.899   3.003  0.00  0.00    +0.000 A 
ATOM     24  C   UNL     1       0.391  -1.513   3.979  0.00  0.00    +0.000 A 
ATOM     25  C   UNL     1      -0.635  -0.640   3.668  0.00  0.00    +0.000 A 
ATOM     26  C   UNL     1      -0.761  -0.152   2.381  0.00  0.00    +0.003 A 
ENDBRANCH   1  21
BRANCH   1  27
ATOM     27  C   UNL     1      -1.314  -0.428  -0.597  0.00  0.00    +0.301 C 
ATOM     28  O   UNL     1      -2.256   0.328  -0.583  0.00  0.00    -0.252 OA
BRANCH  27  29
ATOM     29  O   UNL     1      -1.440  -1.647  -1.146  0.00  0.00    -0.466 OA
BRANCH  29  31
ATOM     30  C   UNL     1      -2.687  -3.404  -2.280  0.00  0.00    +0.048 C 
ATOM     31  C   UNL     1      -2.736  -1.987  -1.704  0.00  0.00    +0.228 C 
ENDBRANCH  29  31
ENDBRANCH  27  29
ENDBRANCH   1  27
TORSDOF 5
