REMARK  Name = ZINC36483285
REMARK  8 active torsions:
REMARK  status: ('A' for Active; 'I' for Inactive)
REMARK    1  A    between atoms: C_4  and  O_37
REMARK    2  A    between atoms: C_5  and  C_7
REMARK    3  A    between atoms: N_9  and  C_10
REMARK    4  A    between atoms: N_9  and  C_17
REMARK    5  A    between atoms: C_17  and  C_19
REMARK    6  A    between atoms: C_17  and  C_28
REMARK    7  A    between atoms: C_22  and  N_25
REMARK    8  A    between atoms: N_30  and  C_31
REMARK                            x       y       z     vdW  Elec       q    Type
REMARK                         _______ _______ _______ _____ _____    ______ ____
ROOT
ATOM      1  C   UNL     1      -0.314  -3.809   0.372  0.00  0.00    +0.197 C 
ENDROOT
BRANCH   1   2
ATOM      2  C   UNL     1      -1.583  -3.922  -0.433  0.00  0.00    -0.018 A 
ATOM      3  C   UNL     1      -2.253  -2.780  -0.830  0.00  0.00    +0.008 A 
ATOM      4  C   UNL     1      -3.417  -2.885  -1.569  0.00  0.00    +0.033 A 
ATOM      5  C   UNL     1      -3.910  -4.130  -1.910  0.00  0.00    +0.126 A 
ATOM      6  C   UNL     1      -3.239  -5.272  -1.513  0.00  0.00    +0.033 A 
ATOM      7  C   UNL     1      -2.073  -5.167  -0.779  0.00  0.00    +0.008 A 
BRANCH   5   8
ATOM      8  N   UNL     1      -5.157  -4.242  -2.700  0.00  0.00    +0.056 N 
ATOM      9  O   UNL     1      -5.744  -3.243  -3.046  0.00  0.00    -0.126 OA
ATOM     10  O   UNL     1      -5.588  -5.331  -2.999  0.00  0.00    -0.126 OA
ENDBRANCH   5   8
ENDBRANCH   1   2
BRANCH   1  11
ATOM     11  C   UNL     1      -0.495  -2.773   1.452  0.00  0.00    +0.239 C 
ATOM     12  O   UNL     1       0.226  -1.798   1.484  0.00  0.00    -0.273 OA
ATOM     13  N   UNL     1      -1.458  -2.930   2.382  0.00  0.00    -0.311 N 
ATOM     14  H   UNL     1      -2.034  -3.710   2.357  0.00  0.00    +0.149 HD
BRANCH  13  15
ATOM     15  C   UNL     1      -1.633  -1.924   3.432  0.00  0.00    +0.073 C 
ATOM     16  C   UNL     1      -0.674  -2.218   4.587  0.00  0.00    +0.022 C 
ATOM     17  C   UNL     1      -0.858  -1.167   5.683  0.00  0.00    +0.002 C 
ATOM     18  C   UNL     1      -2.300  -1.209   6.194  0.00  0.00    +0.000 C 
ATOM     19  C   UNL     1      -3.259  -0.915   5.039  0.00  0.00    +0.002 C 
ATOM     20  C   UNL     1      -3.075  -1.966   3.943  0.00  0.00    +0.022 C 
ENDBRANCH  13  15
ENDBRANCH   1  11
BRANCH   1  23
ATOM     21  C   UNL     1       1.991  -4.007  -0.393  0.00  0.00    +0.255 C 
ATOM     22  O   UNL     1       2.841  -3.831  -1.244  0.00  0.00    -0.269 OA
ATOM     23  N   UNL     1       0.788  -3.410  -0.507  0.00  0.00    -0.251 N 
BRANCH  23  24
ATOM     24  C   UNL     1       0.592  -2.410  -1.464  0.00  0.00    +0.039 A 
ATOM     25  C   UNL     1       0.721  -1.073  -1.110  0.00  0.00    +0.023 A 
ATOM     26  C   UNL     1       0.527  -0.087  -2.057  0.00  0.00    +0.003 A 
ATOM     27  C   UNL     1       0.205  -0.429  -3.358  0.00  0.00    +0.020 A 
ATOM     28  C   UNL     1       0.076  -1.760  -3.715  0.00  0.00    +0.043 A 
ATOM     29  C   UNL     1       0.275  -2.751  -2.772  0.00  0.00    +0.043 A 
ATOM     30 CL   UNL     1      -0.328  -2.185  -5.348  0.00  0.00    -0.083 Cl
ENDBRANCH  23  24
BRANCH  21  35
ATOM     31  C   UNL     1       1.715  -5.662   2.965  0.00  0.00    +0.001 A 
ATOM     32  C   UNL     1       2.814  -6.505   2.945  0.00  0.00    +0.004 A 
ATOM     33  C   UNL     1       3.647  -6.540   1.844  0.00  0.00    +0.046 A 
ATOM     34  C   UNL     1       3.388  -5.729   0.750  0.00  0.00    +0.129 A 
ATOM     35  C   UNL     1       2.277  -4.875   0.766  0.00  0.00    +0.079 A 
ATOM     36  C   UNL     1       1.442  -4.850   1.885  0.00  0.00    +0.017 A 
BRANCH  34  37
ATOM     37  O   UNL     1       4.207  -5.762  -0.332  0.00  0.00    -0.506 OA
ATOM     38  H   UNL     1       3.948  -6.410  -1.001  0.00  0.00    +0.292 HD
ENDBRANCH  34  37
ENDBRANCH  21  35
ENDBRANCH   1  23
TORSDOF 8
