REMARK  Name = ZINC35957410
REMARK  6 active torsions:
REMARK  status: ('A' for Active; 'I' for Inactive)
REMARK    1  A    between atoms: C_1  and  C_2
REMARK    2  A    between atoms: C_2  and  C_4
REMARK    3  A    between atoms: C_2  and  N_10
REMARK    4  A    between atoms: C_11  and  C_13
REMARK    5  A    between atoms: N_28  and  C_29
REMARK    6  A    between atoms: C_29  and  C_30
REMARK                            x       y       z     vdW  Elec       q    Type
REMARK                         _______ _______ _______ _____ _____    ______ ____
ROOT
ATOM      1  C   UNL     1       1.194  -1.834   3.747  0.00  0.00    +0.092 C 
ATOM      2  C   UNL     1       1.760  -3.256   3.742  0.00  0.00    +0.016 C 
ATOM      3  C   UNL     1       2.404  -3.556   5.098  0.00  0.00    +0.020 C 
ATOM      4  C   UNL     1       1.339  -3.464   6.195  0.00  0.00    +0.108 C 
ATOM      5  N   UNL     1       0.688  -2.149   6.114  0.00  0.00    -0.302 N 
ATOM      6  C   UNL     1       0.116  -1.722   4.830  0.00  0.00    +0.120 C 
ATOM      7  C   UNL     1       0.616  -1.331   7.221  0.00  0.00    +0.177 A 
ATOM      8  N   UNL     1       1.554  -0.503   7.607  0.00  0.00    -0.327 N 
ATOM      9  C   UNL     1       1.155   0.145   8.733  0.00  0.00    +0.065 A 
ATOM     10  C   UNL     1       1.752   1.112   9.546  0.00  0.00    +0.028 A 
ATOM     11  C   UNL     1       1.079   1.588  10.650  0.00  0.00    +0.002 A 
ATOM     12  C   UNL     1      -0.187   1.114  10.960  0.00  0.00    +0.002 A 
ATOM     13  C   UNL     1      -0.789   0.159  10.168  0.00  0.00    +0.028 A 
ATOM     14  C   UNL     1      -0.127  -0.331   9.052  0.00  0.00    +0.068 A 
ATOM     15  N   UNL     1      -0.446  -1.261   8.076  0.00  0.00    -0.313 N 
ATOM     16  H   UNL     1       2.404  -0.372   7.158  0.00  0.00    +0.169 HD
ENDROOT
BRANCH   1  18
ATOM     17  N   UNL     1       1.357  -1.567   1.294  0.00  0.00    -0.308 N 
ATOM     18  C   UNL     1       0.590  -1.528   2.401  0.00  0.00    +0.218 C 
ATOM     19  O   UNL     1      -0.586  -1.246   2.315  0.00  0.00    -0.275 OA
ATOM     20  H   UNL     1       2.298  -1.792   1.363  0.00  0.00    +0.149 HD
BRANCH  17  22
ATOM     21  C   UNL     1       0.773   0.243  -0.244  0.00  0.00    +0.033 C 
ATOM     22  C   UNL     1       0.769  -1.270  -0.015  0.00  0.00    +0.100 C 
BRANCH  22  23
ATOM     23  C   UNL     1       1.578  -1.943  -1.094  0.00  0.00    -0.027 A 
ATOM     24  C   UNL     1       2.958  -1.973  -1.006  0.00  0.00    +0.005 A 
ATOM     25  C   UNL     1       3.700  -2.591  -1.996  0.00  0.00    +0.000 A 
ATOM     26  C   UNL     1       3.062  -3.178  -3.072  0.00  0.00    +0.000 A 
ATOM     27  C   UNL     1       1.683  -3.148  -3.160  0.00  0.00    +0.000 A 
ATOM     28  C   UNL     1       0.941  -2.535  -2.168  0.00  0.00    +0.005 A 
ENDBRANCH  22  23
ENDBRANCH  17  22
ENDBRANCH   1  18
BRANCH  15  29
ATOM     29  C   UNL     1      -1.691  -2.027   7.981  0.00  0.00    +0.128 C 
BRANCH  29  30
ATOM     30  C   UNL     1      -1.500  -3.395   8.639  0.00  0.00    +0.009 C 
ATOM     31  C   UNL     1      -1.252  -3.209  10.138  0.00  0.00    +0.005 C 
ATOM     32  C   UNL     1      -1.061  -4.577  10.796  0.00  0.00    +0.000 C 
ATOM     33  C   UNL     1      -2.318  -5.424  10.588  0.00  0.00    +0.000 C 
ATOM     34  C   UNL     1      -2.565  -5.609   9.089  0.00  0.00    +0.000 C 
ATOM     35  C   UNL     1      -2.757  -4.242   8.431  0.00  0.00    +0.005 C 
ENDBRANCH  29  30
ENDBRANCH  15  29
TORSDOF 5
