REMARK  Name = ZINC36571202
REMARK  14 active torsions:
REMARK  status: ('A' for Active; 'I' for Inactive)
REMARK    1  A    between atoms: C_1  and  C_2
REMARK    2  A    between atoms: C_2  and  C_3
REMARK    3  A    between atoms: C_3  and  N_4
REMARK    4  A    between atoms: N_4  and  C_5
REMARK    5  A    between atoms: C_5  and  C_7
REMARK    6  A    between atoms: C_5  and  C_14
REMARK    7  A    between atoms: C_11  and  O_13
REMARK    8  A    between atoms: N_16  and  C_17
REMARK    9  A    between atoms: C_17  and  C_18
REMARK   10  A    between atoms: C_17  and  C_19
REMARK   11  A    between atoms: C_17  and  C_20
REMARK   12  A    between atoms: C_21  and  C_23
REMARK   13  A    between atoms: C_27  and  O_30
REMARK   14  A    between atoms: C_28  and  O_29
REMARK                            x       y       z     vdW  Elec       q    Type
REMARK                         _______ _______ _______ _____ _____    ______ ____
ROOT
ATOM      1  C   UNL     1      -0.469  -2.798  -2.033  0.00  0.00    +0.193 C 
ENDROOT
BRANCH   1   2
ATOM      2  C   UNL     1      -1.730  -2.236  -1.429  0.00  0.00    -0.015 A 
ATOM      3  C   UNL     1      -1.895  -0.868  -1.321  0.00  0.00    +0.006 A 
ATOM      4  C   UNL     1      -3.051  -0.350  -0.768  0.00  0.00    +0.004 A 
ATOM      5  C   UNL     1      -4.044  -1.199  -0.319  0.00  0.00    +0.045 A 
ATOM      6  C   UNL     1      -3.881  -2.572  -0.426  0.00  0.00    +0.117 A 
ATOM      7  C   UNL     1      -2.723  -3.090  -0.988  0.00  0.00    +0.051 A 
BRANCH   6   8
ATOM      8  O   UNL     1      -4.857  -3.409   0.015  0.00  0.00    -0.507 OA
ATOM      9  H   UNL     1      -5.515  -3.634  -0.657  0.00  0.00    +0.292 HD
ENDBRANCH   6   8
ENDBRANCH   1   2
BRANCH   1  10
ATOM     10  C   UNL     1      -0.507  -2.621  -3.529  0.00  0.00    +0.238 C 
ATOM     11  O   UNL     1       0.398  -2.045  -4.095  0.00  0.00    -0.273 OA
ATOM     12  N   UNL     1      -1.547  -3.103  -4.239  0.00  0.00    -0.309 N 
ATOM     13  H   UNL     1      -2.271  -3.563  -3.786  0.00  0.00    +0.149 HD
BRANCH  12  14
ATOM     14  C   UNL     1      -1.584  -2.931  -5.693  0.00  0.00    +0.026 C 
ATOM     15  C   UNL     1      -0.364  -3.610  -6.318  0.00  0.00    +0.031 C 
ATOM     16  C   UNL     1      -2.861  -3.564  -6.249  0.00  0.00    +0.031 C 
ATOM     17  C   UNL     1      -1.566  -1.439  -6.031  0.00  0.00    +0.031 C 
ENDBRANCH  12  14
ENDBRANCH   1  10
BRANCH   1  18
ATOM     18  N   UNL     1       0.692  -2.090  -1.487  0.00  0.00    -0.282 N 
ATOM     19  C   UNL     1       1.050  -2.275  -0.201  0.00  0.00    +0.251 C 
ATOM     20  O   UNL     1       2.062  -1.756   0.228  0.00  0.00    -0.270 OA
BRANCH  19  21
ATOM     21  C   UNL     1       0.214  -3.107   0.685  0.00  0.00    +0.082 A 
ATOM     22  C   UNL     1      -0.884  -3.800   0.168  0.00  0.00    +0.017 A 
ATOM     23  C   UNL     1      -1.662  -4.576   0.999  0.00  0.00    +0.005 A 
ATOM     24  C   UNL     1      -1.362  -4.675   2.348  0.00  0.00    +0.049 A 
ATOM     25  C   UNL     1      -0.278  -3.994   2.875  0.00  0.00    +0.159 A 
ATOM     26  C   UNL     1       0.520  -3.210   2.047  0.00  0.00    +0.171 A 
BRANCH  26  27
ATOM     27  O   UNL     1       1.588  -2.546   2.559  0.00  0.00    -0.503 OA
ATOM     28  H   UNL     1       1.382  -1.656   2.876  0.00  0.00    +0.292 HD
ENDBRANCH  26  27
BRANCH  25  29
ATOM     29  O   UNL     1       0.009  -4.096   4.200  0.00  0.00    -0.503 OA
ATOM     30  H   UNL     1       0.611  -4.821   4.418  0.00  0.00    +0.292 HD
ENDBRANCH  25  29
ENDBRANCH  19  21
BRANCH  18  31
ATOM     31  C   UNL     1       1.462  -1.181  -2.339  0.00  0.00    +0.109 C 
BRANCH  31  33
ATOM     32  C   UNL     1       3.226  -1.051  -4.104  0.00  0.00    +0.005 C 
ATOM     33  C   UNL     1       2.506  -1.978  -3.123  0.00  0.00    +0.016 C 
ENDBRANCH  31  33
ENDBRANCH  18  31
ENDBRANCH   1  18
TORSDOF 10
