REMARK  Name = ZINC39887467
REMARK  7 active torsions:
REMARK  status: ('A' for Active; 'I' for Inactive)
REMARK    1  A    between atoms: C_1  and  C_2
REMARK    2  A    between atoms: C_5  and  C_35
REMARK    3  A    between atoms: C_6  and  N_8
REMARK    4  A    between atoms: C_9  and  C_19
REMARK    5  A    between atoms: C_14  and  C_17
REMARK    6  A    between atoms: C_22  and  C_24
REMARK    7  A    between atoms: C_26  and  C_31
REMARK                            x       y       z     vdW  Elec       q    Type
REMARK                         _______ _______ _______ _____ _____    ______ ____
ROOT
ATOM      1  N   UNL     1       0.052  -2.797   2.392  0.00  0.00    -0.267 N 
ATOM      2  C   UNL     1       1.322  -3.153   3.032  0.00  0.00    +0.234 C 
ATOM      3  N   UNL     1       1.258  -2.846   4.462  0.00  0.00    -0.286 N 
ATOM      4  C   UNL     1       0.087  -2.913   5.127  0.00  0.00    +0.258 C 
ATOM      5  O   UNL     1       0.050  -2.698   6.325  0.00  0.00    -0.269 OA
ATOM      6  C   UNL     1      -1.140  -3.247   4.400  0.00  0.00    +0.142 C 
ATOM      7  C   UNL     1      -1.123  -3.167   3.000  0.00  0.00    +0.103 C 
ATOM      8  S   UNL     1      -2.562  -3.534   2.053  0.00  0.00    -0.033 SA
ATOM      9  H   UNL     1       2.066  -2.592   4.936  0.00  0.00    +0.151 HD
ENDROOT
BRANCH   1  15
ATOM     10  C   UNL     1      -0.018   1.503   0.010  0.00  0.00    +0.044 C 
ATOM     11  C   UNL     1       0.002  -0.004   0.002  0.00  0.00    -0.049 A 
ATOM     12  C   UNL     1       0.006  -0.688  -1.200  0.00  0.00    +0.004 A 
ATOM     13  C   UNL     1       0.025  -2.071  -1.212  0.00  0.00    +0.005 A 
ATOM     14  C   UNL     1       0.040  -2.773  -0.023  0.00  0.00    -0.029 A 
ATOM     15  C   UNL     1       0.036  -2.089   1.186  0.00  0.00    +0.040 A 
ATOM     16  C   UNL     1       0.023  -0.700   1.194  0.00  0.00    +0.027 A 
ATOM     17  C   UNL     1       0.059  -4.280  -0.037  0.00  0.00    +0.045 C 
ENDBRANCH   1  15
BRANCH   2  18
ATOM     18  C   UNL     1       1.581  -4.626   2.848  0.00  0.00    +0.144 A 
ATOM     19  C   UNL     1       2.260  -5.417   3.701  0.00  0.00    +0.049 A 
ATOM     20  C   UNL     1       2.265  -6.713   3.147  0.00  0.00    +0.050 A 
ATOM     21  C   UNL     1       1.583  -6.640   1.974  0.00  0.00    +0.137 A 
ATOM     22  O   UNL     1       1.169  -5.370   1.808  0.00  0.00    -0.456 OA
BRANCH  21  23
ATOM     23  C   UNL     1       1.333  -7.762   1.045  0.00  0.00    +0.036 A 
ATOM     24  C   UNL     1       0.043  -8.007   0.572  0.00  0.00    +0.025 A 
ATOM     25  C   UNL     1      -0.183  -9.056  -0.295  0.00  0.00    +0.056 A 
ATOM     26  C   UNL     1       0.866  -9.865  -0.697  0.00  0.00    +0.014 A 
ATOM     27  C   UNL     1       2.147  -9.629  -0.232  0.00  0.00    +0.021 A 
ATOM     28  C   UNL     1       2.389  -8.579   0.632  0.00  0.00    +0.052 A 
ATOM     29 CL   UNL     1       3.998  -8.278   1.208  0.00  0.00    -0.083 Cl
BRANCH  25  30
ATOM     30  C   UNL     1      -1.575  -9.322  -0.807  0.00  0.00    +0.417 C 
ATOM     31  F   UNL     1      -1.782  -8.604  -1.990  0.00  0.00    -0.166 F 
ATOM     32  F   UNL     1      -1.727 -10.690  -1.058  0.00  0.00    -0.166 F 
ATOM     33  F   UNL     1      -2.510  -8.918   0.153  0.00  0.00    -0.166 F 
ENDBRANCH  25  30
ENDBRANCH  21  23
ENDBRANCH   2  18
BRANCH   6  34
ATOM     34  C   UNL     1      -2.325  -3.639   5.100  0.00  0.00    +0.107 C 
ATOM     35  N   UNL     1      -3.266  -3.950   5.656  0.00  0.00    -0.191 NA
ENDBRANCH   6  34
TORSDOF 5
