REMARK  Name = ZINC01133363
REMARK  11 active torsions:
REMARK  status: ('A' for Active; 'I' for Inactive)
REMARK    1  A    between atoms: C_1  and  C_2
REMARK    2  A    between atoms: C_2  and  C_3
REMARK    3  A    between atoms: C_3  and  C_5
REMARK    4  A    between atoms: C_3  and  C_6
REMARK    5  A    between atoms: C_13  and  C_15
REMARK    6  A    between atoms: C_18  and  N_21
REMARK    7  A    between atoms: N_21  and  C_22
REMARK    8  A    between atoms: C_22  and  N_24
REMARK    9  A    between atoms: C_25  and  C_27
REMARK   10  A    between atoms: C_27  and  C_28
REMARK   11  A    between atoms: C_27  and  C_29
REMARK                            x       y       z     vdW  Elec       q    Type
REMARK                         _______ _______ _______ _____ _____    ______ ____
ROOT
ATOM      1  C   UNL     1      -3.774   0.588   8.830  0.00  0.00    +0.037 A 
ATOM      2  C   UNL     1      -3.684  -0.724   9.299  0.00  0.00    +0.015 A 
ATOM      3  C   UNL     1      -4.359  -1.093  10.441  0.00  0.00    +0.024 A 
ATOM      4  C   UNL     1      -5.138  -0.164  11.122  0.00  0.00    +0.033 A 
ATOM      5  C   UNL     1      -5.234   1.143  10.655  0.00  0.00    +0.024 A 
ATOM      6  C   UNL     1      -4.557   1.520   9.516  0.00  0.00    +0.015 A 
ENDROOT
BRANCH   1  14
ATOM      7  C   UNL     1      -0.602   1.545   3.861  0.00  0.00    -0.042 A 
ATOM      8  C   UNL     1      -1.098   2.835   3.982  0.00  0.00    +0.007 A 
ATOM      9  C   UNL     1      -1.941   3.167   5.023  0.00  0.00    +0.049 A 
ATOM     10  C   UNL     1      -2.288   2.209   5.963  0.00  0.00    +0.156 A 
ATOM     11  C   UNL     1      -1.785   0.903   5.847  0.00  0.00    +0.110 A 
ATOM     12  C   UNL     1      -0.937   0.581   4.785  0.00  0.00    +0.035 A 
ATOM     13  N   UNL     1      -2.289   0.197   6.892  0.00  0.00    -0.209 NA
ATOM     14  C   UNL     1      -3.047   0.989   7.609  0.00  0.00    +0.228 A 
ATOM     15  O   UNL     1      -3.067   2.222   7.067  0.00  0.00    -0.435 OA
BRANCH   7  16
ATOM     16  C   UNL     1       0.313   1.199   2.715  0.00  0.00    +0.016 C 
ATOM     17  C   UNL     1       1.563   2.080   2.777  0.00  0.00    +0.012 C 
BRANCH  16  19
ATOM     18  C   UNL     1       0.467   0.970   0.232  0.00  0.00    +0.004 C 
ATOM     19  C   UNL     1      -0.415   1.438   1.391  0.00  0.00    +0.004 C 
ENDBRANCH  16  19
ENDBRANCH   7  16
ENDBRANCH   1  14
BRANCH   4  20
ATOM     20  N   UNL     1      -5.825  -0.542  12.276  0.00  0.00    -0.297 N 
ATOM     21  H   UNL     1      -5.392  -1.108  12.935  0.00  0.00    +0.154 HD
BRANCH  20  22
ATOM     22  C   UNL     1      -7.090  -0.122  12.476  0.00  0.00    +0.141 C 
ATOM     23  S   UNL     1      -7.904   0.756  11.252  0.00  0.00    -0.018 S 
BRANCH  22  24
ATOM     24  N   UNL     1      -7.715  -0.394  13.639  0.00  0.00    -0.267 N 
ATOM     25  C   UNL     1      -8.980   0.026  13.839  0.00  0.00    +0.221 C 
ATOM     26  O   UNL     1      -9.556   0.648  12.972  0.00  0.00    -0.275 OA
ATOM     27  H   UNL     1      -7.254  -0.891  14.332  0.00  0.00    +0.157 HD
BRANCH  25  28
ATOM     28  C   UNL     1      -9.678  -0.277  15.139  0.00  0.00    +0.069 C 
ATOM     29  C   UNL     1      -8.894   0.346  16.297  0.00  0.00    +0.017 C 
ATOM     30  C   UNL     1     -11.091   0.307  15.108  0.00  0.00    +0.017 C 
ENDBRANCH  25  28
ENDBRANCH  22  24
ENDBRANCH  20  22
ENDBRANCH   4  20
TORSDOF 7
