REMARK  Name = ZINC09319517
REMARK  5 active torsions:
REMARK  status: ('A' for Active; 'I' for Inactive)
REMARK    1  A    between atoms: C_1  and  C_2
REMARK    2  A    between atoms: C_8  and  C_9
REMARK    3  A    between atoms: C_8  and  N_54
REMARK    4  A    between atoms: C_10  and  O_32
REMARK    5  A    between atoms: C_19  and  C_20
REMARK                            x       y       z     vdW  Elec       q    Type
REMARK                         _______ _______ _______ _____ _____    ______ ____
ROOT
ATOM      1  C   UNL     1      -2.225   5.428   1.403  0.00  0.00    +0.020 A 
ATOM      2  C   UNL     1      -1.319   5.785   2.389  0.00  0.00    +0.122 A 
ATOM      3  C   UNL     1      -1.764   6.182   3.647  0.00  0.00    +0.046 A 
ATOM      4  C   UNL     1      -3.101   6.224   3.926  0.00  0.00    +0.016 A 
ATOM      5  C   UNL     1      -4.026   5.867   2.943  0.00  0.00    +0.026 A 
ATOM      6  C   UNL     1      -3.585   5.471   1.669  0.00  0.00    +0.144 A 
ATOM      7  O   UNL     1      -4.483   5.131   0.719  0.00  0.00    -0.422 OA
ATOM      8  C   UNL     1      -5.806   5.163   0.948  0.00  0.00    +0.338 A 
ATOM      9  O   UNL     1      -6.569   4.846   0.052  0.00  0.00    -0.245 OA
ATOM     10  C   UNL     1      -6.334   5.552   2.188  0.00  0.00    +0.101 A 
ATOM     11  C   UNL     1      -5.474   5.904   3.216  0.00  0.00    +0.006 A 
ENDROOT
BRANCH  11  12
ATOM     12  C   UNL     1      -5.991   6.317   4.534  0.00  0.00    +0.068 A 
ATOM     13  C   UNL     1      -6.671   5.420   5.336  0.00  0.00    +0.027 A 
ATOM     14  C   UNL     1      -7.151   5.860   6.596  0.00  0.00    +0.020 A 
ATOM     15  C   UNL     1      -7.844   4.974   7.435  0.00  0.00    +0.031 A 
ATOM     16  C   UNL     1      -8.305   5.409   8.656  0.00  0.00    +0.042 A 
ATOM     17  C   UNL     1      -8.087   6.720   9.060  0.00  0.00    +0.023 A 
ATOM     18  C   UNL     1      -7.408   7.602   8.248  0.00  0.00    +0.048 A 
ATOM     19  C   UNL     1      -6.932   7.186   7.010  0.00  0.00    +0.139 A 
ATOM     20  O   UNL     1      -6.266   8.056   6.219  0.00  0.00    -0.422 OA
ATOM     21  C   UNL     1      -5.787   7.687   5.020  0.00  0.00    +0.345 A 
ATOM     22  O   UNL     1      -5.188   8.492   4.332  0.00  0.00    -0.245 OA
ATOM     23 CL   UNL     1      -9.163   4.315   9.695  0.00  0.00    -0.084 Cl
ENDBRANCH  11  12
BRANCH   2  24
ATOM     24  O   UNL     1       0.012   5.748   2.126  0.00  0.00    -0.506 OA
ATOM     25  H   UNL     1       0.367   6.576   1.774  0.00  0.00    +0.292 HD
ENDBRANCH   2  24
BRANCH   1  26
ATOM     26  C   UNL     1      -1.734   5.000   0.044  0.00  0.00    -0.035 C 
BRANCH  26  33
ATOM     27  C   UNL     1      -1.586   3.634  -2.411  0.00  0.00    -0.013 C 
ATOM     28  C   UNL     1      -0.826   3.122  -1.185  0.00  0.00    -0.071 C 
ATOM     29  C   UNL     1      -0.756   1.594  -1.230  0.00  0.00    -0.016 C 
ATOM     30  C   UNL     1      -0.013   1.086   0.008  0.00  0.00    -0.003 C 
ATOM     31  C   UNL     1      -0.732   1.581   1.266  0.00  0.00    -0.019 C 
ATOM     32  C   UNL     1      -0.804   3.109   1.238  0.00  0.00    -0.078 C 
ATOM     33  N   UNL     1      -1.552   3.533   0.035  0.00  0.00    +0.384 N 
ATOM     34  H   UNL     1      -2.475   3.083   0.041  0.00  0.00    -0.081 HD
ENDBRANCH  26  33
ENDBRANCH   1  26
TORSDOF 4
