REMARK  Name = ZINC15079604
REMARK  10 active torsions:
REMARK  status: ('A' for Active; 'I' for Inactive)
REMARK    1  A    between atoms: C_1  and  C_2
REMARK    2  A    between atoms: C_2  and  O_3
REMARK    3  A    between atoms: O_3  and  C_4
REMARK    4  A    between atoms: C_4  and  O_31
REMARK    5  A    between atoms: C_5  and  C_29
REMARK    6  A    between atoms: C_6  and  C_27
REMARK    7  A    between atoms: N_14  and  C_17
REMARK    8  A    between atoms: C_17  and  C_18
REMARK    9  A    between atoms: O_31  and  C_32
REMARK   10  A    between atoms: C_32  and  C_33
REMARK                            x       y       z     vdW  Elec       q    Type
REMARK                         _______ _______ _______ _____ _____    ______ ____
ROOT
ATOM      1  C   UNL     1       0.724  -1.713  -1.128  0.00  0.00    +0.275 C 
ATOM      2  C   UNL     1       1.863  -2.020  -2.117  0.00  0.00    +0.177 C 
ATOM      3  C   UNL     1       3.000  -2.512  -1.199  0.00  0.00    +0.156 C 
ATOM      4  C   UNL     1       2.375  -3.452  -2.221  0.00  0.00    +0.128 C 
ATOM      5  C   UNL     1       1.531  -4.628  -1.808  0.00  0.00    -0.007 A 
ATOM      6  C   UNL     1       0.627  -4.830  -0.789  0.00  0.00    +0.006 A 
ATOM      7  C   UNL     1      -0.009  -6.052  -0.660  0.00  0.00    +0.000 A 
ATOM      8  C   UNL     1       0.267  -7.069  -1.556  0.00  0.00    +0.002 A 
ATOM      9  C   UNL     1       1.173  -6.871  -2.578  0.00  0.00    +0.024 A 
ATOM     10  C   UNL     1       1.817  -5.643  -2.714  0.00  0.00    +0.041 A 
ATOM     11  N   UNL     1       2.759  -5.206  -3.648  0.00  0.00    -0.266 N 
ATOM     12  C   UNL     1       3.139  -3.933  -3.429  0.00  0.00    +0.235 C 
ATOM     13  O   UNL     1       3.940  -3.296  -4.079  0.00  0.00    -0.274 OA
ATOM     14  C   UNL     1       2.437  -2.456   0.198  0.00  0.00    +0.093 C 
ATOM     15  N   UNL     1       1.230  -2.028   0.207  0.00  0.00    -0.324 N 
ATOM     16  N   UNL     1       3.132  -2.818   1.322  0.00  0.00    -0.347 N 
ATOM     17  H   UNL     1       4.046  -3.135   1.246  0.00  0.00    +0.143 HD
ATOM     18  H   UNL     1       2.710  -2.758   2.193  0.00  0.00    +0.143 HD
ATOM     19  H   UNL     1       0.705  -1.925   1.016  0.00  0.00    +0.166 HD
ENDROOT
BRANCH   3  20
ATOM     20  C   UNL     1       4.386  -2.058  -1.399  0.00  0.00    +0.080 C 
ATOM     21  N   UNL     1       5.456  -1.707  -1.553  0.00  0.00    -0.195 NA
ENDBRANCH   3  20
BRANCH   2  22
ATOM     22  C   UNL     1       2.073  -1.086  -3.235  0.00  0.00    +0.080 C 
ATOM     23  N   UNL     1       2.236  -0.365  -4.097  0.00  0.00    -0.196 NA
ENDBRANCH   2  22
BRANCH   1  24
ATOM     24  O   UNL     1       0.371  -0.330  -1.203  0.00  0.00    -0.331 OA
BRANCH  24  26
ATOM     25  C   UNL     1      -0.993   1.536  -0.497  0.00  0.00    +0.034 C 
ATOM     26  C   UNL     1      -0.651   0.060  -0.284  0.00  0.00    +0.162 C 
ENDBRANCH  24  26
ENDBRANCH   1  24
BRANCH  11  27
ATOM     27  C   UNL     1       3.274  -6.036  -4.739  0.00  0.00    +0.148 C 
BRANCH  27  28
ATOM     28  C   UNL     1       2.403  -5.863  -5.957  0.00  0.00    -0.030 A 
ATOM     29  C   UNL     1       1.310  -6.688  -6.147  0.00  0.00    +0.005 A 
ATOM     30  C   UNL     1       0.511  -6.529  -7.264  0.00  0.00    +0.000 A 
ATOM     31  C   UNL     1       0.805  -5.545  -8.190  0.00  0.00    +0.000 A 
ATOM     32  C   UNL     1       1.897  -4.720  -7.999  0.00  0.00    +0.000 A 
ATOM     33  C   UNL     1       2.694  -4.876  -6.880  0.00  0.00    +0.005 A 
ENDBRANCH  27  28
ENDBRANCH  11  27
BRANCH   1  34
ATOM     34  O   UNL     1      -0.415  -2.524  -1.425  0.00  0.00    -0.331 OA
BRANCH  34  35
ATOM     35  C   UNL     1      -1.027  -2.230  -2.682  0.00  0.00    +0.162 C 
ATOM     36  C   UNL     1      -2.301  -3.062  -2.836  0.00  0.00    +0.034 C 
ENDBRANCH  34  35
ENDBRANCH   1  34
TORSDOF 8
