REMARK  Name = ZINC25443488
REMARK  9 active torsions:
REMARK  status: ('A' for Active; 'I' for Inactive)
REMARK    1  A    between atoms: C_1  and  C_2
REMARK    2  A    between atoms: C_7  and  C_8
REMARK    3  A    between atoms: N_10  and  C_11
REMARK    4  A    between atoms: C_11  and  C_12
REMARK    5  A    between atoms: C_12  and  N_19
REMARK    6  A    between atoms: N_19  and  C_20
REMARK    7  A    between atoms: N_19  and  C_21
REMARK    8  A    between atoms: C_23  and  C_27
REMARK    9  A    between atoms: C_23  and  C_28
REMARK                            x       y       z     vdW  Elec       q    Type
REMARK                         _______ _______ _______ _____ _____    ______ ____
ROOT
ATOM      1  C   UNL     1       0.937   1.210  -0.593  0.00  0.00    +0.261 C 
ATOM      2  O   UNL     1       0.223   2.026  -0.041  0.00  0.00    -0.269 OA
ATOM      3  N   UNL     1       0.615  -0.098  -0.560  0.00  0.00    -0.311 N 
ATOM      4  H   UNL     1       1.258  -0.835  -1.064  0.00  0.00    +0.149 HD
ENDROOT
BRANCH   1  11
ATOM      5  C   UNL     1       1.920   4.168  -0.832  0.00  0.00    +0.047 C 
ATOM      6  C   UNL     1       2.581   2.943  -1.409  0.00  0.00    -0.010 A 
ATOM      7  C   UNL     1       3.761   2.906  -2.162  0.00  0.00    +0.042 A 
ATOM      8  C   UNL     1       4.009   1.574  -2.495  0.00  0.00    +0.028 A 
ATOM      9  N   UNL     1       3.036   0.832  -1.966  0.00  0.00    -0.354 N 
ATOM     10  H   UNL     1       3.043  -0.260  -2.102  0.00  0.00    +0.166 HD
ATOM     11  C   UNL     1       2.145   1.652  -1.302  0.00  0.00    +0.106 A 
ATOM     12  C   UNL     1       5.201   1.144  -3.312  0.00  0.00    +0.060 C 
ATOM     13  C   UNL     1       5.735   2.345  -4.098  0.00  0.00    -0.023 C 
ATOM     14  C   UNL     1       5.994   3.531  -3.164  0.00  0.00    +0.086 C 
ATOM     15  C   UNL     1       4.662   3.988  -2.587  0.00  0.00    +0.166 C 
ATOM     16  O   UNL     1       4.365   5.160  -2.485  0.00  0.00    -0.292 OA
ATOM     17  C   UNL     1       4.708   2.751  -5.156  0.00  0.00    +0.011 C 
ATOM     18  C   UNL     1       7.042   1.953  -4.789  0.00  0.00    +0.011 C 
ENDBRANCH   1  11
BRANCH   3  19
ATOM     19  C   UNL     1      -0.590  -0.538   0.146  0.00  0.00    +0.092 C 
BRANCH  19  20
ATOM     20  C   UNL     1      -0.781  -2.042  -0.060  0.00  0.00    -0.050 C 
ATOM     21  C   UNL     1      -2.247  -2.349  -0.213  0.00  0.00    -0.010 C 
ATOM     22  C   UNL     1      -3.142  -1.302   0.480  0.00  0.00    -0.001 C 
ATOM     23  C   UNL     1      -2.602  -0.865   1.855  0.00  0.00    -0.000 C 
ATOM     24  C   UNL     1      -2.076  -2.022   2.661  0.00  0.00    -0.000 C 
ATOM     25  C   UNL     1      -0.557  -2.136   2.420  0.00  0.00    -0.001 C 
ATOM     26  C   UNL     1      -0.242  -2.806   1.167  0.00  0.00    -0.010 C 
BRANCH  20  27
ATOM     27  N   UNL     1      -0.059  -2.471  -1.264  0.00  0.00    +0.381 N 
ATOM     28  C   UNL     1      -0.137  -3.928  -1.435  0.00  0.00    -0.096 C 
ATOM     29  C   UNL     1      -0.561  -1.774  -2.456  0.00  0.00    -0.096 C 
ATOM     30  H   UNL     1       1.000  -2.202  -1.137  0.00  0.00    -0.082 HD
ENDBRANCH  20  27
ENDBRANCH  19  20
ENDBRANCH   3  19
TORSDOF 4
