REMARK  Name = ZINC17045125
REMARK  8 active torsions:
REMARK  status: ('A' for Active; 'I' for Inactive)
REMARK    1  A    between atoms: C_1  and  C_2
REMARK    2  A    between atoms: C_2  and  O_3
REMARK    3  A    between atoms: O_3  and  C_4
REMARK    4  A    between atoms: C_4  and  C_6
REMARK    5  A    between atoms: C_10  and  N_11
REMARK    6  A    between atoms: C_12  and  C_14
REMARK    7  A    between atoms: C_14  and  S_15
REMARK    8  A    between atoms: S_15  and  C_16
REMARK                            x       y       z     vdW  Elec       q    Type
REMARK                         _______ _______ _______ _____ _____    ______ ____
ROOT
ATOM      1  N   UNL     1      -0.604  -2.455  -3.925  0.00  0.00    -0.279 N 
ATOM      2  C   UNL     1      -1.119  -2.783  -5.126  0.00  0.00    +0.228 C 
ATOM      3  O   UNL     1      -0.397  -3.225  -5.995  0.00  0.00    -0.275 OA
ATOM      4  H   UNL     1      -1.181  -2.102  -3.230  0.00  0.00    +0.155 HD
ENDROOT
BRANCH   1   9
ATOM      5  C   UNL     1       1.449  -2.344  -2.516  0.00  0.00    +0.091 A 
ATOM      6  C   UNL     1       2.876  -2.619  -2.515  0.00  0.00    -0.021 A 
ATOM      7  C   UNL     1       3.343  -3.117  -3.680  0.00  0.00    -0.004 A 
ATOM      8  S   UNL     1       1.922  -3.212  -4.730  0.00  0.00    -0.077 S 
ATOM      9  C   UNL     1       0.750  -2.624  -3.681  0.00  0.00    +0.086 A 
ATOM     10  C   UNL     1       4.757  -3.498  -3.993  0.00  0.00    +0.043 C 
ATOM     11  C   UNL     1       5.669  -2.887  -2.920  0.00  0.00    +0.005 C 
ATOM     12  C   UNL     1       5.082  -3.191  -1.538  0.00  0.00    +0.005 C 
ATOM     13  C   UNL     1       3.799  -2.383  -1.329  0.00  0.00    +0.037 C 
BRANCH   5  14
ATOM     14  C   UNL     1       0.776  -1.800  -1.335  0.00  0.00    +0.342 C 
ATOM     15  O   UNL     1       0.312  -2.552  -0.499  0.00  0.00    -0.245 OA
BRANCH  14  16
ATOM     16  O   UNL     1       0.671  -0.465  -1.174  0.00  0.00    -0.461 OA
BRANCH  16  18
ATOM     17  C   UNL     1      -0.019   1.526   0.010  0.00  0.00    +0.048 C 
ATOM     18  C   UNL     1       0.002  -0.004   0.002  0.00  0.00    +0.229 C 
ENDBRANCH  16  18
ENDBRANCH  14  16
ENDBRANCH   5  14
ENDBRANCH   1   9
BRANCH   2  19
ATOM     19  C   UNL     1      -2.591  -2.599  -5.391  0.00  0.00    +0.173 C 
BRANCH  19  20
ATOM     20  S   UNL     1      -2.971  -3.126  -7.085  0.00  0.00    -0.078 S 
BRANCH  20  21
ATOM     21  C   UNL     1      -4.705  -2.853  -7.236  0.00  0.00    +0.171 A 
ATOM     22  N   UNL     1      -5.372  -2.361  -6.213  0.00  0.00    -0.185 NA
ATOM     23  C   UNL     1      -6.687  -2.130  -6.260  0.00  0.00    +0.282 A 
ATOM     24  C   UNL     1      -7.434  -2.435  -7.503  0.00  0.00    +0.075 A 
ATOM     25  C   UNL     1      -8.861  -2.266  -7.777  0.00  0.00    -0.023 A 
ATOM     26  C   UNL     1      -9.294  -2.624  -9.004  0.00  0.00    -0.004 A 
ATOM     27  S   UNL     1      -7.846  -3.197  -9.850  0.00  0.00    -0.075 S 
ATOM     28  C   UNL     1      -6.667  -2.953  -8.548  0.00  0.00    +0.092 A 
ATOM     29  N   UNL     1      -5.327  -3.152  -8.413  0.00  0.00    -0.328 N 
ATOM     30  C   UNL     1     -10.695  -2.551  -9.529  0.00  0.00    +0.043 C 
ATOM     31  C   UNL     1     -11.648  -2.354  -8.341  0.00  0.00    +0.005 C 
ATOM     32  C   UNL     1     -11.098  -1.235  -7.451  0.00  0.00    +0.005 C 
ATOM     33  C   UNL     1      -9.832  -1.712  -6.739  0.00  0.00    +0.037 C 
ATOM     34  O   UNL     1      -7.268  -1.673  -5.288  0.00  0.00    -0.265 OA
ATOM     35  H   UNL     1      -4.813  -3.510  -9.154  0.00  0.00    +0.168 HD
ENDBRANCH  20  21
ENDBRANCH  19  20
ENDBRANCH   2  19
TORSDOF 7
