REMARK  Name = ZINC36024454
REMARK  9 active torsions:
REMARK  status: ('A' for Active; 'I' for Inactive)
REMARK    1  A    between atoms: C_1  and  C_2
REMARK    2  A    between atoms: C_2  and  C_3
REMARK    3  A    between atoms: C_3  and  C_5
REMARK    4  A    between atoms: C_3  and  C_6
REMARK    5  A    between atoms: N_10  and  C_31
REMARK    6  A    between atoms: N_15  and  S_18
REMARK    7  A    between atoms: S_18  and  C_21
REMARK    8  A    between atoms: C_25  and  C_27
REMARK    9  A    between atoms: C_31  and  C_32
REMARK                            x       y       z     vdW  Elec       q    Type
REMARK                         _______ _______ _______ _____ _____    ______ ____
ROOT
ATOM      1  C   UNL     1      -2.351  -2.388  -0.088  0.00  0.00    +0.022 C 
ATOM      2  C   UNL     1      -1.383  -2.673  -1.216  0.00  0.00    +0.201 C 
ATOM      3  O   UNL     1      -0.280  -2.186  -1.343  0.00  0.00    -0.277 OA
ATOM      4  N   UNL     1      -1.955  -3.561  -2.056  0.00  0.00    -0.309 N 
ATOM      5  C   UNL     1      -3.287  -3.917  -1.559  0.00  0.00    +0.006 C 
ATOM      6  N   UNL     1      -3.663  -2.873  -0.580  0.00  0.00    +0.401 N 
ATOM      7  C   UNL     1      -4.293  -3.935  -2.708  0.00  0.00    +0.023 C 
ATOM      8  C   UNL     1      -3.874  -4.994  -3.733  0.00  0.00    +0.109 C 
ATOM      9  N   UNL     1      -3.709  -6.281  -3.043  0.00  0.00    -0.177 NA
ATOM     10  C   UNL     1      -2.818  -6.349  -1.877  0.00  0.00    +0.109 C 
ATOM     11  C   UNL     1      -3.246  -5.278  -0.867  0.00  0.00    +0.023 C 
ATOM     12  H   UNL     1      -4.203  -3.268   0.175  0.00  0.00    -0.082 HD
ATOM     13  H   UNL     1      -4.172  -2.128  -1.032  0.00  0.00    -0.082 HD
ENDROOT
BRANCH   9  14
ATOM     14  S   UNL     1      -4.513  -7.629  -3.570  0.00  0.00    +0.061 S 
ATOM     15  O   UNL     1      -4.613  -8.504  -2.454  0.00  0.00    -0.153 OA
ATOM     16  O   UNL     1      -5.653  -7.170  -4.282  0.00  0.00    -0.153 OA
BRANCH  14  17
ATOM     17  C   UNL     1      -3.473  -8.430  -4.746  0.00  0.00    +0.106 A 
ATOM     18  C   UNL     1      -3.561  -8.098  -6.085  0.00  0.00    +0.028 A 
ATOM     19  C   UNL     1      -2.746  -8.726  -7.007  0.00  0.00    +0.002 A 
ATOM     20  C   UNL     1      -1.841  -9.686  -6.590  0.00  0.00    +0.012 A 
ATOM     21  C   UNL     1      -1.753 -10.016  -5.251  0.00  0.00    +0.057 A 
ATOM     22  C   UNL     1      -2.566  -9.385  -4.328  0.00  0.00    +0.041 A 
BRANCH  21  23
ATOM     23  C   UNL     1      -0.767 -11.062  -4.797  0.00  0.00    +0.417 C 
ATOM     24  F   UNL     1      -0.062 -11.550  -5.902  0.00  0.00    -0.166 F 
ATOM     25  F   UNL     1       0.129 -10.493  -3.886  0.00  0.00    -0.166 F 
ATOM     26  F   UNL     1      -1.454 -12.114  -4.181  0.00  0.00    -0.166 F 
ENDBRANCH  21  23
ENDBRANCH  14  17
ENDBRANCH   9  14
BRANCH   1  27
ATOM     27  C   UNL     1      -2.411  -0.885   0.196  0.00  0.00    -0.020 C 
ATOM     28  C   UNL     1      -3.448  -0.613   1.287  0.00  0.00    +0.006 C 
BRANCH  27  30
ATOM     29  C   UNL     1      -1.063   1.121   0.828  0.00  0.00    +0.004 C 
ATOM     30  C   UNL     1      -1.038  -0.400   0.664  0.00  0.00    -0.001 C 
ENDBRANCH  27  30
ENDBRANCH   1  27
BRANCH   4  31
ATOM     31  C   UNL     1      -1.339  -4.088  -3.276  0.00  0.00    +0.141 C 
BRANCH  31  32
ATOM     32  C   UNL     1      -1.483  -3.079  -4.387  0.00  0.00    -0.030 A 
ATOM     33  C   UNL     1      -2.733  -2.800  -4.909  0.00  0.00    +0.008 A 
ATOM     34  C   UNL     1      -2.866  -1.875  -5.927  0.00  0.00    +0.038 A 
ATOM     35  C   UNL     1      -1.748  -1.228  -6.424  0.00  0.00    +0.123 A 
ATOM     36  C   UNL     1      -0.497  -1.508  -5.901  0.00  0.00    +0.038 A 
ATOM     37  C   UNL     1      -0.367  -2.429  -4.879  0.00  0.00    +0.008 A 
ATOM     38  F   UNL     1      -1.877  -0.324  -7.420  0.00  0.00    -0.205 F 
ENDBRANCH  31  32
ENDBRANCH   4  31
TORSDOF 7
