REMARK  Name = ZINC05413616
REMARK  9 active torsions:
REMARK  status: ('A' for Active; 'I' for Inactive)
REMARK    1  A    between atoms: C_1  and  C_2
REMARK    2  A    between atoms: C_2  and  O_3
REMARK    3  A    between atoms: O_3  and  C_4
REMARK    4  A    between atoms: C_4  and  C_6
REMARK    5  A    between atoms: C_10  and  N_11
REMARK    6  A    between atoms: C_12  and  C_14
REMARK    7  A    between atoms: C_14  and  N_15
REMARK    8  A    between atoms: N_15  and  C_16
REMARK    9  A    between atoms: C_24  and  C_28
REMARK                            x       y       z     vdW  Elec       q    Type
REMARK                         _______ _______ _______ _____ _____    ______ ____
ROOT
ATOM      1  C   UNL     1      -1.256  -0.753   0.010  0.00  0.00    +0.091 A 
ATOM      2  C   UNL     1      -1.892  -1.146   1.257  0.00  0.00    -0.021 A 
ATOM      3  C   UNL     1      -3.047  -1.832   1.122  0.00  0.00    -0.004 A 
ATOM      4  S   UNL     1      -3.297  -1.960  -0.626  0.00  0.00    -0.077 S 
ATOM      5  C   UNL     1      -1.889  -1.111  -1.173  0.00  0.00    +0.086 A 
ATOM      6  C   UNL     1      -3.917  -2.361   2.220  0.00  0.00    +0.046 C 
ATOM      7  C   UNL     1      -3.500  -1.686   3.535  0.00  0.00    -0.009 C 
ATOM      8  C   UNL     1      -1.975  -1.754   3.662  0.00  0.00    +0.008 C 
ATOM      9  C   UNL     1      -1.325  -0.826   2.634  0.00  0.00    +0.037 C 
ATOM     10  C   UNL     1      -4.149  -2.414   4.714  0.00  0.00    +0.008 C 
ENDROOT
BRANCH   5  11
ATOM     11  N   UNL     1      -1.491  -0.852  -2.475  0.00  0.00    -0.278 N 
ATOM     12  C   UNL     1      -2.243  -1.282  -3.508  0.00  0.00    +0.235 C 
ATOM     13  O   UNL     1      -3.268  -1.896  -3.298  0.00  0.00    -0.274 OA
ATOM     14  H   UNL     1      -0.671  -0.362  -2.643  0.00  0.00    +0.155 HD
BRANCH  12  15
ATOM     15  C   UNL     1      -1.810  -1.002  -4.924  0.00  0.00    +0.198 C 
BRANCH  15  16
ATOM     16  N   UNL     1      -2.788  -1.568  -5.855  0.00  0.00    -0.335 N 
ATOM     17  H   UNL     1      -3.567  -2.037  -5.515  0.00  0.00    +0.147 HD
BRANCH  16  18
ATOM     18  C   UNL     1      -2.600  -1.434  -7.233  0.00  0.00    +0.028 A 
ATOM     19  C   UNL     1      -1.489  -0.758  -7.721  0.00  0.00    +0.024 A 
ATOM     20  C   UNL     1      -1.303  -0.632  -9.084  0.00  0.00    +0.022 A 
ATOM     21  C   UNL     1      -2.228  -1.167  -9.963  0.00  0.00    +0.041 A 
ATOM     22  C   UNL     1      -3.339  -1.836  -9.479  0.00  0.00    +0.022 A 
ATOM     23  C   UNL     1      -3.527  -1.971  -8.118  0.00  0.00    +0.024 A 
ATOM     24 CL   UNL     1      -1.994  -1.000 -11.675  0.00  0.00    -0.084 Cl
ENDBRANCH  16  18
ENDBRANCH  15  16
ENDBRANCH  12  15
ENDBRANCH   5  11
BRANCH   1  25
ATOM     25  C   UNL     1       0.002  -0.004   0.002  0.00  0.00    +0.342 C 
ATOM     26  O   UNL     1       1.064  -0.598  -0.011  0.00  0.00    -0.245 OA
BRANCH  25  27
ATOM     27  O   UNL     1      -0.016   1.345   0.009  0.00  0.00    -0.461 OA
BRANCH  27  29
ATOM     28  C   UNL     1       1.047   3.535   0.011  0.00  0.00    +0.048 C 
ATOM     29  C   UNL     1       1.268   2.021   0.001  0.00  0.00    +0.229 C 
ENDBRANCH  27  29
ENDBRANCH  25  27
ENDBRANCH   1  25
TORSDOF 7
