REMARK  Name = ZINC40950174
REMARK  11 active torsions:
REMARK  status: ('A' for Active; 'I' for Inactive)
REMARK    1  A    between atoms: C_1  and  C_2
REMARK    2  A    between atoms: C_2  and  C_3
REMARK    3  A    between atoms: C_2  and  C_4
REMARK    4  A    between atoms: C_4  and  C_5
REMARK    5  A    between atoms: C_5  and  N_6
REMARK    6  A    between atoms: C_9  and  O_36
REMARK    7  A    between atoms: C_11  and  O_34
REMARK    8  A    between atoms: C_18  and  N_22
REMARK    9  A    between atoms: C_19  and  N_21
REMARK   10  A    between atoms: O_34  and  C_35
REMARK   11  A    between atoms: O_36  and  C_37
REMARK                            x       y       z     vdW  Elec       q    Type
REMARK                         _______ _______ _______ _____ _____    ______ ____
ROOT
ATOM      1  N   UNL     1       2.847  -0.554  -2.417  0.00  0.00    -0.339 N 
ATOM      2  C   UNL     1       3.522  -1.757  -2.373  0.00  0.00    +0.060 A 
ATOM      3  C   UNL     1       3.792  -2.364  -1.153  0.00  0.00    +0.072 A 
ATOM      4  C   UNL     1       4.465  -3.574  -1.113  0.00  0.00    +0.126 A 
ATOM      5  C   UNL     1       4.877  -4.197  -2.287  0.00  0.00    +0.092 A 
ATOM      6  C   UNL     1       4.619  -3.610  -3.511  0.00  0.00    +0.136 A 
ATOM      7  C   UNL     1       3.944  -2.382  -3.561  0.00  0.00    +0.088 A 
ATOM      8  C   UNL     1       3.668  -1.722  -4.847  0.00  0.00    +0.201 A 
ATOM      9  O   UNL     1       3.800  -2.311  -5.906  0.00  0.00    -0.286 OA
ATOM     10  C   UNL     1       3.222  -0.318  -4.797  0.00  0.00    +0.048 A 
ATOM     11  C   UNL     1       2.821   0.221  -3.563  0.00  0.00    +0.055 A 
ATOM     12  C   UNL     1       2.401   1.544  -3.503  0.00  0.00    +0.051 A 
ATOM     13  C   UNL     1       2.372   2.315  -4.652  0.00  0.00    +0.053 A 
ATOM     14  C   UNL     1       2.764   1.771  -5.883  0.00  0.00    +0.047 A 
ATOM     15  C   UNL     1       3.195   0.466  -5.953  0.00  0.00    +0.038 A 
ENDROOT
BRANCH  13  16
ATOM     16  N   UNL     1       1.950   3.642  -4.586  0.00  0.00    -0.325 N 
ATOM     17  C   UNL     1       0.531   3.985  -4.761  0.00  0.00    +0.124 C 
ATOM     18  C   UNL     1       0.067   4.786  -3.539  0.00  0.00    +0.125 C 
ATOM     19  N   UNL     1       1.031   5.867  -3.292  0.00  0.00    -0.314 N 
ATOM     20  C   UNL     1       2.450   5.524  -3.116  0.00  0.00    +0.125 C 
ATOM     21  C   UNL     1       2.914   4.722  -4.333  0.00  0.00    +0.124 C 
ATOM     22  C   UNL     1       0.610   7.190  -3.225  0.00  0.00    +0.099 A 
ATOM     23  C   UNL     1      -0.750   7.483  -3.256  0.00  0.00    +0.042 A 
ATOM     24  C   UNL     1      -1.155   8.803  -3.189  0.00  0.00    +0.005 A 
ATOM     25  C   UNL     1      -0.183   9.791  -3.093  0.00  0.00    +0.018 A 
ATOM     26  C   UNL     1       1.148   9.428  -3.067  0.00  0.00    +0.084 A 
ATOM     27  N   UNL     1       1.506   8.160  -3.127  0.00  0.00    -0.350 N 
ATOM     28  H   UNL     1       2.449   7.932  -3.103  0.00  0.00    +0.166 HD
ENDBRANCH  13  16
BRANCH  14  29
ATOM     29  N   UNL     1       2.728   2.561  -7.040  0.00  0.00    -0.357 N 
ATOM     30  H   UNL     1       2.432   3.483  -6.989  0.00  0.00    +0.142 HD
ATOM     31  H   UNL     1       3.000   2.185  -7.892  0.00  0.00    +0.142 HD
ENDBRANCH  14  29
BRANCH   6  32
ATOM     32  O   UNL     1       5.018  -4.217  -4.657  0.00  0.00    -0.494 OA
ATOM     33  C   UNL     1       5.700  -5.466  -4.527  0.00  0.00    +0.277 C 
ENDBRANCH   6  32
BRANCH   4  34
ATOM     34  O   UNL     1       4.726  -4.158   0.084  0.00  0.00    -0.495 OA
ATOM     35  C   UNL     1       5.424  -5.405   0.059  0.00  0.00    +0.277 C 
ENDBRANCH   4  34
BRANCH   1  36
ATOM     36  C   UNL     1       2.135  -0.089  -1.224  0.00  0.00    +0.122 C 
BRANCH  36  37
ATOM     37  C   UNL     1       3.076   0.763  -0.369  0.00  0.00    +0.024 C 
BRANCH  37  39
ATOM     38  C   UNL     1       1.966   0.048   1.752  0.00  0.00    +0.007 C 
ATOM     39  C   UNL     1       2.333   1.248   0.877  0.00  0.00    -0.016 C 
ATOM     40  C   UNL     1       3.232   2.200   1.669  0.00  0.00    +0.007 C 
ENDBRANCH  37  39
ENDBRANCH  36  37
ENDBRANCH   1  36
TORSDOF 7
