REMARK  Name = ZINC42139716
REMARK  6 active torsions:
REMARK  status: ('A' for Active; 'I' for Inactive)
REMARK    1  A    between atoms: C_1  and  C_2
REMARK    2  A    between atoms: C_2  and  C_3
REMARK    3  A    between atoms: C_9  and  O_11
REMARK    4  A    between atoms: O_11  and  C_12
REMARK    5  A    between atoms: C_13  and  C_19
REMARK    6  A    between atoms: C_15  and  N_18
REMARK                            x       y       z     vdW  Elec       q    Type
REMARK                         _______ _______ _______ _____ _____    ______ ____
ROOT
ATOM      1  C   UNL     1       0.766  -3.778   0.265  0.00  0.00    +0.228 A 
ATOM      2  C   UNL     1       1.330  -4.384   1.397  0.00  0.00    +0.100 A 
ATOM      3  C   UNL     1       0.815  -5.609   1.835  0.00  0.00    +0.042 A 
ATOM      4  C   UNL     1      -0.237  -6.173   1.124  0.00  0.00    +0.044 A 
ATOM      5  C   UNL     1      -0.739  -5.509   0.012  0.00  0.00    +0.137 A 
ATOM      6  N   UNL     1      -0.237  -4.352  -0.375  0.00  0.00    -0.219 NA
ENDROOT
BRANCH   2   7
ATOM      7  C   UNL     1       2.447  -3.740   2.115  0.00  0.00    +0.247 C 
ATOM      8  O   UNL     1       2.887  -2.676   1.725  0.00  0.00    -0.270 OA
ATOM      9  N   UNL     1       2.981  -4.332   3.202  0.00  0.00    -0.325 N 
ATOM     10  H   UNL     1       2.630  -5.182   3.512  0.00  0.00    +0.145 HD
ATOM     11  H   UNL     1       3.715  -3.909   3.673  0.00  0.00    +0.145 HD
ENDBRANCH   2   7
BRANCH   4  12
ATOM     12  N   UNL     1      -0.785  -7.398   1.524  0.00  0.00    -0.357 N 
ATOM     13  H   UNL     1      -0.430  -7.858   2.301  0.00  0.00    +0.142 HD
ATOM     14  H   UNL     1      -1.519  -7.787   1.024  0.00  0.00    +0.142 HD
ENDBRANCH   4  12
BRANCH   1  15
ATOM     15  O   UNL     1       1.252  -2.591  -0.174  0.00  0.00    -0.472 OA
BRANCH  15  21
ATOM     16  C   UNL     1       0.718  -0.497  -1.257  0.00  0.00    +0.030 C 
ATOM     17  C   UNL     1       2.187  -0.073  -1.207  0.00  0.00    +0.007 C 
ATOM     18  C   UNL     1       2.904  -0.566  -2.466  0.00  0.00    +0.001 C 
ATOM     19  C   UNL     1       2.816  -2.092  -2.538  0.00  0.00    +0.004 C 
ATOM     20  C   UNL     1       1.347  -2.517  -2.587  0.00  0.00    +0.045 C 
ATOM     21  C   UNL     1       0.630  -2.023  -1.329  0.00  0.00    +0.178 C 
BRANCH  16  23
ATOM     22  C   UNL     1      -0.019   1.526   0.010  0.00  0.00    +0.004 C 
ATOM     23  C   UNL     1       0.002  -0.004   0.002  0.00  0.00    +0.004 C 
ENDBRANCH  16  23
ENDBRANCH  15  21
ENDBRANCH   1  15
TORSDOF 5
