REMARK  Name = ZINC50523815
REMARK  7 active torsions:
REMARK  status: ('A' for Active; 'I' for Inactive)
REMARK    1  A    between atoms: C_1  and  C_2
REMARK    2  A    between atoms: C_2  and  C_3
REMARK    3  A    between atoms: C_2  and  C_4
REMARK    4  A    between atoms: C_2  and  O_5
REMARK    5  A    between atoms: O_5  and  C_6
REMARK    6  A    between atoms: C_7  and  N_21
REMARK    7  A    between atoms: C_10  and  N_12
REMARK                            x       y       z     vdW  Elec       q    Type
REMARK                         _______ _______ _______ _____ _____    ______ ____
ROOT
ATOM      1  C   UNL     1       1.846  -0.071  -1.499  0.00  0.00    +0.239 A 
ATOM      2  C   UNL     1       2.448  -0.494  -2.684  0.00  0.00    +0.087 A 
ATOM      3  C   UNL     1       3.811  -0.287  -2.862  0.00  0.00    +0.032 A 
ATOM      4  C   UNL     1       4.523   0.336  -1.849  0.00  0.00    +0.050 A 
ATOM      5  C   UNL     1       3.859   0.731  -0.696  0.00  0.00    +0.158 A 
ATOM      6  N   UNL     1       2.557   0.524  -0.558  0.00  0.00    -0.192 NA
ENDROOT
BRANCH   5   7
ATOM      7  N   UNL     1       4.571   1.359   0.330  0.00  0.00    -0.214 N 
ATOM      8  C   UNL     1       4.034   2.202   1.272  0.00  0.00    +0.076 A 
ATOM      9  C   UNL     1       2.750   2.679   1.519  0.00  0.00    +0.028 A 
ATOM     10  C   UNL     1       2.531   3.531   2.565  0.00  0.00    +0.002 A 
ATOM     11  C   UNL     1       3.577   3.930   3.389  0.00  0.00    +0.001 A 
ATOM     12  C   UNL     1       4.846   3.478   3.170  0.00  0.00    +0.011 A 
ATOM     13  C   UNL     1       5.095   2.605   2.105  0.00  0.00    +0.020 A 
ATOM     14  C   UNL     1       6.292   1.944   1.594  0.00  0.00    +0.143 A 
ATOM     15  N   UNL     1       5.943   1.225   0.565  0.00  0.00    -0.172 NA
ENDBRANCH   5   7
BRANCH   2  16
ATOM     16  N   UNL     1       1.688  -1.120  -3.682  0.00  0.00    -0.354 N 
ATOM     17  H   UNL     1       0.738  -1.262  -3.550  0.00  0.00    +0.142 HD
ATOM     18  H   UNL     1       2.113  -1.412  -4.503  0.00  0.00    +0.142 HD
ENDBRANCH   2  16
BRANCH   1  19
ATOM     19  O   UNL     1       0.515  -0.267  -1.313  0.00  0.00    -0.469 OA
BRANCH  19  21
ATOM     20  C   UNL     1       0.050   1.831  -0.208  0.00  0.00    +0.055 C 
ATOM     21  C   UNL     1      -0.068   0.307  -0.142  0.00  0.00    +0.104 C 
ATOM     22  C   UNL     1       0.666  -0.207   1.098  0.00  0.00    +0.055 C 
ATOM     23  C   UNL     1      -1.544  -0.088  -0.061  0.00  0.00    +0.055 C 
ENDBRANCH  19  21
ENDBRANCH   1  19
TORSDOF 4
