REMARK  Name = ZINC00303043
REMARK  7 active torsions:
REMARK  status: ('A' for Active; 'I' for Inactive)
REMARK    1  A    between atoms: C_1  and  C_2
REMARK    2  A    between atoms: C_5  and  C_8
REMARK    3  A    between atoms: C_11  and  C_14
REMARK    4  A    between atoms: C_17  and  O_22
REMARK    5  A    between atoms: C_18  and  O_20
REMARK    6  A    between atoms: O_20  and  C_21
REMARK    7  A    between atoms: O_22  and  C_23
REMARK                            x       y       z     vdW  Elec       q    Type
REMARK                         _______ _______ _______ _____ _____    ______ ____
ROOT
ATOM      1  C   UNL     1       0.061  -4.251  -0.021  0.00  0.00    +0.124 C 
ATOM      2  N   UNL     1       0.072  -5.046  -1.049  0.00  0.00    -0.178 NA
ATOM      3  N   UNL     1       0.091  -6.419  -0.941  0.00  0.00    -0.250 N 
ATOM      4  C   UNL     1       0.098  -6.944   0.443  0.00  0.00    +0.183 C 
ATOM      5  S   UNL     1       0.083  -5.359   1.379  0.00  0.00    -0.075 S 
ATOM      6  H   UNL     1       0.099  -7.001  -1.717  0.00  0.00    +0.170 HD
ENDROOT
BRANCH   1  11
ATOM      7  C   UNL     1      -0.018   1.503   0.010  0.00  0.00    +0.044 C 
ATOM      8  C   UNL     1       0.002  -0.004   0.002  0.00  0.00    -0.050 A 
ATOM      9  C   UNL     1       0.006  -0.686  -1.202  0.00  0.00    +0.004 A 
ATOM     10  C   UNL     1       0.025  -2.066  -1.216  0.00  0.00    +0.011 A 
ATOM     11  C   UNL     1       0.041  -2.773  -0.013  0.00  0.00    +0.008 A 
ATOM     12  C   UNL     1       0.037  -2.079   1.198  0.00  0.00    +0.011 A 
ATOM     13  C   UNL     1       0.023  -0.699   1.198  0.00  0.00    +0.004 A 
ENDBRANCH   1  11
BRANCH   4  14
ATOM     14  C   UNL     1      -1.133  -7.765   0.724  0.00  0.00    -0.012 A 
ATOM     15  C   UNL     1      -2.317  -7.479   0.070  0.00  0.00    +0.010 A 
ATOM     16  C   UNL     1      -3.450  -8.230   0.325  0.00  0.00    +0.050 A 
ATOM     17  C   UNL     1      -3.400  -9.272   1.237  0.00  0.00    +0.162 A 
ATOM     18  C   UNL     1      -2.207  -9.561   1.894  0.00  0.00    +0.162 A 
ATOM     19  C   UNL     1      -1.075  -8.807   1.631  0.00  0.00    +0.055 A 
BRANCH  18  20
ATOM     20  O   UNL     1      -2.153 -10.582   2.790  0.00  0.00    -0.491 OA
ATOM     21  C   UNL     1      -0.896 -10.821   3.427  0.00  0.00    +0.277 C 
ENDBRANCH  18  20
BRANCH  17  22
ATOM     22  O   UNL     1      -4.513 -10.012   1.489  0.00  0.00    -0.491 OA
ATOM     23  C   UNL     1      -5.701  -9.659   0.777  0.00  0.00    +0.277 C 
ENDBRANCH  17  22
ENDBRANCH   4  14
TORSDOF 4
