REMARK  Name = ZINC40731391
REMARK  6 active torsions:
REMARK  status: ('A' for Active; 'I' for Inactive)
REMARK    1  A    between atoms: C_1  and  C_2
REMARK    2  A    between atoms: C_2  and  C_3
REMARK    3  A    between atoms: C_4  and  C_21
REMARK    4  A    between atoms: N_6  and  C_9
REMARK    5  A    between atoms: C_7  and  C_8
REMARK    6  A    between atoms: C_14  and  N_15
REMARK                            x       y       z     vdW  Elec       q    Type
REMARK                         _______ _______ _______ _____ _____    ______ ____
ROOT
ATOM      1  C   UNL     1      -4.457  -1.614  -1.455  0.00  0.00    +0.087 A 
ATOM      2  C   UNL     1      -5.603  -2.142  -0.879  0.00  0.00    +0.035 A 
ATOM      3  C   UNL     1      -6.650  -2.557  -1.677  0.00  0.00    -0.024 A 
ATOM      4  C   UNL     1      -6.561  -2.446  -3.060  0.00  0.00    +0.038 A 
ATOM      5  C   UNL     1      -5.416  -1.919  -3.642  0.00  0.00    +0.048 A 
ATOM      6  C   UNL     1      -4.365  -1.496  -2.842  0.00  0.00    +0.052 A 
ATOM      7  N   UNL     1      -7.625  -2.868  -3.864  0.00  0.00    -0.285 N 
ATOM      8  C   UNL     1      -8.854  -3.027  -3.340  0.00  0.00    +0.218 C 
ATOM      9  O   UNL     1      -9.763  -3.406  -4.048  0.00  0.00    -0.275 OA
ATOM     10  C   UNL     1      -9.114  -2.739  -1.886  0.00  0.00    +0.101 C 
ATOM     11  C   UNL     1      -7.895  -3.131  -1.051  0.00  0.00    +0.046 C 
ATOM     12  H   UNL     1      -7.476  -3.048  -4.805  0.00  0.00    +0.155 HD
ENDROOT
BRANCH   1  16
ATOM     13  C   UNL     1      -1.842  -1.146   0.896  0.00  0.00    -0.004 A 
ATOM     14  C   UNL     1      -1.790   0.059   0.188  0.00  0.00    +0.064 A 
ATOM     15  N   UNL     1      -2.719   0.032  -0.735  0.00  0.00    -0.171 NA
ATOM     16  N   UNL     1      -3.392  -1.193  -0.643  0.00  0.00    -0.235 N 
ATOM     17  C   UNL     1      -2.830  -1.901   0.363  0.00  0.00    +0.045 A 
ATOM     18  C   UNL     1      -3.235  -3.281   0.812  0.00  0.00    +0.066 C 
ATOM     19  C   UNL     1      -0.832   1.194   0.443  0.00  0.00    +0.068 C 
BRANCH  13  21
ATOM     20  C   UNL     1       0.294  -2.247   1.508  0.00  0.00    +0.009 C 
ATOM     21  C   UNL     1      -0.950  -1.537   2.046  0.00  0.00    +0.035 C 
ENDBRANCH  13  21
ENDBRANCH   1  16
BRANCH   6  22
ATOM     22  N   UNL     1      -3.214  -0.959  -3.425  0.00  0.00    -0.356 N 
ATOM     23  H   UNL     1      -2.443  -0.753  -2.874  0.00  0.00    +0.142 HD
ATOM     24  H   UNL     1      -3.187  -0.792  -4.380  0.00  0.00    +0.142 HD
ENDBRANCH   6  22
TORSDOF 3
