REMARK  Name = ZINC34735086
REMARK  6 active torsions:
REMARK  status: ('A' for Active; 'I' for Inactive)
REMARK    1  A    between atoms: C_1  and  C_2
REMARK    2  A    between atoms: C_2  and  C_35
REMARK    3  A    between atoms: N_11  and  C_29
REMARK    4  A    between atoms: N_17  and  C_20
REMARK    5  A    between atoms: C_20  and  C_21
REMARK    6  A    between atoms: C_29  and  C_30
REMARK                            x       y       z     vdW  Elec       q    Type
REMARK                         _______ _______ _______ _____ _____    ______ ____
ROOT
ATOM      1  C   UNL     1       0.645   0.256   2.436  0.00  0.00    +0.041 C 
ATOM      2  C   UNL     1       0.297   0.155   0.949  0.00  0.00    +0.068 C 
ATOM      3  C   UNL     1      -1.149   0.607   0.734  0.00  0.00    +0.071 C 
ATOM      4  C   UNL     1      -2.072  -0.442   1.351  0.00  0.00    -0.018 A 
ATOM      5  C   UNL     1      -1.587  -1.678   1.619  0.00  0.00    +0.021 A 
ATOM      6  S   UNL     1      -2.951  -2.572   2.313  0.00  0.00    -0.071 S 
ATOM      7  C   UNL     1      -4.166  -1.292   2.243  0.00  0.00    +0.118 A 
ATOM      8  C   UNL     1      -3.465  -0.202   1.677  0.00  0.00    +0.076 A 
ATOM      9  C   UNL     1      -4.195   1.016   1.487  0.00  0.00    +0.264 A 
ATOM     10  O   UNL     1      -3.680   2.011   1.006  0.00  0.00    -0.267 OA
ATOM     11  N   UNL     1      -5.493   0.995   1.873  0.00  0.00    -0.271 N 
ATOM     12  C   UNL     1      -6.088  -0.104   2.411  0.00  0.00    +0.202 A 
ATOM     13  N   UNL     1      -5.443  -1.246   2.602  0.00  0.00    -0.208 NA
ATOM     14  N   UNL     1      -7.410  -0.027   2.771  0.00  0.00    -0.304 N 
ATOM     15  C   UNL     1      -8.475  -0.389   1.823  0.00  0.00    +0.089 C 
ATOM     16  C   UNL     1      -9.427  -1.370   2.514  0.00  0.00    -0.059 C 
ATOM     17  N   UNL     1      -9.909  -0.781   3.770  0.00  0.00    +0.387 N 
ATOM     18  C   UNL     1      -8.787  -0.599   4.699  0.00  0.00    -0.059 C 
ATOM     19  C   UNL     1      -7.802   0.415   4.118  0.00  0.00    +0.089 C 
ATOM     20  C   UNL     1      -0.190  -2.154   1.370  0.00  0.00    +0.203 C 
ATOM     21  O   UNL     1       0.459  -1.199   0.515  0.00  0.00    -0.368 OA
ATOM     22  C   UNL     1       1.234   1.060   0.146  0.00  0.00    +0.041 C 
ATOM     23  H   UNL     1     -10.334   0.114   3.579  0.00  0.00    -0.081 HD
ENDROOT
BRANCH  17  24
ATOM     24  C   UNL     1     -10.905  -1.673   4.377  0.00  0.00    +0.019 C 
BRANCH  24  25
ATOM     25  C   UNL     1     -11.490  -1.015   5.600  0.00  0.00    +0.199 C 
ATOM     26  O   UNL     1     -11.113   0.088   5.933  0.00  0.00    -0.278 OA
ATOM     27  N   UNL     1     -12.431  -1.653   6.324  0.00  0.00    -0.303 N 
ATOM     28  C   UNL     1     -12.892  -2.993   5.937  0.00  0.00    +0.107 C 
ATOM     29  C   UNL     1     -12.752  -3.930   7.140  0.00  0.00    +0.019 C 
ATOM     30  C   UNL     1     -13.494  -3.332   8.338  0.00  0.00    +0.003 C 
ATOM     31  C   UNL     1     -12.872  -1.981   8.701  0.00  0.00    +0.019 C 
ATOM     32  C   UNL     1     -13.010  -1.025   7.519  0.00  0.00    +0.107 C 
ENDBRANCH  24  25
ENDBRANCH  17  24
BRANCH  11  33
ATOM     33  C   UNL     1      -6.293   2.211   1.704  0.00  0.00    +0.223 C 
BRANCH  33  34
ATOM     34  C   UNL     1      -6.867   2.245   0.311  0.00  0.00    +0.230 C 
ATOM     35  O   UNL     1      -6.631   1.343  -0.464  0.00  0.00    -0.274 OA
ATOM     36  N   UNL     1      -7.642   3.278  -0.073  0.00  0.00    -0.328 N 
ATOM     37  H   UNL     1      -7.831   4.000   0.548  0.00  0.00    +0.145 HD
ATOM     38  H   UNL     1      -8.012   3.300  -0.969  0.00  0.00    +0.145 HD
ENDBRANCH  33  34
ENDBRANCH  11  33
TORSDOF 4
