REMARK  Name = ZINC43525958
REMARK  7 active torsions:
REMARK  status: ('A' for Active; 'I' for Inactive)
REMARK    1  A    between atoms: C_1  and  C_2
REMARK    2  A    between atoms: C_2  and  N_3
REMARK    3  A    between atoms: N_6  and  C_7
REMARK    4  A    between atoms: C_7  and  C_8
REMARK    5  A    between atoms: C_17  and  C_19
REMARK    6  A    between atoms: C_21  and  C_25
REMARK    7  A    between atoms: N_23  and  C_24
REMARK                            x       y       z     vdW  Elec       q    Type
REMARK                         _______ _______ _______ _____ _____    ______ ____
ROOT
ATOM      1  C   UNL     1      -4.567  -4.131   0.038  0.00  0.00    -0.051 C 
ATOM      2  C   UNL     1      -4.938  -5.615   0.083  0.00  0.00    -0.010 C 
ATOM      3  C   UNL     1      -5.750  -5.883   1.357  0.00  0.00    -0.007 C 
ATOM      4  C   UNL     1      -4.888  -5.506   2.569  0.00  0.00    -0.015 C 
ATOM      5  C   UNL     1      -4.497  -4.031   2.457  0.00  0.00    -0.078 C 
ATOM      6  N   UNL     1      -5.101  -3.446   1.218  0.00  0.00    +0.383 N 
ATOM      7  C   UNL     1      -6.562  -3.532   1.247  0.00  0.00    -0.068 C 
ATOM      8  C   UNL     1      -7.000  -4.994   1.331  0.00  0.00    +0.024 C 
ATOM      9  H   UNL     1      -4.846  -2.471   1.164  0.00  0.00    -0.081 HD
ENDROOT
BRANCH   8  10
ATOM     10  C   UNL     1      -7.800  -5.210   2.590  0.00  0.00    +0.041 A 
ATOM     11  C   UNL     1      -7.604  -4.585   3.772  0.00  0.00    +0.053 A 
ATOM     12  C   UNL     1      -8.563  -5.073   4.681  0.00  0.00    +0.093 A 
ATOM     13  N   UNL     1      -9.303  -5.961   4.052  0.00  0.00    -0.171 NA
ATOM     14  N   UNL     1      -8.842  -6.057   2.733  0.00  0.00    -0.271 N 
ATOM     15  C   UNL     1      -9.392  -6.927   1.691  0.00  0.00    +0.172 C 
BRANCH  12  16
ATOM     16  C   UNL     1      -8.711  -4.659   6.099  0.00  0.00    +0.002 A 
ATOM     17  C   UNL     1      -7.857  -3.700   6.639  0.00  0.00    +0.013 A 
ATOM     18  C   UNL     1      -7.999  -3.318   7.958  0.00  0.00    +0.039 A 
ATOM     19  C   UNL     1      -8.987  -3.887   8.744  0.00  0.00    +0.123 A 
ATOM     20  C   UNL     1      -9.838  -4.842   8.210  0.00  0.00    +0.039 A 
ATOM     21  C   UNL     1      -9.708  -5.225   6.891  0.00  0.00    +0.013 A 
ATOM     22  F   UNL     1      -9.122  -3.510  10.034  0.00  0.00    -0.205 F 
ENDBRANCH  12  16
ENDBRANCH   8  10
BRANCH   1  23
ATOM     23  C   UNL     1      -3.043  -3.989   0.015  0.00  0.00    +0.090 C 
BRANCH  23  27
ATOM     24  N   UNL     1      -1.056  -0.898   0.147  0.00  0.00    -0.300 N 
ATOM     25  C   UNL     1      -1.387  -2.203   0.081  0.00  0.00    +0.300 C 
ATOM     26  O   UNL     1      -0.516  -3.049   0.016  0.00  0.00    -0.253 OA
ATOM     27  N   UNL     1      -2.684  -2.571   0.087  0.00  0.00    -0.301 N 
ATOM     28  H   UNL     1      -1.751  -0.224   0.199  0.00  0.00    +0.150 HD
ATOM     29  H   UNL     1      -3.379  -1.896   0.139  0.00  0.00    +0.150 HD
BRANCH  24  31
ATOM     30  C   UNL     1       0.451   1.026   0.224  0.00  0.00    +0.024 C 
ATOM     31  C   UNL     1       0.353  -0.499   0.140  0.00  0.00    +0.102 C 
ENDBRANCH  24  31
ENDBRANCH  23  27
ENDBRANCH   1  23
TORSDOF 5
