REMARK  Name = ZINC39449060
REMARK  6 active torsions:
REMARK  status: ('A' for Active; 'I' for Inactive)
REMARK    1  A    between atoms: C_1  and  S_2
REMARK    2  A    between atoms: S_2  and  N_3
REMARK    3  A    between atoms: C_11  and  C_14
REMARK    4  A    between atoms: C_19  and  O_20
REMARK    5  A    between atoms: C_22  and  C_27
REMARK    6  A    between atoms: C_27  and  C_28
REMARK                            x       y       z     vdW  Elec       q    Type
REMARK                         _______ _______ _______ _____ _____    ______ ____
ROOT
ATOM      1  N   UNL     1       0.797  -0.386  -1.399  0.00  0.00    -0.245 N 
ATOM      2  C   UNL     1       0.062  -0.547  -2.567  0.00  0.00    +0.122 A 
ATOM      3  C   UNL     1       0.683  -0.871  -3.759  0.00  0.00    +0.082 A 
ATOM      4  C   UNL     1       2.141  -1.040  -3.800  0.00  0.00    +0.099 A 
ATOM      5  C   UNL     1       2.866  -0.869  -2.599  0.00  0.00    +0.068 A 
ATOM      6  C   UNL     1       2.135  -0.526  -1.371  0.00  0.00    +0.271 A 
ATOM      7  O   UNL     1       2.741  -0.371  -0.326  0.00  0.00    -0.266 OA
ATOM      8  C   UNL     1       4.250  -1.024  -2.609  0.00  0.00    +0.025 A 
ATOM      9  C   UNL     1       4.863  -1.344  -3.822  0.00  0.00    +0.004 A 
ATOM     10  C   UNL     1       4.076  -1.496  -4.969  0.00  0.00    +0.120 A 
ATOM     11  N   UNL     1       2.772  -1.345  -4.928  0.00  0.00    -0.252 NA
ATOM     12  N   UNL     1      -0.071  -1.040  -4.905  0.00  0.00    -0.337 N 
ATOM     13  C   UNL     1      -1.476  -1.453  -4.760  0.00  0.00    +0.082 C 
ATOM     14  C   UNL     1      -2.161  -0.486  -3.788  0.00  0.00    +0.103 C 
ATOM     15  C   UNL     1      -1.341  -0.379  -2.529  0.00  0.00    +0.184 C 
ATOM     16  O   UNL     1      -1.890  -0.145  -1.471  0.00  0.00    -0.290 OA
ATOM     17  H   UNL     1       0.316  -0.891  -5.782  0.00  0.00    +0.146 HD
ENDROOT
BRANCH   9  18
ATOM     18  C   UNL     1       6.333  -1.520  -3.894  0.00  0.00    +0.025 A 
ATOM     19  C   UNL     1       7.181  -0.556  -3.353  0.00  0.00    +0.012 A 
ATOM     20  C   UNL     1       8.549  -0.726  -3.422  0.00  0.00    +0.001 A 
ATOM     21  C   UNL     1       9.082  -1.850  -4.028  0.00  0.00    +0.004 A 
ATOM     22  C   UNL     1       8.251  -2.812  -4.568  0.00  0.00    +0.046 A 
ATOM     23  C   UNL     1       6.875  -2.658  -4.501  0.00  0.00    +0.125 A 
BRANCH  23  24
ATOM     24  O   UNL     1       6.057  -3.606  -5.027  0.00  0.00    -0.506 OA
ATOM     25  H   UNL     1       5.832  -3.460  -5.956  0.00  0.00    +0.292 HD
ENDBRANCH  23  24
ENDBRANCH   9  18
BRANCH   1  27
ATOM     26  C   UNL     1      -0.022   1.810   0.012  0.00  0.00    +0.110 C 
ATOM     27  S   UNL     1       0.002  -0.004   0.002  0.00  0.00    -0.044 S 
ENDBRANCH   1  27
BRANCH  13  28
ATOM     28  C   UNL     1      -1.541  -2.877  -4.206  0.00  0.00    +0.057 C 
BRANCH  28  29
ATOM     29  C   UNL     1      -0.949  -3.834  -5.208  0.00  0.00    -0.046 A 
ATOM     30  C   UNL     1      -1.755  -4.413  -6.170  0.00  0.00    +0.004 A 
ATOM     31  C   UNL     1      -1.211  -5.291  -7.090  0.00  0.00    +0.000 A 
ATOM     32  C   UNL     1       0.138  -5.589  -7.047  0.00  0.00    +0.000 A 
ATOM     33  C   UNL     1       0.944  -5.009  -6.086  0.00  0.00    +0.000 A 
ATOM     34  C   UNL     1       0.402  -4.128  -5.169  0.00  0.00    +0.004 A 
ENDBRANCH  28  29
ENDBRANCH  13  28
TORSDOF 5
