REMARK  Name = ZINC51998905
REMARK  5 active torsions:
REMARK  status: ('A' for Active; 'I' for Inactive)
REMARK    1  A    between atoms: C_1  and  C_2
REMARK    2  A    between atoms: C_2  and  C_4
REMARK    3  A    between atoms: C_2  and  N_12
REMARK    4  A    between atoms: N_12  and  C_13
REMARK    5  A    between atoms: C_19  and  O_21
REMARK                            x       y       z     vdW  Elec       q    Type
REMARK                         _______ _______ _______ _____ _____    ______ ____
ROOT
ATOM      1  N   UNL     1      -1.370  -0.513   0.133  0.00  0.00    +0.387 N 
ATOM      2  H   UNL     1      -1.402  -1.502   0.328  0.00  0.00    -0.085 HD
ATOM      3  H   UNL     1      -1.785  -0.005   0.900  0.00  0.00    -0.085 HD
ENDROOT
BRANCH   1   4
ATOM      4  C   UNL     1      -2.116  -0.233  -1.101  0.00  0.00    -0.042 C 
ATOM      5  C   UNL     1      -3.600  -0.533  -0.879  0.00  0.00    -0.013 C 
ATOM      6  C   UNL     1      -4.377  -0.241  -2.164  0.00  0.00    -0.001 C 
ATOM      7  C   UNL     1      -3.842  -1.123  -3.295  0.00  0.00    +0.002 C 
ATOM      8  C   UNL     1      -2.358  -0.822  -3.517  0.00  0.00    +0.030 C 
ATOM      9  C   UNL     1      -1.581  -1.114  -2.232  0.00  0.00    +0.101 C 
BRANCH   9  10
ATOM     10  O   UNL     1      -1.741  -2.490  -1.880  0.00  0.00    -0.393 OA
ATOM     11  H   UNL     1      -1.423  -3.107  -2.552  0.00  0.00    +0.210 HD
ENDBRANCH   9  10
ENDBRANCH   1   4
BRANCH   1  13
ATOM     12  C   UNL     1       0.088   1.430  -0.181  0.00  0.00    -0.009 C 
ATOM     13  C   UNL     1       0.028  -0.092  -0.034  0.00  0.00    -0.042 C 
BRANCH  13  14
ATOM     14  C   UNL     1       0.826  -0.512   1.174  0.00  0.00    -0.048 A 
ATOM     15  C   UNL     1       0.181  -0.805   2.361  0.00  0.00    +0.004 A 
ATOM     16  C   UNL     1       0.913  -1.191   3.468  0.00  0.00    +0.015 A 
ATOM     17  C   UNL     1       2.291  -1.283   3.389  0.00  0.00    +0.019 A 
ATOM     18  C   UNL     1       2.937  -0.989   2.202  0.00  0.00    +0.030 A 
ATOM     19  C   UNL     1       2.204  -0.609   1.092  0.00  0.00    +0.021 A 
ATOM     20 BR   UNL     1       3.085  -0.214  -0.534  0.00  0.00    -0.050 Br
ATOM     21 BR   UNL     1       3.292  -1.809   4.904  0.00  0.00    -0.050 Br
ENDBRANCH  13  14
ENDBRANCH   1  13
TORSDOF 4
