REMARK  Name = ZINC21079605
REMARK  9 active torsions:
REMARK  status: ('A' for Active; 'I' for Inactive)
REMARK    1  A    between atoms: C_1  and  C_2
REMARK    2  A    between atoms: C_2  and  C_28
REMARK    3  A    between atoms: N_3  and  N_4
REMARK    4  A    between atoms: C_7  and  S_10
REMARK    5  A    between atoms: S_10  and  C_11
REMARK    6  A    between atoms: C_11  and  C_12
REMARK    7  A    between atoms: N_14  and  C_15
REMARK    8  A    between atoms: C_15  and  C_16
REMARK    9  A    between atoms: C_15  and  C_22
REMARK                            x       y       z     vdW  Elec       q    Type
REMARK                         _______ _______ _______ _____ _____    ______ ____
ROOT
ATOM      1  N   UNL     1       1.754  -1.722  -0.025  0.00  0.00    -0.205 N 
ATOM      2  C   UNL     1       1.308  -0.409  -0.013  0.00  0.00    +0.232 A 
ATOM      3  N   UNL     1       0.002  -0.004   0.002  0.00  0.00    -0.186 NA
ATOM      4  C   UNL     1      -0.016   1.362   0.009  0.00  0.00    +0.211 A 
ATOM      5  N   UNL     1       1.225   1.784  -0.000  0.00  0.00    -0.144 NA
ATOM      6  N   UNL     1       2.064   0.662  -0.014  0.00  0.00    -0.245 N 
ATOM      7  H   UNL     1       1.030  -2.550  -0.023  0.00  0.00    +0.177 HD
ATOM      8  H   UNL     1       3.159   0.562  -0.025  0.00  0.00    +0.192 HD
ENDROOT
BRANCH   1  11
ATOM      9  C   UNL     1       2.553  -4.358  -0.048  0.00  0.00    +0.068 C 
ATOM     10  C   UNL     1       3.546  -3.225  -0.050  0.00  0.00    +0.063 C 
ATOM     11  N   UNL     1       3.129  -1.995  -0.039  0.00  0.00    -0.184 NA
BRANCH  10  12
ATOM     12  C   UNL     1       4.992  -3.511  -0.066  0.00  0.00    +0.001 A 
ATOM     13  C   UNL     1       5.444  -4.834  -0.078  0.00  0.00    +0.013 A 
ATOM     14  C   UNL     1       6.797  -5.099  -0.092  0.00  0.00    +0.050 A 
ATOM     15  C   UNL     1       7.714  -4.058  -0.095  0.00  0.00    +0.166 A 
ATOM     16  C   UNL     1       7.270  -2.736  -0.083  0.00  0.00    +0.167 A 
ATOM     17  C   UNL     1       5.915  -2.462  -0.074  0.00  0.00    +0.059 A 
ATOM     18  O   UNL     1       8.357  -1.911  -0.089  0.00  0.00    -0.453 OA
ATOM     19  C   UNL     1       9.460  -2.731  -0.517  0.00  0.00    +0.466 C 
ATOM     20  O   UNL     1       9.079  -4.058  -0.108  0.00  0.00    -0.453 OA
ENDBRANCH  10  12
ENDBRANCH   1  11
BRANCH   4  21
ATOM     21  S   UNL     1      -1.456   2.378   0.022  0.00  0.00    -0.075 S 
BRANCH  21  22
ATOM     22  C   UNL     1      -0.799   4.069   0.028  0.00  0.00    +0.173 C 
BRANCH  22  23
ATOM     23  C   UNL     1      -1.942   5.051   0.039  0.00  0.00    +0.224 C 
ATOM     24  O   UNL     1      -3.087   4.650   0.043  0.00  0.00    -0.275 OA
ATOM     25  N   UNL     1      -1.692   6.376   0.045  0.00  0.00    -0.304 N 
ATOM     26  H   UNL     1      -0.654   6.740   0.042  0.00  0.00    +0.150 HD
BRANCH  25  27
ATOM     27  C   UNL     1      -2.803   7.331   0.056  0.00  0.00    +0.134 C 
BRANCH  27  28
ATOM     28  C   UNL     1      -2.341   8.632   0.661  0.00  0.00    -0.023 A 
ATOM     29  C   UNL     1      -1.082   9.121   0.369  0.00  0.00    +0.006 A 
ATOM     30  C   UNL     1      -0.660  10.317   0.920  0.00  0.00    +0.000 A 
ATOM     31  C   UNL     1      -1.494  11.017   1.772  0.00  0.00    +0.000 A 
ATOM     32  C   UNL     1      -2.751  10.525   2.068  0.00  0.00    +0.000 A 
ATOM     33  C   UNL     1      -3.175   9.332   1.513  0.00  0.00    +0.006 A 
ENDBRANCH  27  28
BRANCH  27  34
ATOM     34  C   UNL     1      -3.271   7.572  -1.356  0.00  0.00    -0.023 A 
ATOM     35  C   UNL     1      -2.350   7.688  -2.380  0.00  0.00    +0.006 A 
ATOM     36  C   UNL     1      -2.780   7.904  -3.676  0.00  0.00    +0.000 A 
ATOM     37  C   UNL     1      -4.131   8.015  -3.946  0.00  0.00    +0.000 A 
ATOM     38  C   UNL     1      -5.052   7.905  -2.921  0.00  0.00    +0.000 A 
ATOM     39  C   UNL     1      -4.622   7.684  -1.626  0.00  0.00    +0.006 A 
ENDBRANCH  27  34
ENDBRANCH  25  27
ENDBRANCH  22  23
ENDBRANCH  21  22
ENDBRANCH   4  21
TORSDOF 8
