REMARK  Name = ZINC39325509
REMARK  14 active torsions:
REMARK  status: ('A' for Active; 'I' for Inactive)
REMARK    1  A    between atoms: C_1  and  C_2
REMARK    2  A    between atoms: C_2  and  O_3
REMARK    3  A    between atoms: O_3  and  C_4
REMARK    4  A    between atoms: C_11  and  C_16
REMARK    5  A    between atoms: C_16  and  N_17
REMARK    6  A    between atoms: N_17  and  C_18
REMARK    7  A    between atoms: N_17  and  S_22
REMARK    8  A    between atoms: C_18  and  C_19
REMARK    9  A    between atoms: C_19  and  C_20
REMARK   10  A    between atoms: C_20  and  O_21
REMARK   11  A    between atoms: S_22  and  C_25
REMARK   12  A    between atoms: C_26  and  C_33
REMARK   13  A    between atoms: C_28  and  C_32
REMARK   14  A    between atoms: C_30  and  C_31
REMARK                            x       y       z     vdW  Elec       q    Type
REMARK                         _______ _______ _______ _____ _____    ______ ____
ROOT
ATOM      1  N   UNL     1       2.139  -8.657   5.305  0.00  0.00    -0.175 NA
ENDROOT
BRANCH   1   2
ATOM      2  S   UNL     1       1.104  -9.510   4.334  0.00  0.00    +0.061 S 
ATOM      3  O   UNL     1       0.075  -8.610   3.946  0.00  0.00    -0.153 OA
ATOM      4  O   UNL     1       1.910 -10.199   3.388  0.00  0.00    -0.153 OA
BRANCH   2   5
ATOM      5  C   UNL     1       0.343 -10.742   5.338  0.00  0.00    +0.111 A 
ATOM      6  C   UNL     1      -0.894 -10.502   5.907  0.00  0.00    -0.024 A 
ATOM      7  C   UNL     1      -1.491 -11.469   6.696  0.00  0.00    +0.008 A 
ATOM      8  C   UNL     1      -0.851 -12.674   6.914  0.00  0.00    -0.050 A 
ATOM      9  C   UNL     1       0.386 -12.914   6.345  0.00  0.00    +0.008 A 
ATOM     10  C   UNL     1       0.980 -11.950   5.553  0.00  0.00    -0.024 A 
ATOM     11  C   UNL     1       2.326 -12.213   4.928  0.00  0.00    +0.046 C 
ATOM     12  C   UNL     1      -1.501 -13.727   7.774  0.00  0.00    +0.044 C 
ATOM     13  C   UNL     1      -1.591  -9.188   5.669  0.00  0.00    +0.046 C 
ENDBRANCH   2   5
ENDBRANCH   1   2
BRANCH   1  14
ATOM     14  C   UNL     1       1.697  -7.406   5.926  0.00  0.00    +0.126 C 
BRANCH  14  22
ATOM     15  C   UNL     1       0.996  -1.612   5.765  0.00  0.00    +0.121 A 
ATOM     16  C   UNL     1       0.752  -1.634   4.386  0.00  0.00    +0.047 A 
ATOM     17  C   UNL     1       0.990  -2.728   3.619  0.00  0.00    +0.027 A 
ATOM     18  C   UNL     1       1.501  -3.908   4.192  0.00  0.00    +0.041 A 
ATOM     19  N   UNL     1       1.730  -4.974   3.426  0.00  0.00    -0.284 N 
ATOM     20  C   UNL     1       2.208  -6.113   3.898  0.00  0.00    +0.225 C 
ATOM     21  O   UNL     1       2.397  -7.053   3.149  0.00  0.00    -0.275 OA
ATOM     22  C   UNL     1       2.521  -6.242   5.372  0.00  0.00    +0.114 C 
ATOM     23  C   UNL     1       2.262  -5.032   6.247  0.00  0.00    -0.003 C 
ATOM     24  C   UNL     1       1.768  -3.916   5.641  0.00  0.00    -0.004 A 
ATOM     25  C   UNL     1       1.496  -2.702   6.411  0.00  0.00    +0.055 A 
ATOM     26  H   UNL     1       1.536  -4.913   2.478  0.00  0.00    +0.155 HD
BRANCH  15  27
ATOM     27  O   UNL     1       0.734  -0.480   6.471  0.00  0.00    -0.492 OA
BRANCH  27  29
ATOM     28  C   UNL     1      -0.019   1.805   6.697  0.00  0.00    +0.048 C 
ATOM     29  C   UNL     1       0.211   0.632   5.742  0.00  0.00    +0.225 C 
ENDBRANCH  27  29
ENDBRANCH  15  27
ENDBRANCH  14  22
ENDBRANCH   1  14
BRANCH   1  30
ATOM     30  C   UNL     1       3.497  -9.153   5.543  0.00  0.00    +0.112 C 
BRANCH  30  31
ATOM     31  C   UNL     1       3.579  -9.762   6.944  0.00  0.00    +0.045 C 
BRANCH  31  32
ATOM     32  C   UNL     1       4.997 -10.280   7.192  0.00  0.00    +0.157 C 
BRANCH  32  33
ATOM     33  O   UNL     1       5.074 -10.848   8.501  0.00  0.00    -0.395 OA
ATOM     34  H   UNL     1       5.947 -11.198   8.727  0.00  0.00    +0.209 HD
ENDBRANCH  32  33
ENDBRANCH  31  32
ENDBRANCH  30  31
ENDBRANCH   1  30
TORSDOF 10
