REMARK  Name = ZINC60341850
REMARK  13 active torsions:
REMARK  status: ('A' for Active; 'I' for Inactive)
REMARK    1  A    between atoms: C_1  and  C_2
REMARK    2  A    between atoms: C_2  and  N_3
REMARK    3  A    between atoms: C_6  and  C_13
REMARK    4  A    between atoms: C_8  and  C_10
REMARK    5  A    between atoms: C_10  and  C_11
REMARK    6  A    between atoms: C_10  and  C_12
REMARK    7  A    between atoms: N_15  and  C_16
REMARK    8  A    between atoms: C_16  and  C_17
REMARK    9  A    between atoms: C_17  and  C_18
REMARK   10  A    between atoms: C_17  and  C_19
REMARK   11  A    between atoms: C_17  and  N_20
REMARK   12  A    between atoms: C_22  and  C_29
REMARK   13  A    between atoms: C_25  and  C_28
REMARK                            x       y       z     vdW  Elec       q    Type
REMARK                         _______ _______ _______ _____ _____    ______ ____
ROOT
ATOM      1  N   UNL     1      -2.504   1.503   0.634  0.00  0.00    -0.278 N 
ATOM      2  C   UNL     1      -2.684   0.364   1.400  0.00  0.00    +0.151 A 
ATOM      3  C   UNL     1      -3.967  -0.205   1.462  0.00  0.00    +0.094 A 
ATOM      4  C   UNL     1      -4.174  -1.361   2.232  0.00  0.00    +0.054 A 
ATOM      5  C   UNL     1      -3.074  -1.894   2.908  0.00  0.00    +0.037 A 
ATOM      6  C   UNL     1      -1.842  -1.270   2.794  0.00  0.00    +0.047 A 
ATOM      7  N   UNL     1      -1.680  -0.186   2.063  0.00  0.00    -0.233 NA
ATOM      8  C   UNL     1      -5.059   0.436   0.710  0.00  0.00    +0.264 A 
ATOM      9  O   UNL     1      -6.186  -0.021   0.733  0.00  0.00    -0.267 OA
ATOM     10  N   UNL     1      -4.775   1.546  -0.007  0.00  0.00    -0.274 N 
ATOM     11  H   UNL     1      -5.480   1.983  -0.509  0.00  0.00    +0.173 HD
ATOM     12  C   UNL     1      -3.533   2.055  -0.030  0.00  0.00    +0.331 A 
ATOM     13  O   UNL     1      -3.329   3.058  -0.686  0.00  0.00    -0.246 OA
ENDROOT
BRANCH   4  14
ATOM     14  C   UNL     1      -5.511  -1.993   2.324  0.00  0.00    +0.245 C 
ATOM     15  O   UNL     1      -6.129  -2.258   1.312  0.00  0.00    -0.270 OA
ATOM     16  N   UNL     1      -6.042  -2.273   3.530  0.00  0.00    -0.313 N 
ATOM     17  H   UNL     1      -5.549  -2.061   4.338  0.00  0.00    +0.149 HD
BRANCH  16  18
ATOM     18  C   UNL     1      -7.364  -2.897   3.622  0.00  0.00    +0.092 C 
BRANCH  18  19
ATOM     19  C   UNL     1      -7.779  -3.002   5.090  0.00  0.00    -0.055 C 
ATOM     20  C   UNL     1      -7.901  -1.598   5.687  0.00  0.00    -0.008 C 
ATOM     21  C   UNL     1      -9.128  -3.717   5.190  0.00  0.00    -0.008 C 
BRANCH  19  22
ATOM     22  N   UNL     1      -6.765  -3.762   5.833  0.00  0.00    +0.384 N 
ATOM     23  C   UNL     1      -6.672  -5.119   5.281  0.00  0.00    -0.075 C 
ATOM     24  C   UNL     1      -5.561  -5.890   5.997  0.00  0.00    -0.031 C 
ATOM     25  C   UNL     1      -5.882  -5.966   7.492  0.00  0.00    +0.003 C 
ATOM     26  C   UNL     1      -6.050  -4.547   8.041  0.00  0.00    -0.031 C 
ATOM     27  C   UNL     1      -7.143  -3.825   7.250  0.00  0.00    -0.075 C 
ATOM     28  C   UNL     1      -4.730  -3.786   7.902  0.00  0.00    +0.005 C 
ATOM     29  C   UNL     1      -5.468  -7.305   5.421  0.00  0.00    +0.005 C 
ATOM     30  H   UNL     1      -5.870  -3.304   5.744  0.00  0.00    -0.081 HD
ENDBRANCH  19  22
ENDBRANCH  18  19
ENDBRANCH  16  18
ENDBRANCH   4  14
BRANCH   6  31
ATOM     31  C   UNL     1      -0.657  -1.847   3.525  0.00  0.00    +0.032 C 
ATOM     32  C   UNL     1      -0.637  -1.318   4.960  0.00  0.00    +0.014 C 
ATOM     33  C   UNL     1      -0.764  -3.373   3.546  0.00  0.00    +0.014 C 
ENDBRANCH   6  31
BRANCH   1  35
ATOM     34  C   UNL     1      -1.021   3.147   1.675  0.00  0.00    +0.027 C 
ATOM     35  C   UNL     1      -1.177   2.118   0.553  0.00  0.00    +0.125 C 
ENDBRANCH   1  35
TORSDOF 6
