REMARK  Name = ZINC39891899
REMARK  6 active torsions:
REMARK  status: ('A' for Active; 'I' for Inactive)
REMARK    1  A    between atoms: C_1  and  C_2
REMARK    2  A    between atoms: C_5  and  N_8
REMARK    3  A    between atoms: C_12  and  S_16
REMARK    4  A    between atoms: S_16  and  C_17
REMARK    5  A    between atoms: C_20  and  C_22
REMARK    6  A    between atoms: C_27  and  N_28
REMARK                            x       y       z     vdW  Elec       q    Type
REMARK                         _______ _______ _______ _____ _____    ______ ____
ROOT
ATOM      1  S   UNL     1       1.804  -7.163   1.212  0.00  0.00    -0.052 S 
ENDROOT
BRANCH   1   6
ATOM      2  N   UNL     1      -0.017  -4.267  -0.039  0.00  0.00    -0.209 N 
ATOM      3  C   UNL     1      -0.023  -4.968  -1.179  0.00  0.00    +0.228 C 
ATOM      4  O   UNL     1      -0.128  -4.499  -2.292  0.00  0.00    -0.275 OA
ATOM      5  C   UNL     1       0.123  -6.440  -0.859  0.00  0.00    +0.120 C 
ATOM      6  C   UNL     1       0.215  -6.468   0.680  0.00  0.00    +0.151 C 
ATOM      7  C   UNL     1       0.117  -5.008   1.068  0.00  0.00    +0.240 C 
ATOM      8  O   UNL     1       0.152  -4.579   2.201  0.00  0.00    -0.274 OA
BRANCH   2  13
ATOM      9  C   UNL     1      -0.497   1.387   0.090  0.00  0.00    +0.044 C 
ATOM     10  C   UNL     1      -0.369  -0.114   0.056  0.00  0.00    -0.050 A 
ATOM     11  C   UNL     1       0.820  -0.714   0.427  0.00  0.00    +0.005 A 
ATOM     12  C   UNL     1       0.940  -2.090   0.397  0.00  0.00    +0.024 A 
ATOM     13  C   UNL     1      -0.136  -2.870  -0.006  0.00  0.00    +0.044 A 
ATOM     14  C   UNL     1      -1.328  -2.265  -0.378  0.00  0.00    +0.024 A 
ATOM     15  C   UNL     1      -1.444  -0.889  -0.341  0.00  0.00    +0.005 A 
ENDBRANCH   2  13
ENDBRANCH   1   6
BRANCH   1  16
ATOM     16  C   UNL     1       1.665  -7.250   2.967  0.00  0.00    +0.278 A 
ATOM     17  N   UNL     1       0.626  -6.889   3.682  0.00  0.00    -0.101 NA
ATOM     18  N   UNL     1       0.873  -7.091   4.929  0.00  0.00    -0.106 NA
ATOM     19  C   UNL     1       2.079  -7.589   5.059  0.00  0.00    +0.251 A 
ATOM     20  O   UNL     1       2.604  -7.705   3.819  0.00  0.00    -0.411 OA
BRANCH  19  21
ATOM     21  C   UNL     1       2.739  -7.959   6.326  0.00  0.00    +0.059 A 
ATOM     22  C   UNL     1       2.051  -8.706   7.284  0.00  0.00    +0.015 A 
ATOM     23  C   UNL     1       2.674  -9.049   8.466  0.00  0.00    +0.001 A 
ATOM     24  C   UNL     1       3.979  -8.656   8.708  0.00  0.00    +0.002 A 
ATOM     25  C   UNL     1       4.672  -7.917   7.769  0.00  0.00    +0.023 A 
ATOM     26  C   UNL     1       4.063  -7.568   6.572  0.00  0.00    +0.037 A 
BRANCH  26  27
ATOM     27  N   UNL     1       4.762  -6.827   5.620  0.00  0.00    -0.357 N 
ATOM     28  H   UNL     1       4.307  -6.503   4.827  0.00  0.00    +0.142 HD
ATOM     29  H   UNL     1       5.704  -6.635   5.752  0.00  0.00    +0.142 HD
ENDBRANCH  26  27
ENDBRANCH  19  21
ENDBRANCH   1  16
TORSDOF 5
