REMARK  Name = ZINC66534028
REMARK  6 active torsions:
REMARK  status: ('A' for Active; 'I' for Inactive)
REMARK    1  A    between atoms: C_1  and  C_2
REMARK    2  A    between atoms: C_7  and  C_8
REMARK    3  A    between atoms: C_8  and  O_10
REMARK    4  A    between atoms: O_10  and  C_11
REMARK    5  A    between atoms: C_17  and  O_19
REMARK    6  A    between atoms: O_19  and  C_20
REMARK                            x       y       z     vdW  Elec       q    Type
REMARK                         _______ _______ _______ _____ _____    ______ ____
ROOT
ATOM      1  C   UNL     1      -0.018   1.503   0.010  0.00  0.00    +0.047 C 
ATOM      2  C   UNL     1       0.002  -0.004   0.002  0.00  0.00    -0.008 A 
ATOM      3  C   UNL     1       0.008  -0.834  -1.125  0.00  0.00    +0.042 A 
ATOM      4  C   UNL     1       0.026  -2.156  -0.678  0.00  0.00    +0.027 A 
ATOM      5  N   UNL     1       0.034  -2.138   0.655  0.00  0.00    -0.352 N 
ATOM      6  H   UNL     1       0.048  -2.921   1.227  0.00  0.00    +0.166 HD
ATOM      7  C   UNL     1       0.024  -0.827   1.095  0.00  0.00    +0.128 A 
ATOM      8  C   UNL     1       0.031  -3.337  -1.615  0.00  0.00    +0.054 C 
ATOM      9  C   UNL     1      -0.488  -2.894  -2.987  0.00  0.00    +0.014 C 
ATOM     10  C   UNL     1       0.287  -1.673  -3.491  0.00  0.00    +0.080 C 
ATOM     11  C   UNL     1       0.002  -0.505  -2.559  0.00  0.00    +0.165 C 
ATOM     12  O   UNL     1      -0.215   0.617  -2.968  0.00  0.00    -0.292 OA
ENDROOT
BRANCH   7  13
ATOM     13  C   UNL     1       0.033  -0.393   2.495  0.00  0.00    +0.356 C 
ATOM     14  O   UNL     1       0.021   0.793   2.764  0.00  0.00    -0.243 OA
BRANCH  13  15
ATOM     15  O   UNL     1       0.055  -1.308   3.485  0.00  0.00    -0.454 OA
BRANCH  15  16
ATOM     16  C   UNL     1       0.063  -0.814   4.826  0.00  0.00    +0.205 C 
ATOM     17  C   UNL     1       1.508  -0.619   5.290  0.00  0.00    +0.047 C 
ATOM     18  C   UNL     1       1.516  -0.090   6.725  0.00  0.00    +0.004 C 
ATOM     19  C   UNL     1       0.817  -1.095   7.643  0.00  0.00    +0.003 C 
ATOM     20  C   UNL     1      -0.628  -1.290   7.179  0.00  0.00    +0.035 C 
ATOM     21  C   UNL     1      -0.636  -1.819   5.744  0.00  0.00    +0.158 C 
BRANCH  21  22
ATOM     22  O   UNL     1      -1.986  -2.001   5.311  0.00  0.00    -0.376 OA
ATOM     23  C   UNL     1      -2.514  -3.300   5.586  0.00  0.00    +0.194 C 
ENDBRANCH  21  22
ENDBRANCH  15  16
ENDBRANCH  13  15
ENDBRANCH   7  13
TORSDOF 4
