REMARK  Name = ZINC36205203
REMARK  18 active torsions:
REMARK  status: ('A' for Active; 'I' for Inactive)
REMARK    1  A    between atoms: C_1  and  C_2
REMARK    2  A    between atoms: C_5  and  C_9
REMARK    3  A    between atoms: C_7  and  C_8
REMARK    4  A    between atoms: C_18  and  C_20
REMARK    5  A    between atoms: C_20  and  N_21
REMARK    6  A    between atoms: N_21  and  C_22
REMARK    7  A    between atoms: N_21  and  C_32
REMARK    8  A    between atoms: C_22  and  C_23
REMARK    9  A    between atoms: C_23  and  C_25
REMARK   10  A    between atoms: C_23  and  O_31
REMARK   11  A    between atoms: C_25  and  O_26
REMARK   12  A    between atoms: O_26  and  C_27
REMARK   13  A    between atoms: C_27  and  C_28
REMARK   14  A    between atoms: C_28  and  C_29
REMARK   15  A    between atoms: C_28  and  C_30
REMARK   16  A    between atoms: C_32  and  C_33
REMARK   17  A    between atoms: C_33  and  C_34
REMARK   18  A    between atoms: C_33  and  C_35
REMARK                            x       y       z     vdW  Elec       q    Type
REMARK                         _______ _______ _______ _____ _____    ______ ____
ROOT
ATOM      1  C   UNL     1      -9.401  -9.055  -0.426  0.00  0.00    +0.004 A 
ATOM      2  C   UNL     1      -9.411 -10.129   0.401  0.00  0.00    +0.056 A 
ATOM      3  S   UNL     1      -7.715 -10.678   0.383  0.00  0.00    -0.076 S 
ATOM      4  C   UNL     1      -7.040  -9.466  -0.723  0.00  0.00    +0.116 A 
ATOM      5  C   UNL     1      -8.146  -8.667  -1.057  0.00  0.00    +0.080 A 
ATOM      6  C   UNL     1      -7.881  -7.589  -1.961  0.00  0.00    +0.260 A 
ATOM      7  O   UNL     1      -8.777  -6.838  -2.307  0.00  0.00    -0.267 OA
ATOM      8  N   UNL     1      -6.629  -7.418  -2.423  0.00  0.00    -0.312 N 
ATOM      9  H   UNL     1      -6.444  -6.689  -3.036  0.00  0.00    +0.170 HD
ATOM     10  C   UNL     1      -5.619  -8.244  -2.048  0.00  0.00    +0.094 A 
ATOM     11  N   UNL     1      -5.827  -9.230  -1.217  0.00  0.00    -0.229 NA
ENDROOT
BRANCH   1  16
ATOM     12  C   UNL     1     -14.234  -6.095  -1.447  0.00  0.00    +0.044 C 
ATOM     13  C   UNL     1     -12.969  -6.870  -1.179  0.00  0.00    -0.048 A 
ATOM     14  C   UNL     1     -11.815  -6.200  -0.814  0.00  0.00    +0.004 A 
ATOM     15  C   UNL     1     -10.654  -6.904  -0.569  0.00  0.00    +0.009 A 
ATOM     16  C   UNL     1     -10.645  -8.293  -0.689  0.00  0.00    -0.016 A 
ATOM     17  C   UNL     1     -11.811  -8.963  -1.057  0.00  0.00    +0.012 A 
ATOM     18  C   UNL     1     -12.968  -8.248  -1.295  0.00  0.00    -0.047 A 
ATOM     19  C   UNL     1     -14.231  -8.971  -1.686  0.00  0.00    +0.044 C 
ENDBRANCH   1  16
BRANCH  10  20
ATOM     20  C   UNL     1      -4.232  -8.013  -2.591  0.00  0.00    -0.003 C 
BRANCH  20  21
ATOM     21  N   UNL     1      -3.348  -9.103  -2.156  0.00  0.00    +0.386 N 
ATOM     22  H   UNL     1      -3.402  -9.199  -1.153  0.00  0.00    -0.081 HD
BRANCH  21  23
ATOM     23  C   UNL     1      -3.769 -10.358  -2.792  0.00  0.00    -0.044 C 
BRANCH  23  24
ATOM     24  C   UNL     1      -2.969 -11.522  -2.201  0.00  0.00    +0.124 C 
BRANCH  24  25
ATOM     25  O   UNL     1      -1.607 -11.425  -2.622  0.00  0.00    -0.391 OA
ATOM     26  H   UNL     1      -1.488 -11.455  -3.581  0.00  0.00    +0.210 HD
ENDBRANCH  24  25
BRANCH  24  27
ATOM     27  C   UNL     1      -3.560 -12.846  -2.688  0.00  0.00    +0.189 C 
BRANCH  27  28
ATOM     28  O   UNL     1      -2.889 -13.932  -2.047  0.00  0.00    -0.377 OA
BRANCH  28  29
ATOM     29  C   UNL     1      -3.368 -15.222  -2.434  0.00  0.00    +0.163 C 
BRANCH  29  30
ATOM     30  C   UNL     1      -2.581 -16.302  -1.689  0.00  0.00    +0.009 C 
ATOM     31  C   UNL     1      -3.175 -17.676  -2.007  0.00  0.00    +0.009 C 
ATOM     32  C   UNL     1      -1.117 -16.264  -2.133  0.00  0.00    +0.009 C 
ENDBRANCH  29  30
ENDBRANCH  28  29
ENDBRANCH  27  28
ENDBRANCH  24  27
ENDBRANCH  23  24
ENDBRANCH  21  23
BRANCH  21  33
ATOM     33  C   UNL     1      -1.965  -8.796  -2.545  0.00  0.00    -0.075 C 
BRANCH  33  34
ATOM     34  C   UNL     1      -1.509  -7.517  -1.841  0.00  0.00    -0.034 C 
ATOM     35  C   UNL     1      -1.599  -7.709  -0.325  0.00  0.00    +0.005 C 
ATOM     36  C   UNL     1      -0.062  -7.208  -2.230  0.00  0.00    +0.005 C 
ENDBRANCH  33  34
ENDBRANCH  21  33
ENDBRANCH  20  21
ENDBRANCH  10  20
TORSDOF 12
