REMARK  Name = ZINC01321375
REMARK  8 active torsions:
REMARK  status: ('A' for Active; 'I' for Inactive)
REMARK    1  A    between atoms: C_1  and  O_2
REMARK    2  A    between atoms: O_2  and  C_3
REMARK    3  A    between atoms: C_6  and  C_15
REMARK    4  A    between atoms: C_7  and  C_11
REMARK    5  A    between atoms: C_8  and  O_9
REMARK    6  A    between atoms: O_9  and  C_10
REMARK    7  A    between atoms: C_11  and  O_13
REMARK    8  A    between atoms: O_13  and  C_14
REMARK                            x       y       z     vdW  Elec       q    Type
REMARK                         _______ _______ _______ _____ _____    ______ ____
ROOT
ATOM      1  C   UNL     1      -1.156   4.457   0.185  0.00  0.00    +0.008 C 
ATOM      2  C   UNL     1       0.115   4.443   1.002  0.00  0.00    +0.010 A 
ATOM      3  C   UNL     1       1.221   5.131   0.650  0.00  0.00    -0.022 A 
ATOM      4  C   UNL     1       2.233   4.881   1.668  0.00  0.00    +0.003 A 
ATOM      5  C   UNL     1       3.552   5.300   1.860  0.00  0.00    +0.010 A 
ATOM      6  C   UNL     1       4.250   4.871   2.953  0.00  0.00    +0.001 A 
ATOM      7  C   UNL     1       3.659   4.021   3.878  0.00  0.00    +0.002 A 
ATOM      8  C   UNL     1       2.360   3.595   3.710  0.00  0.00    +0.026 A 
ATOM      9  C   UNL     1       1.630   4.018   2.604  0.00  0.00    +0.047 A 
ATOM     10  N   UNL     1       0.347   3.769   2.165  0.00  0.00    -0.359 N 
ATOM     11  H   UNL     1      -0.295   3.199   2.616  0.00  0.00    +0.166 HD
ATOM     12  C   UNL     1       1.319   5.981  -0.590  0.00  0.00    +0.018 C 
ATOM     13  C   UNL     1       0.150   5.606  -1.513  0.00  0.00    -0.076 C 
ATOM     14  N   UNL     1      -1.111   5.609  -0.743  0.00  0.00    +0.387 N 
ATOM     15  H   UNL     1      -1.174   6.480  -0.203  0.00  0.00    -0.084 HD
ATOM     16  H   UNL     1      -1.903   5.550  -1.393  0.00  0.00    -0.084 HD
ENDROOT
BRANCH   1  20
ATOM     17  C   UNL     1      -4.534   4.872   2.793  0.00  0.00    +0.162 A 
ATOM     18  C   UNL     1      -3.262   5.201   3.231  0.00  0.00    +0.049 A 
ATOM     19  C   UNL     1      -2.173   5.060   2.386  0.00  0.00    +0.007 A 
ATOM     20  C   UNL     1      -2.345   4.602   1.099  0.00  0.00    -0.038 A 
ATOM     21  C   UNL     1      -3.623   4.266   0.642  0.00  0.00    +0.106 A 
ATOM     22  C   UNL     1      -4.724   4.403   1.497  0.00  0.00    +0.176 A 
BRANCH  17  24
ATOM     23  C   UNL     1      -5.329   5.495   4.947  0.00  0.00    +0.277 C 
ATOM     24  O   UNL     1      -5.597   5.008   3.630  0.00  0.00    -0.491 OA
ENDBRANCH  17  24
BRANCH  22  25
ATOM     25  O   UNL     1      -5.969   4.079   1.065  0.00  0.00    -0.491 OA
ATOM     26  C   UNL     1      -6.396   2.730   1.266  0.00  0.00    +0.277 C 
ENDBRANCH  22  25
BRANCH  21  27
ATOM     27  C   UNL     1      -3.812   3.769  -0.734  0.00  0.00    +0.343 C 
ATOM     28  O   UNL     1      -3.649   2.591  -0.981  0.00  0.00    -0.245 OA
BRANCH  27  29
ATOM     29  O   UNL     1      -4.163   4.622  -1.716  0.00  0.00    -0.464 OA
ATOM     30  C   UNL     1      -4.331   4.063  -3.045  0.00  0.00    +0.280 C 
ENDBRANCH  27  29
ENDBRANCH  21  27
ENDBRANCH   1  20
TORSDOF 5
