REMARK  Name = ZINC34787008
REMARK  11 active torsions:
REMARK  status: ('A' for Active; 'I' for Inactive)
REMARK    1  A    between atoms: C_1  and  C_2
REMARK    2  A    between atoms: C_2  and  N_3
REMARK    3  A    between atoms: N_3  and  C_4
REMARK    4  A    between atoms: N_3  and  N_6
REMARK    5  A    between atoms: C_4  and  C_5
REMARK    6  A    between atoms: N_6  and  N_25
REMARK    7  A    between atoms: C_9  and  C_24
REMARK    8  A    between atoms: C_10  and  C_23
REMARK    9  A    between atoms: C_17  and  C_22
REMARK   10  A    between atoms: C_19  and  C_21
REMARK   11  A    between atoms: N_25  and  C_26
REMARK                            x       y       z     vdW  Elec       q    Type
REMARK                         _______ _______ _______ _____ _____    ______ ____
ROOT
ATOM      1  N   UNL     1       2.561  -0.158   1.157  0.00  0.00    -0.164 N 
ATOM      2  C   UNL     1       2.867   0.533   2.316  0.00  0.00    +0.167 A 
ATOM      3  C   UNL     1       3.578  -0.108   3.369  0.00  0.00    +0.054 A 
ATOM      4  C   UNL     1       4.081  -1.468   3.455  0.00  0.00    -0.028 A 
ATOM      5  C   UNL     1       4.731  -1.857   4.562  0.00  0.00    -0.008 A 
ATOM      6  S   UNL     1       4.715  -0.399   5.588  0.00  0.00    -0.073 S 
ATOM      7  C   UNL     1       3.836   0.693   4.503  0.00  0.00    +0.116 A 
ATOM      8  N   UNL     1       3.437   1.949   4.564  0.00  0.00    -0.203 NA
ATOM      9  C   UNL     1       2.779   2.492   3.551  0.00  0.00    +0.254 A 
ATOM     10  N   UNL     1       2.508   1.798   2.454  0.00  0.00    -0.192 NA
ATOM     11  N   UNL     1       2.367   3.822   3.639  0.00  0.00    -0.202 N 
ATOM     12  C   UNL     1       2.579   4.659   4.688  0.00  0.00    +0.045 A 
ATOM     13  C   UNL     1       2.026   5.853   4.377  0.00  0.00    +0.048 A 
ATOM     14  C   UNL     1       1.458   5.747   3.102  0.00  0.00    +0.061 A 
ATOM     15  N   UNL     1       1.666   4.535   2.657  0.00  0.00    -0.169 NA
ATOM     16  C   UNL     1       0.735   6.845   2.365  0.00  0.00    +0.067 C 
ATOM     17  C   UNL     1       3.300   4.318   5.967  0.00  0.00    +0.066 C 
ATOM     18  C   UNL     1       5.332  -3.205   4.865  0.00  0.00    +0.052 C 
ATOM     19  C   UNL     1       3.875  -2.431   2.314  0.00  0.00    +0.045 C 
ENDROOT
BRANCH   1  20
ATOM     20  N   UNL     1       3.572  -0.817   0.446  0.00  0.00    -0.248 N 
ATOM     21  H   UNL     1       3.569  -1.785   0.384  0.00  0.00    +0.172 HD
BRANCH  20  22
ATOM     22  C   UNL     1       4.582  -0.082  -0.171  0.00  0.00    +0.054 A 
ATOM     23  C   UNL     1       4.656   1.283   0.006  0.00  0.00    +0.025 A 
ATOM     24  C   UNL     1       5.661   2.027  -0.606  0.00  0.00    +0.002 A 
ATOM     25  C   UNL     1       6.596   1.429  -1.395  0.00  0.00    +0.008 A 
ATOM     26  C   UNL     1       6.556   0.040  -1.601  0.00  0.00    -0.016 A 
ATOM     27  C   UNL     1       5.541  -0.729  -0.979  0.00  0.00    +0.004 A 
ATOM     28  C   UNL     1       5.505  -2.117  -1.183  0.00  0.00    +0.010 A 
ATOM     29  C   UNL     1       6.447  -2.708  -1.969  0.00  0.00    +0.001 A 
ATOM     30  C   UNL     1       7.449  -1.954  -2.577  0.00  0.00    +0.001 A 
ATOM     31  C   UNL     1       7.508  -0.604  -2.411  0.00  0.00    +0.008 A 
ENDBRANCH  20  22
ENDBRANCH   1  20
BRANCH   1  32
ATOM     32  N   UNL     1       1.272  -0.198   0.707  0.00  0.00    -0.209 NA
BRANCH  32  34
ATOM     33  C   UNL     1       1.560   1.721  -0.787  0.00  0.00    +0.022 C 
ATOM     34  C   UNL     1       1.189   0.239  -0.693  0.00  0.00    +0.104 C 
ENDBRANCH  32  34
BRANCH  32  35
ATOM     35  C   UNL     1       0.697  -1.540   0.874  0.00  0.00    +0.104 C 
ATOM     36  C   UNL     1       0.586  -1.865   2.365  0.00  0.00    +0.022 C 
ENDBRANCH  32  35
ENDBRANCH   1  32
TORSDOF 5
