REMARK  Name = ZINC40036354
REMARK  11 active torsions:
REMARK  status: ('A' for Active; 'I' for Inactive)
REMARK    1  A    between atoms: C_1  and  C_2
REMARK    2  A    between atoms: C_2  and  C_3
REMARK    3  A    between atoms: C_3  and  C_4
REMARK    4  A    between atoms: C_4  and  C_35
REMARK    5  A    between atoms: N_16  and  C_33
REMARK    6  A    between atoms: N_19  and  N_20
REMARK    7  A    between atoms: C_21  and  C_22
REMARK    8  A    between atoms: C_25  and  O_28
REMARK    9  A    between atoms: O_28  and  C_29
REMARK   10  A    between atoms: C_29  and  C_30
REMARK   11  A    between atoms: C_33  and  C_34
REMARK                            x       y       z     vdW  Elec       q    Type
REMARK                         _______ _______ _______ _____ _____    ______ ____
ROOT
ATOM      1  C   UNL     1       0.739  -2.027  -1.265  0.00  0.00    +0.004 C 
ATOM      2  C   UNL     1       1.309  -2.190  -2.672  0.00  0.00    +0.047 C 
ATOM      3  C   UNL     1       2.782  -1.886  -2.684  0.00  0.00    -0.037 A 
ATOM      4  C   UNL     1       3.359  -1.265  -3.773  0.00  0.00    +0.004 A 
ATOM      5  C   UNL     1       4.715  -0.993  -3.778  0.00  0.00    +0.000 A 
ATOM      6  C   UNL     1       5.503  -1.340  -2.695  0.00  0.00    +0.001 A 
ATOM      7  C   UNL     1       4.939  -1.960  -1.599  0.00  0.00    +0.010 A 
ATOM      8  C   UNL     1       3.574  -2.234  -1.589  0.00  0.00    +0.004 A 
ATOM      9  C   UNL     1       2.938  -2.889  -0.424  0.00  0.00    +0.084 A 
ATOM     10  C   UNL     1       1.562  -2.793  -0.269  0.00  0.00    +0.049 A 
ATOM     11  C   UNL     1       0.961  -3.421   0.830  0.00  0.00    +0.260 A 
ATOM     12  O   UNL     1      -0.246  -3.361   0.999  0.00  0.00    -0.267 OA
ATOM     13  N   UNL     1       1.746  -4.094   1.699  0.00  0.00    -0.280 N 
ATOM     14  C   UNL     1       3.093  -4.154   1.503  0.00  0.00    +0.219 A 
ATOM     15  N   UNL     1       3.665  -3.566   0.471  0.00  0.00    -0.214 NA
ATOM     16  N   UNL     1       3.871  -4.839   2.399  0.00  0.00    -0.206 N 
ATOM     17  C   UNL     1      -0.698  -2.551  -1.240  0.00  0.00    +0.017 C 
ATOM     18  H   UNL     1       3.461  -5.275   3.162  0.00  0.00    +0.177 HD
ENDROOT
BRANCH  16  19
ATOM     19  N   UNL     1       5.257  -4.910   2.213  0.00  0.00    -0.188 NA
ATOM     20  C   UNL     1       5.994  -5.559   3.062  0.00  0.00    +0.138 C 
BRANCH  20  21
ATOM     21  C   UNL     1       7.453  -5.633   2.866  0.00  0.00    -0.005 A 
ATOM     22  C   UNL     1       8.046  -5.001   1.770  0.00  0.00    +0.013 A 
ATOM     23  C   UNL     1       9.411  -5.072   1.591  0.00  0.00    +0.046 A 
ATOM     24  C   UNL     1      10.197  -5.772   2.498  0.00  0.00    +0.121 A 
ATOM     25  C   UNL     1       9.611  -6.403   3.588  0.00  0.00    +0.046 A 
ATOM     26  C   UNL     1       8.248  -6.332   3.778  0.00  0.00    +0.013 A 
BRANCH  24  27
ATOM     27  O   UNL     1      11.541  -5.841   2.317  0.00  0.00    -0.483 OA
BRANCH  27  28
ATOM     28  C   UNL     1      12.290  -6.577   3.287  0.00  0.00    +0.324 C 
BRANCH  28  29
ATOM     29  C   UNL     1      13.752  -6.543   2.924  0.00  0.00    +0.248 C 
ATOM     30  O   UNL     1      14.117  -5.947   1.933  0.00  0.00    -0.272 OA
ATOM     31  N   UNL     1      14.654  -7.174   3.702  0.00  0.00    -0.327 N 
ATOM     32  H   UNL     1      14.361  -7.651   4.495  0.00  0.00    +0.145 HD
ATOM     33  H   UNL     1      15.595  -7.153   3.469  0.00  0.00    +0.145 HD
ENDBRANCH  28  29
ENDBRANCH  27  28
ENDBRANCH  24  27
ENDBRANCH  20  21
ENDBRANCH  16  19
BRANCH  13  34
ATOM     34  C   UNL     1       1.147  -4.764   2.855  0.00  0.00    +0.125 C 
ATOM     35  C   UNL     1       0.773  -6.199   2.477  0.00  0.00    +0.027 C 
ENDBRANCH  13  34
BRANCH   1  36
ATOM     36  C   UNL     1       0.742  -0.544  -0.888  0.00  0.00    +0.011 C 
BRANCH  36  38
ATOM     37  C   UNL     1       0.148   1.110   0.887  0.00  0.00    +0.004 C 
ATOM     38  C   UNL     1       0.145  -0.372   0.510  0.00  0.00    -0.003 C 
ENDBRANCH  36  38
ENDBRANCH   1  36
TORSDOF 8
