REMARK  Name = ZINC29713262
REMARK  13 active torsions:
REMARK  status: ('A' for Active; 'I' for Inactive)
REMARK    1  A    between atoms: C_1  and  C_2
REMARK    2  A    between atoms: C_5  and  C_7
REMARK    3  A    between atoms: C_9  and  C_12
REMARK    4  A    between atoms: C_12  and  N_13
REMARK    5  A    between atoms: N_13  and  C_14
REMARK    6  A    between atoms: N_13  and  C_19
REMARK    7  A    between atoms: C_14  and  C_15
REMARK    8  A    between atoms: C_15  and  C_16
REMARK    9  A    between atoms: C_16  and  C_17
REMARK   10  A    between atoms: C_16  and  C_18
REMARK   11  A    between atoms: C_20  and  N_35
REMARK   12  A    between atoms: N_21  and  C_28
REMARK   13  A    between atoms: C_28  and  C_29
REMARK                            x       y       z     vdW  Elec       q    Type
REMARK                         _______ _______ _______ _____ _____    ______ ____
ROOT
ATOM      1  C   UNL     1       1.197   2.054   0.002  0.00  0.00    +0.134 A 
ATOM      2  C   UNL     1       2.375   1.357  -0.014  0.00  0.00    +0.127 A 
ATOM      3  N   UNL     1       2.345  -0.019  -0.021  0.00  0.00    -0.276 N 
ATOM      4  C   UNL     1       1.169  -0.673  -0.013  0.00  0.00    +0.331 A 
ATOM      5  O   UNL     1       1.161  -1.889  -0.020  0.00  0.00    -0.246 OA
ATOM      6  N   UNL     1       0.002  -0.004   0.002  0.00  0.00    -0.273 N 
ATOM      7  H   UNL     1      -0.949  -0.557   0.009  0.00  0.00    +0.173 HD
ATOM      8  C   UNL     1      -0.016   1.343   0.009  0.00  0.00    +0.277 A 
ATOM      9  O   UNL     1      -1.079   1.942   0.018  0.00  0.00    -0.266 OA
ENDROOT
BRANCH   2  10
ATOM     10  N   UNL     1       3.578   2.026  -0.023  0.00  0.00    -0.343 N 
ATOM     11  H   UNL     1       4.521   1.460  -0.035  0.00  0.00    +0.144 HD
ATOM     12  H   UNL     1       3.596   3.126  -0.017  0.00  0.00    +0.144 HD
ENDBRANCH   2  10
BRANCH   1  13
ATOM     13  N   UNL     1       1.200   3.469   0.009  0.00  0.00    -0.317 N 
BRANCH  13  14
ATOM     14  C   UNL     1       0.588   4.003  -1.215  0.00  0.00    +0.161 C 
BRANCH  14  17
ATOM     15  C   UNL     1       0.203   7.630  -0.722  0.00  0.00    +0.144 A 
ATOM     16  N   UNL     1       0.015   6.316  -0.672  0.00  0.00    -0.239 NA
ATOM     17  C   UNL     1       0.826   5.489  -1.289  0.00  0.00    +0.066 A 
ATOM     18  C   UNL     1       1.885   5.974  -1.990  0.00  0.00    +0.072 A 
ATOM     19  S   UNL     1       1.671   7.732  -1.738  0.00  0.00    -0.072 S 
BRANCH  15  24
ATOM     20  C   UNL     1      -3.348  10.005   1.901  0.00  0.00    +0.086 C 
ATOM     21  C   UNL     1      -2.135   9.756   1.041  0.00  0.00    +0.103 A 
ATOM     22  C   UNL     1      -1.324  10.706   0.534  0.00  0.00    +0.045 A 
ATOM     23  C   UNL     1      -0.324  10.044  -0.204  0.00  0.00    +0.052 A 
ATOM     24  C   UNL     1      -0.583   8.710  -0.107  0.00  0.00    +0.160 A 
ATOM     25  O   UNL     1      -1.689   8.553   0.648  0.00  0.00    -0.458 OA
ENDBRANCH  15  24
ENDBRANCH  14  17
ENDBRANCH  13  14
BRANCH  13  26
ATOM     26  C   UNL     1       0.527   3.991   1.206  0.00  0.00    +0.106 C 
BRANCH  26  27
ATOM     27  C   UNL     1       1.385   3.705   2.439  0.00  0.00    +0.022 C 
BRANCH  27  28
ATOM     28  C   UNL     1       0.684   4.248   3.686  0.00  0.00    -0.016 C 
ATOM     29  C   UNL     1      -0.620   3.481   3.913  0.00  0.00    +0.007 C 
ATOM     30  C   UNL     1       1.597   4.074   4.901  0.00  0.00    +0.007 C 
ENDBRANCH  27  28
ENDBRANCH  26  27
ENDBRANCH  13  26
ENDBRANCH   1  13
BRANCH   3  31
ATOM     31  C   UNL     1       3.599  -0.775  -0.037  0.00  0.00    +0.163 C 
BRANCH  31  32
ATOM     32  C   UNL     1       4.016  -1.026  -1.464  0.00  0.00    -0.028 A 
ATOM     33  C   UNL     1       3.593  -2.169  -2.116  0.00  0.00    +0.005 A 
ATOM     34  C   UNL     1       3.971  -2.397  -3.426  0.00  0.00    +0.000 A 
ATOM     35  C   UNL     1       4.780  -1.487  -4.080  0.00  0.00    +0.000 A 
ATOM     36  C   UNL     1       5.207  -0.346  -3.426  0.00  0.00    +0.000 A 
ATOM     37  C   UNL     1       4.824  -0.116  -2.118  0.00  0.00    +0.005 A 
ENDBRANCH  31  32
ENDBRANCH   3  31
TORSDOF 10
