REMARK  Name = ZINC44987859
REMARK  5 active torsions:
REMARK  status: ('A' for Active; 'I' for Inactive)
REMARK    1  A    between atoms: C_1  and  C_2
REMARK    2  A    between atoms: C_4  and  C_7
REMARK    3  A    between atoms: C_7  and  N_8
REMARK    4  A    between atoms: N_8  and  C_9
REMARK    5  A    between atoms: C_14  and  N_15
REMARK                            x       y       z     vdW  Elec       q    Type
REMARK                         _______ _______ _______ _____ _____    ______ ____
ROOT
ATOM      1  C   UNL     1       1.689  -4.634  -2.878  0.00  0.00    +0.049 A 
ATOM      2  C   UNL     1       0.644  -5.347  -3.445  0.00  0.00    +0.026 A 
ATOM      3  C   UNL     1       0.908  -6.400  -4.301  0.00  0.00    +0.017 A 
ATOM      4  C   UNL     1       2.215  -6.746  -4.594  0.00  0.00    +0.020 A 
ATOM      5  C   UNL     1       3.264  -6.040  -4.032  0.00  0.00    +0.039 A 
ATOM      6  C   UNL     1       3.007  -4.979  -3.177  0.00  0.00    +0.047 A 
ATOM      7 BR   UNL     1       2.569  -8.188  -5.765  0.00  0.00    -0.050 Br
ENDROOT
BRANCH   6   8
ATOM      8  N   UNL     1       4.067  -4.260  -2.612  0.00  0.00    -0.357 N 
ATOM      9  H   UNL     1       3.885  -3.521  -2.011  0.00  0.00    +0.142 HD
ATOM     10  H   UNL     1       4.983  -4.502  -2.821  0.00  0.00    +0.142 HD
ENDBRANCH   6   8
BRANCH   1  11
ATOM     11  N   UNL     1       1.423  -3.567  -2.011  0.00  0.00    -0.334 N 
ATOM     12  H   UNL     1       2.155  -3.067  -1.618  0.00  0.00    +0.147 HD
BRANCH  11  13
ATOM     13  C   UNL     1       0.038  -3.206  -1.697  0.00  0.00    +0.200 C 
BRANCH  13  17
ATOM     14  C   UNL     1      -0.018   1.503   0.010  0.00  0.00    +0.091 C 
ATOM     15  C   UNL     1       0.002  -0.004   0.002  0.00  0.00    +0.169 A 
ATOM     16  N   UNL     1       0.008  -0.776  -1.091  0.00  0.00    -0.195 NA
ATOM     17  C   UNL     1       0.026  -2.034  -0.750  0.00  0.00    +0.244 A 
ATOM     18  O   UNL     1       0.033  -2.107   0.587  0.00  0.00    -0.336 OA
ATOM     19  N   UNL     1       0.023  -0.767   1.057  0.00  0.00    -0.062 NA
ENDBRANCH  13  17
ENDBRANCH  11  13
ENDBRANCH   1  11
TORSDOF 4
