REMARK  Name = ZINC45458719
REMARK  10 active torsions:
REMARK  status: ('A' for Active; 'I' for Inactive)
REMARK    1  A    between atoms: C_1  and  C_2
REMARK    2  A    between atoms: C_2  and  C_4
REMARK    3  A    between atoms: C_2  and  S_20
REMARK    4  A    between atoms: N_6  and  C_7
REMARK    5  A    between atoms: C_10  and  S_13
REMARK    6  A    between atoms: S_13  and  N_16
REMARK    7  A    between atoms: N_16  and  C_17
REMARK    8  A    between atoms: N_16  and  O_18
REMARK    9  A    between atoms: O_18  and  C_19
REMARK   10  A    between atoms: S_20  and  C_21
REMARK                            x       y       z     vdW  Elec       q    Type
REMARK                         _______ _______ _______ _____ _____    ______ ____
ROOT
ATOM      1  C   UNL     1      -0.884   0.578   2.636  0.00  0.00    +0.230 C 
ATOM      2  O   UNL     1      -1.198   1.181   3.640  0.00  0.00    -0.274 OA
ATOM      3  N   UNL     1       0.086  -0.358   2.687  0.00  0.00    -0.285 N 
ATOM      4  H   UNL     1       0.389  -0.787   1.871  0.00  0.00    +0.155 HD
ENDROOT
BRANCH   3   5
ATOM      5  C   UNL     1       0.655  -0.709   3.916  0.00  0.00    +0.034 A 
ATOM      6  C   UNL     1       1.993  -1.073   3.984  0.00  0.00    +0.025 A 
ATOM      7  C   UNL     1       2.552  -1.419   5.199  0.00  0.00    +0.030 A 
ATOM      8  C   UNL     1       1.780  -1.404   6.346  0.00  0.00    +0.108 A 
ATOM      9  C   UNL     1       0.447  -1.043   6.281  0.00  0.00    +0.030 A 
ATOM     10  C   UNL     1      -0.116  -0.690   5.070  0.00  0.00    +0.025 A 
BRANCH   8  11
ATOM     11  S   UNL     1       2.497  -1.847   7.894  0.00  0.00    +0.082 S 
ATOM     12  O   UNL     1       1.429  -2.280   8.726  0.00  0.00    -0.151 OA
ATOM     13  O   UNL     1       3.617  -2.670   7.602  0.00  0.00    -0.151 OA
BRANCH  11  14
ATOM     14  N   UNL     1       3.093  -0.459   8.572  0.00  0.00    -0.058 NA
ATOM     15  C   UNL     1       2.282   0.296   9.530  0.00  0.00    +0.166 C 
BRANCH  14  16
ATOM     16  O   UNL     1       4.388  -0.001   8.225  0.00  0.00    -0.280 OA
ATOM     17  C   UNL     1       4.410   0.884   7.104  0.00  0.00    +0.223 C 
ENDBRANCH  14  16
ENDBRANCH  11  14
ENDBRANCH   8  11
ENDBRANCH   3   5
BRANCH   1  19
ATOM     18  C   UNL     1      -2.725  -0.117   1.127  0.00  0.00    +0.029 C 
ATOM     19  C   UNL     1      -1.577   0.873   1.331  0.00  0.00    +0.134 C 
BRANCH  19  20
ATOM     20  S   UNL     1      -2.236   2.563   1.366  0.00  0.00    -0.113 S 
BRANCH  20  21
ATOM     21  C   UNL     1      -0.798   3.582   1.347  0.00  0.00    +0.009 A 
ATOM     22  C   UNL     1       0.458   3.010   1.181  0.00  0.00    +0.015 A 
ATOM     23  C   UNL     1       1.583   3.811   1.167  0.00  0.00    +0.001 A 
ATOM     24  C   UNL     1       1.461   5.180   1.317  0.00  0.00    +0.000 A 
ATOM     25  C   UNL     1       0.212   5.753   1.483  0.00  0.00    +0.001 A 
ATOM     26  C   UNL     1      -0.917   4.958   1.492  0.00  0.00    +0.015 A 
ENDBRANCH  20  21
ENDBRANCH  19  20
ENDBRANCH   1  19
TORSDOF 7
