REMARK  Name = ZINC63159566
REMARK  5 active torsions:
REMARK  status: ('A' for Active; 'I' for Inactive)
REMARK    1  A    between atoms: C_1  and  C_2
REMARK    2  A    between atoms: C_5  and  C_8
REMARK    3  A    between atoms: C_13  and  C_14
REMARK    4  A    between atoms: N_16  and  N_17
REMARK    5  A    between atoms: C_18  and  C_20
REMARK                            x       y       z     vdW  Elec       q    Type
REMARK                         _______ _______ _______ _____ _____    ______ ____
ROOT
ATOM      1  C   UNL     1       1.646   0.285  -3.936  0.00  0.00    +0.255 C 
ATOM      2  O   UNL     1       0.844   0.102  -4.834  0.00  0.00    -0.269 OA
ATOM      3  N   UNL     1       2.951   0.012  -4.131  0.00  0.00    -0.231 N 
ATOM      4  H   UNL     1       3.590   0.158  -3.416  0.00  0.00    +0.173 HD
ENDROOT
BRANCH   1  11
ATOM      5  C   UNL     1      -0.013   1.086   0.008  0.00  0.00    +0.044 C 
ATOM      6  C   UNL     1      -0.753   1.593  -1.232  0.00  0.00    +0.162 C 
ATOM      7  C   UNL     1      -0.099   1.056  -2.491  0.00  0.00    +0.040 C 
ATOM      8  N   UNL     1      -1.130   0.910  -3.390  0.00  0.00    -0.316 N 
ATOM      9  C   UNL     1      -2.343   0.649  -2.603  0.00  0.00    +0.242 C 
ATOM     10  O   UNL     1      -2.094   1.078  -1.257  0.00  0.00    -0.345 OA
ATOM     11  C   UNL     1       1.207   0.783  -2.687  0.00  0.00    +0.089 C 
ATOM     12  H   UNL     1      -1.069   0.969  -4.356  0.00  0.00    +0.149 HD
BRANCH   9  13
ATOM     13  C   UNL     1      -2.655  -0.825  -2.620  0.00  0.00    +0.036 A 
ATOM     14  C   UNL     1      -3.859  -1.444  -2.544  0.00  0.00    +0.015 A 
ATOM     15  C   UNL     1      -3.906  -2.825  -2.580  0.00  0.00    +0.008 A 
ATOM     16  C   UNL     1      -2.747  -3.520  -2.691  0.00  0.00    +0.045 A 
ATOM     17  S   UNL     1      -1.536  -2.210  -2.754  0.00  0.00    -0.097 S 
ENDBRANCH   9  13
ENDBRANCH   1  11
BRANCH   3  18
ATOM     18  N   UNL     1       3.386  -0.482  -5.368  0.00  0.00    -0.230 N 
ATOM     19  C   UNL     1       4.691  -0.755  -5.564  0.00  0.00    +0.258 C 
ATOM     20  O   UNL     1       5.492  -0.572  -4.667  0.00  0.00    -0.269 OA
ATOM     21  H   UNL     1       2.747  -0.627  -6.084  0.00  0.00    +0.173 HD
BRANCH  19  22
ATOM     22  C   UNL     1       5.146  -1.272  -6.859  0.00  0.00    +0.044 C 
ATOM     23  C   UNL     1       6.434  -1.604  -7.217  0.00  0.00    +0.008 A 
ATOM     24  C   UNL     1       7.668  -1.565  -6.519  0.00  0.00    +0.010 A 
ATOM     25  C   UNL     1       8.807  -1.958  -7.129  0.00  0.00    +0.001 A 
ATOM     26  C   UNL     1       8.832  -2.416  -8.457  0.00  0.00    +0.002 A 
ATOM     27  C   UNL     1       7.713  -2.491  -9.209  0.00  0.00    +0.026 A 
ATOM     28  C   UNL     1       6.427  -2.083  -8.621  0.00  0.00    +0.043 A 
ATOM     29  N   UNL     1       5.218  -2.053  -9.107  0.00  0.00    -0.380 N 
ATOM     30  C   UNL     1       4.297  -1.558  -8.078  0.00  0.00    +0.154 C 
ATOM     31  H   UNL     1       4.967  -2.319 -10.005  0.00  0.00    +0.160 HD
ENDBRANCH  19  22
ENDBRANCH   3  18
TORSDOF 4
