REMARK  Name = ZINC39345058
REMARK  7 active torsions:
REMARK  status: ('A' for Active; 'I' for Inactive)
REMARK    1  A    between atoms: C_1  and  C_2
REMARK    2  A    between atoms: C_7  and  C_9
REMARK    3  A    between atoms: C_7  and  C_10
REMARK    4  A    between atoms: N_11  and  C_13
REMARK    5  A    between atoms: C_13  and  C_14
REMARK    6  A    between atoms: C_15  and  O_34
REMARK    7  A    between atoms: C_23  and  C_25
REMARK                            x       y       z     vdW  Elec       q    Type
REMARK                         _______ _______ _______ _____ _____    ______ ____
ROOT
ATOM      1  C   UNL     1      -3.552  -2.484  -0.377  0.00  0.00    +0.020 A 
ATOM      2  C   UNL     1      -4.483  -2.691  -1.383  0.00  0.00    +0.122 A 
ATOM      3  C   UNL     1      -5.818  -2.340  -1.193  0.00  0.00    +0.046 A 
ATOM      4  C   UNL     1      -6.225  -1.776  -0.019  0.00  0.00    +0.015 A 
ATOM      5  C   UNL     1      -5.293  -1.536   1.001  0.00  0.00    +0.019 A 
ATOM      6  C   UNL     1      -3.950  -1.925   0.826  0.00  0.00    +0.144 A 
ATOM      7  O   UNL     1      -3.060  -1.766   1.835  0.00  0.00    -0.421 OA
ATOM      8  C   UNL     1      -3.311  -0.775   2.722  0.00  0.00    +0.347 A 
ATOM      9  O   UNL     1      -2.410  -0.097   3.179  0.00  0.00    -0.244 OA
ATOM     10  C   UNL     1      -4.712  -0.546   3.115  0.00  0.00    +0.092 A 
ATOM     11  C   UNL     1      -5.695  -0.919   2.213  0.00  0.00    +0.029 A 
ENDROOT
BRANCH  10  12
ATOM     12  C   UNL     1      -5.054   0.068   4.411  0.00  0.00    +0.116 A 
ATOM     13  N   UNL     1      -6.242   0.334   4.912  0.00  0.00    -0.239 NA
ATOM     14  C   UNL     1      -6.407   0.902   6.122  0.00  0.00    +0.079 A 
ATOM     15  C   UNL     1      -7.619   1.239   6.772  0.00  0.00    +0.029 A 
ATOM     16  C   UNL     1      -7.612   1.814   8.004  0.00  0.00    +0.002 A 
ATOM     17  C   UNL     1      -6.428   2.093   8.672  0.00  0.00    +0.001 A 
ATOM     18  C   UNL     1      -5.222   1.780   8.072  0.00  0.00    +0.017 A 
ATOM     19  C   UNL     1      -5.217   1.199   6.828  0.00  0.00    +0.040 A 
ATOM     20  S   UNL     1      -3.960   0.633   5.707  0.00  0.00    -0.067 S 
ENDBRANCH  10  12
BRANCH   2  21
ATOM     21  O   UNL     1      -4.092  -3.239  -2.562  0.00  0.00    -0.506 OA
ATOM     22  H   UNL     1      -4.217  -4.196  -2.611  0.00  0.00    +0.292 HD
ENDBRANCH   2  21
BRANCH   1  23
ATOM     23  C   UNL     1      -2.111  -2.873  -0.590  0.00  0.00    -0.035 C 
BRANCH  23  33
ATOM     24  C   UNL     1       0.035   1.533  -0.965  0.00  0.00    +0.009 C 
ATOM     25  C   UNL     1       0.057   0.015  -0.736  0.00  0.00    -0.048 C 
ATOM     26  C   UNL     1       0.594  -0.762  -1.969  0.00  0.00    -0.011 C 
ATOM     27  C   UNL     1      -0.036  -2.155  -1.684  0.00  0.00    -0.067 C 
ATOM     28  C   UNL     1       0.733  -2.783  -0.537  0.00  0.00    -0.009 C 
ATOM     29  C   UNL     1       1.086  -1.888   0.630  0.00  0.00    -0.036 C 
ATOM     30  C   UNL     1       0.936  -0.391   0.448  0.00  0.00    +0.011 C 
ATOM     31  C   UNL     1       2.575  -2.154   0.973  0.00  0.00    +0.011 C 
ATOM     32  C   UNL     1       0.283  -2.326   1.870  0.00  0.00    +0.011 C 
ATOM     33  N   UNL     1      -1.423  -1.810  -1.311  0.00  0.00    +0.385 N 
ATOM     34  C   UNL     1      -1.358  -0.568  -0.519  0.00  0.00    -0.071 C 
ATOM     35  H   UNL     1      -1.942  -1.609  -2.168  0.00  0.00    -0.081 HD
ENDBRANCH  23  33
ENDBRANCH   1  23
TORSDOF 4
