REMARK  Name = ZINC64228143
REMARK  11 active torsions:
REMARK  status: ('A' for Active; 'I' for Inactive)
REMARK    1  A    between atoms: C_1  and  C_2
REMARK    2  A    between atoms: C_2  and  C_3
REMARK    3  A    between atoms: C_2  and  C_4
REMARK    4  A    between atoms: C_7  and  C_10
REMARK    5  A    between atoms: N_28  and  C_31
REMARK    6  A    between atoms: C_31  and  C_32
REMARK    7  A    between atoms: C_32  and  C_33
REMARK    8  A    between atoms: C_36  and  O_41
REMARK    9  A    between atoms: C_37  and  O_39
REMARK   10  A    between atoms: O_39  and  C_40
REMARK   11  A    between atoms: O_41  and  C_42
REMARK                            x       y       z     vdW  Elec       q    Type
REMARK                         _______ _______ _______ _____ _____    ______ ____
ROOT
ATOM      1  C   UNL     1      -5.419  -2.005   0.043  0.00  0.00    +0.135 C 
ATOM      2  C   UNL     1      -6.322  -1.093  -0.801  0.00  0.00    +0.131 C 
ATOM      3  C   UNL     1      -5.987  -1.363  -2.261  0.00  0.00    -0.034 C 
ATOM      4  C   UNL     1      -5.638  -0.193  -2.787  0.00  0.00    -0.001 A 
ATOM      5  C   UNL     1      -5.272   0.192  -4.160  0.00  0.00    +0.010 A 
ATOM      6  C   UNL     1      -4.955   1.500  -4.351  0.00  0.00    +0.001 A 
ATOM      7  C   UNL     1      -4.965   2.451  -3.326  0.00  0.00    +0.002 A 
ATOM      8  C   UNL     1      -5.293   2.186  -2.036  0.00  0.00    +0.026 A 
ATOM      9  C   UNL     1      -5.649   0.844  -1.712  0.00  0.00    +0.043 A 
ATOM     10  N   UNL     1      -6.027   0.321  -0.560  0.00  0.00    -0.375 N 
ATOM     11  C   UNL     1      -6.010  -2.744  -2.875  0.00  0.00    +0.065 C 
ATOM     12  C   UNL     1      -5.132  -3.635  -1.979  0.00  0.00    +0.169 C 
ATOM     13  N   UNL     1      -5.466  -3.339  -0.569  0.00  0.00    -0.264 N 
ATOM     14  C   UNL     1      -5.828  -4.497  -0.003  0.00  0.00    +0.312 C 
ATOM     15  O   UNL     1      -6.056  -4.630   1.184  0.00  0.00    -0.252 OA
ATOM     16  N   UNL     1      -5.911  -5.492  -0.896  0.00  0.00    -0.224 N 
ATOM     17  C   UNL     1      -5.525  -5.086  -2.152  0.00  0.00    +0.244 C 
ATOM     18  O   UNL     1      -5.504  -5.733  -3.177  0.00  0.00    -0.273 OA
ATOM     19  H   UNL     1      -6.096   0.778   0.293  0.00  0.00    +0.160 HD
ENDROOT
BRANCH   1  23
ATOM     20  C   UNL     1      -1.412  -0.526   0.012  0.00  0.00    -0.045 A 
ATOM     21  C   UNL     1      -2.141  -0.521   1.186  0.00  0.00    +0.004 A 
ATOM     22  C   UNL     1      -3.438  -1.000   1.196  0.00  0.00    +0.006 A 
ATOM     23  C   UNL     1      -4.006  -1.482   0.032  0.00  0.00    -0.025 A 
ATOM     24  C   UNL     1      -3.277  -1.486  -1.142  0.00  0.00    +0.006 A 
ATOM     25  C   UNL     1      -1.981  -1.004  -1.153  0.00  0.00    +0.004 A 
BRANCH  20  27
ATOM     26  C   UNL     1       0.009   1.461   0.441  0.00  0.00    +0.012 C 
ATOM     27  C   UNL     1       0.002  -0.004   0.001  0.00  0.00    +0.013 C 
ATOM     28  C   UNL     1       0.858  -0.830   0.964  0.00  0.00    +0.012 C 
ENDBRANCH  20  27
ENDBRANCH   1  23
BRANCH  16  29
ATOM     29  C   UNL     1      -6.350  -6.853  -0.575  0.00  0.00    +0.122 C 
BRANCH  29  30
ATOM     30  C   UNL     1      -7.867  -6.954  -0.752  0.00  0.00    +0.055 C 
BRANCH  30  31
ATOM     31  C   UNL     1      -8.318  -8.353  -0.421  0.00  0.00    -0.042 A 
ATOM     32  C   UNL     1      -8.365  -9.316  -1.413  0.00  0.00    +0.007 A 
ATOM     33  C   UNL     1      -8.778 -10.601  -1.115  0.00  0.00    +0.049 A 
ATOM     34  C   UNL     1      -9.147 -10.927   0.181  0.00  0.00    +0.161 A 
ATOM     35  C   UNL     1      -9.100  -9.958   1.179  0.00  0.00    +0.162 A 
ATOM     36  C   UNL     1      -8.680  -8.674   0.874  0.00  0.00    +0.053 A 
BRANCH  35  37
ATOM     37  O   UNL     1      -9.461 -10.274   2.452  0.00  0.00    -0.491 OA
ATOM     38  C   UNL     1      -9.387  -9.229   3.424  0.00  0.00    +0.277 C 
ENDBRANCH  35  37
BRANCH  34  39
ATOM     39  O   UNL     1      -9.555 -12.190   0.476  0.00  0.00    -0.491 OA
ATOM     40  C   UNL     1      -9.579 -13.132  -0.599  0.00  0.00    +0.277 C 
ENDBRANCH  34  39
ENDBRANCH  30  31
ENDBRANCH  29  30
ENDBRANCH  16  29
TORSDOF 7
