REMARK  Name = ZINC00249228
REMARK  4 active torsions:
REMARK  status: ('A' for Active; 'I' for Inactive)
REMARK    1  A    between atoms: C_1  and  C_2
REMARK    2  A    between atoms: C_3  and  C_15
REMARK    3  A    between atoms: C_6  and  N_8
REMARK    4  A    between atoms: C_9  and  C_10
REMARK                            x       y       z     vdW  Elec       q    Type
REMARK                         _______ _______ _______ _____ _____    ______ ____
ROOT
ATOM      1  C   UNL     1      -0.162   1.391  -0.782  0.00  0.00    +0.053 C 
ATOM      2  C   UNL     1      -0.066  -0.057  -0.375  0.00  0.00    +0.013 C 
ATOM      3  C   UNL     1      -1.140  -0.687   0.104  0.00  0.00    +0.065 C 
ATOM      4  N   UNL     1      -1.112  -2.031   0.495  0.00  0.00    -0.234 N 
ATOM      5  N   UNL     1       0.046  -2.721   0.828  0.00  0.00    -0.155 NA
ATOM      6  C   UNL     1       1.234  -2.358   0.451  0.00  0.00    +0.209 C 
ATOM      7  S   UNL     1       1.463  -0.918  -0.540  0.00  0.00    -0.051 S 
ATOM      8  H   UNL     1      -1.954  -2.511   0.535  0.00  0.00    +0.174 HD
ENDROOT
BRANCH   3   9
ATOM      9  C   UNL     1      -2.407   0.062   0.228  0.00  0.00    -0.002 A 
ATOM     10  C   UNL     1      -3.575  -0.434  -0.357  0.00  0.00    +0.011 A 
ATOM     11  C   UNL     1      -4.755   0.270  -0.237  0.00  0.00    +0.020 A 
ATOM     12  C   UNL     1      -4.783   1.466   0.462  0.00  0.00    +0.041 A 
ATOM     13  C   UNL     1      -3.629   1.963   1.044  0.00  0.00    +0.020 A 
ATOM     14  C   UNL     1      -2.444   1.266   0.936  0.00  0.00    +0.011 A 
ATOM     15 CL   UNL     1      -6.272   2.346   0.608  0.00  0.00    -0.084 Cl
ENDBRANCH   3   9
BRANCH   6  16
ATOM     16  N   UNL     1       2.304  -3.093   0.819  0.00  0.00    -0.225 NA
ATOM     17  C   UNL     1       2.141  -4.169   1.553  0.00  0.00    +0.159 C 
BRANCH  17  18
ATOM     18  C   UNL     1       3.263  -4.939   1.939  0.00  0.00    +0.146 A 
ATOM     19  C   UNL     1       3.237  -6.090   2.700  0.00  0.00    +0.051 A 
ATOM     20  C   UNL     1       4.569  -6.512   2.832  0.00  0.00    +0.042 A 
ATOM     21  C   UNL     1       5.338  -5.625   2.162  0.00  0.00    +0.196 A 
ATOM     22  O   UNL     1       4.550  -4.684   1.622  0.00  0.00    -0.462 OA
ENDBRANCH  17  18
ENDBRANCH   6  16
TORSDOF 3
