REMARK  Name = ZINC65021907
REMARK  7 active torsions:
REMARK  status: ('A' for Active; 'I' for Inactive)
REMARK    1  A    between atoms: C_1  and  C_2
REMARK    2  A    between atoms: C_2  and  O_3
REMARK    3  A    between atoms: O_3  and  C_4
REMARK    4  A    between atoms: C_9  and  N_10
REMARK    5  A    between atoms: N_10  and  S_11
REMARK    6  A    between atoms: S_11  and  C_14
REMARK    7  A    between atoms: C_23  and  C_26
REMARK                            x       y       z     vdW  Elec       q    Type
REMARK                         _______ _______ _______ _____ _____    ______ ____
ROOT
ATOM      1  C   UNL     1      -5.002  -2.106   2.495  0.00  0.00    +0.110 A 
ATOM      2  C   UNL     1      -4.510  -3.255   3.087  0.00  0.00    +0.030 A 
ATOM      3  C   UNL     1      -4.279  -3.283   4.451  0.00  0.00    +0.018 A 
ATOM      4  C   UNL     1      -4.538  -2.159   5.218  0.00  0.00    +0.030 A 
ATOM      5  C   UNL     1      -5.027  -0.994   4.627  0.00  0.00    +0.049 A 
ATOM      6  C   UNL     1      -5.255  -0.981   3.255  0.00  0.00    +0.053 A 
ATOM      7  N   UNL     1      -5.275   0.158   5.368  0.00  0.00    -0.283 N 
ATOM      8  C   UNL     1      -4.829   0.426   6.590  0.00  0.00    +0.240 C 
ATOM      9  O   UNL     1      -5.228   1.430   7.142  0.00  0.00    -0.274 OA
ATOM     10  C   UNL     1      -3.853  -0.455   7.325  0.00  0.00    +0.223 C 
ATOM     11  S   UNL     1      -4.256  -2.191   6.961  0.00  0.00    -0.101 S 
ATOM     12  H   UNL     1      -5.830   0.834   4.949  0.00  0.00    +0.155 HD
ENDROOT
BRANCH  10  13
ATOM     13  C   UNL     1      -2.450  -0.149   6.865  0.00  0.00    +0.238 C 
ATOM     14  O   UNL     1      -2.254   0.241   5.734  0.00  0.00    -0.274 OA
ATOM     15  N   UNL     1      -1.414  -0.310   7.711  0.00  0.00    -0.300 N 
ATOM     16  C   UNL     1      -1.680  -0.782   9.052  0.00  0.00    +0.108 C 
ATOM     17  C   UNL     1      -1.951   0.425   9.983  0.00  0.00    +0.019 C 
ATOM     18  C   UNL     1      -0.707   1.171  10.228  0.00  0.00    +0.002 C 
ATOM     19  C   UNL     1      -0.090   1.790   8.978  0.00  0.00    +0.002 C 
ATOM     20  C   UNL     1       0.773   0.764   8.285  0.00  0.00    +0.019 C 
ATOM     21  C   UNL     1      -0.053  -0.002   7.230  0.00  0.00    +0.108 C 
ENDBRANCH  10  13
BRANCH   1  22
ATOM     22  S   UNL     1      -5.300  -2.075   0.759  0.00  0.00    +0.073 S 
ATOM     23  O   UNL     1      -6.268  -1.060   0.531  0.00  0.00    -0.150 OA
ATOM     24  O   UNL     1      -5.500  -3.423   0.357  0.00  0.00    -0.150 OA
BRANCH  22  25
ATOM     25  N   UNL     1      -3.901  -1.567   0.031  0.00  0.00    -0.213 N 
ATOM     26  H   UNL     1      -3.899  -0.757  -0.502  0.00  0.00    +0.174 HD
BRANCH  25  32
ATOM     27  C   UNL     1      -1.495  -1.655   0.267  0.00  0.00    +0.143 A 
ATOM     28  C   UNL     1      -0.333  -2.392   0.425  0.00  0.00    +0.047 A 
ATOM     29  C   UNL     1      -0.393  -3.772   0.497  0.00  0.00    +0.004 A 
ATOM     30  C   UNL     1      -1.611  -4.420   0.411  0.00  0.00    +0.002 A 
ATOM     31  C   UNL     1      -2.776  -3.692   0.253  0.00  0.00    +0.028 A 
ATOM     32  C   UNL     1      -2.724  -2.307   0.186  0.00  0.00    +0.090 A 
BRANCH  27  33
ATOM     33  O   UNL     1      -1.437  -0.298   0.196  0.00  0.00    -0.490 OA
BRANCH  33  35
ATOM     34  C   UNL     1      -0.278   1.823   0.187  0.00  0.00    +0.048 C 
ATOM     35  C   UNL     1      -0.143   0.302   0.286  0.00  0.00    +0.226 C 
ENDBRANCH  33  35
ENDBRANCH  27  33
ENDBRANCH  25  32
ENDBRANCH  22  25
ENDBRANCH   1  22
TORSDOF 6
