REMARK  Name = ZINC42867090
REMARK  5 active torsions:
REMARK  status: ('A' for Active; 'I' for Inactive)
REMARK    1  A    between atoms: C_1  and  C_2
REMARK    2  A    between atoms: C_8  and  C_10
REMARK    3  A    between atoms: C_10  and  N_11
REMARK    4  A    between atoms: C_12  and  C_16
REMARK    5  A    between atoms: C_21  and  N_22
REMARK                            x       y       z     vdW  Elec       q    Type
REMARK                         _______ _______ _______ _____ _____    ______ ____
ROOT
ATOM      1  N   UNL     1       0.766  -0.699   3.595  0.00  0.00    -0.225 N 
ATOM      2  C   UNL     1       0.294  -1.723   4.350  0.00  0.00    +0.184 A 
ATOM      3  N   UNL     1       1.040  -1.778   5.434  0.00  0.00    -0.108 NA
ATOM      4  N   UNL     1       1.940  -0.863   5.408  0.00  0.00    -0.023 NA
ATOM      5  N   UNL     1       1.846  -0.171   4.324  0.00  0.00    -0.044 NA
ENDROOT
BRANCH   2   6
ATOM      6  C   UNL     1      -0.842  -2.608   4.018  0.00  0.00    +0.043 A 
ATOM      7  C   UNL     1      -2.055  -2.064   3.595  0.00  0.00    +0.033 A 
ATOM      8  C   UNL     1      -3.113  -2.895   3.287  0.00  0.00    +0.042 A 
ATOM      9  C   UNL     1      -2.976  -4.270   3.396  0.00  0.00    +0.022 A 
ATOM     10  C   UNL     1      -1.780  -4.821   3.814  0.00  0.00    +0.025 A 
ATOM     11  C   UNL     1      -0.705  -3.999   4.122  0.00  0.00    +0.035 A 
ATOM     12 CL   UNL     1      -4.621  -2.216   2.761  0.00  0.00    -0.084 Cl
BRANCH  11  13
ATOM     13  N   UNL     1       0.503  -4.554   4.538  0.00  0.00    -0.357 N 
ATOM     14  H   UNL     1       1.252  -3.977   4.756  0.00  0.00    +0.142 HD
ATOM     15  H   UNL     1       0.596  -5.517   4.609  0.00  0.00    +0.142 HD
ENDBRANCH  11  13
ENDBRANCH   2   6
BRANCH   1  16
ATOM     16  C   UNL     1       0.263  -0.245   2.296  0.00  0.00    +0.151 C 
BRANCH  16  23
ATOM     17  C   UNL     1       0.536   0.777  -0.436  0.00  0.00    +0.008 C 
ATOM     18  C   UNL     1       0.265  -0.704  -0.160  0.00  0.00    -0.009 C 
ATOM     19  C   UNL     1       0.886  -1.552  -1.272  0.00  0.00    +0.003 C 
ATOM     20  C   UNL     1       2.396  -1.309  -1.315  0.00  0.00    +0.000 C 
ATOM     21  C   UNL     1       3.014  -1.699   0.029  0.00  0.00    +0.000 C 
ATOM     22  C   UNL     1       2.393  -0.851   1.141  0.00  0.00    +0.005 C 
ATOM     23  C   UNL     1       0.883  -1.093   1.185  0.00  0.00    +0.013 C 
ENDBRANCH  16  23
ENDBRANCH   1  16
TORSDOF 4
