REMARK  Name = ZINC21370668
REMARK  7 active torsions:
REMARK  status: ('A' for Active; 'I' for Inactive)
REMARK    1  A    between atoms: C_4  and  C_7
REMARK    2  A    between atoms: C_15  and  C_18
REMARK    3  A    between atoms: C_18  and  O_19
REMARK    4  A    between atoms: O_19  and  C_20
REMARK    5  A    between atoms: C_20  and  C_22
REMARK    6  A    between atoms: C_24  and  S_29
REMARK    7  A    between atoms: S_29  and  N_32
REMARK                            x       y       z     vdW  Elec       q    Type
REMARK                         _______ _______ _______ _____ _____    ______ ____
ROOT
ATOM      1  C   UNL     1      -5.647  -2.797   8.801  0.00  0.00    +0.340 C 
ATOM      2  O   UNL     1      -5.602  -1.771   9.800  0.00  0.00    -0.333 OA
ATOM      3  C   UNL     1      -4.344  -1.091   9.848  0.00  0.00    +0.203 C 
ATOM      4  C   UNL     1      -3.943  -0.686   8.451  0.00  0.00    +0.023 A 
ATOM      5  C   UNL     1      -2.951   0.260   8.272  0.00  0.00    +0.047 A 
ATOM      6  C   UNL     1      -2.573   0.636   6.995  0.00  0.00    +0.124 A 
ATOM      7  C   UNL     1      -3.188   0.064   5.894  0.00  0.00    +0.049 A 
ATOM      8  C   UNL     1      -4.180  -0.881   6.070  0.00  0.00    +0.035 A 
ATOM      9  C   UNL     1      -4.565  -1.253   7.350  0.00  0.00    +0.136 A 
ATOM     10  O   UNL     1      -5.544  -2.184   7.513  0.00  0.00    -0.459 OA
ATOM     11  F   UNL     1      -1.604   1.561   6.822  0.00  0.00    -0.205 F 
ENDROOT
BRANCH   1  15
ATOM     12  C   UNL     1      -9.341  -4.923   9.096  0.00  0.00    +0.000 A 
ATOM     13  C   UNL     1      -8.470  -4.897  10.170  0.00  0.00    +0.000 A 
ATOM     14  C   UNL     1      -7.275  -4.208  10.075  0.00  0.00    +0.010 A 
ATOM     15  C   UNL     1      -6.950  -3.547   8.905  0.00  0.00    +0.020 A 
ATOM     16  C   UNL     1      -7.823  -3.569   7.833  0.00  0.00    +0.010 A 
ATOM     17  C   UNL     1      -9.016  -4.261   7.927  0.00  0.00    +0.000 A 
ENDBRANCH   1  15
BRANCH   8  18
ATOM     18  C   UNL     1      -4.848  -1.503   4.871  0.00  0.00    +0.271 C 
BRANCH  18  19
ATOM     19  O   UNL     1      -4.278  -0.948   3.656  0.00  0.00    -0.456 OA
BRANCH  19  20
ATOM     20  C   UNL     1      -4.769  -1.403   2.487  0.00  0.00    +0.341 C 
ATOM     21  O   UNL     1      -5.649  -2.240   2.482  0.00  0.00    -0.245 OA
BRANCH  20  22
ATOM     22  C   UNL     1      -4.237  -0.883   1.212  0.00  0.00    +0.079 A 
ATOM     23  C   UNL     1      -3.225   0.079   1.213  0.00  0.00    +0.045 A 
ATOM     24  C   UNL     1      -2.733   0.560   0.018  0.00  0.00    +0.106 A 
ATOM     25  C   UNL     1      -3.242   0.095  -1.182  0.00  0.00    +0.030 A 
ATOM     26  C   UNL     1      -4.241  -0.862  -1.193  0.00  0.00    +0.023 A 
ATOM     27  C   UNL     1      -4.744  -1.353  -0.003  0.00  0.00    +0.055 A 
ATOM     28 CL   UNL     1      -6.001  -2.549  -0.018  0.00  0.00    -0.083 Cl
BRANCH  24  29
ATOM     29  S   UNL     1      -1.456   1.774   0.019  0.00  0.00    +0.056 S 
ATOM     30  O   UNL     1      -1.536   2.446   1.268  0.00  0.00    -0.153 OA
ATOM     31  O   UNL     1      -1.548   2.460  -1.223  0.00  0.00    -0.153 OA
BRANCH  29  32
ATOM     32  N   UNL     1      -0.011   0.966   0.007  0.00  0.00    -0.204 NA
ATOM     33  H   UNL     1       0.815   1.692   0.007  0.00  0.00    +0.144 HD
ATOM     34  H   UNL     1       0.051   0.339  -0.894  0.00  0.00    +0.144 HD
ENDBRANCH  29  32
ENDBRANCH  24  29
ENDBRANCH  20  22
ENDBRANCH  19  20
ENDBRANCH  18  19
ENDBRANCH   8  18
TORSDOF 7
