REMARK  Name = ZINC02320500
REMARK  9 active torsions:
REMARK  status: ('A' for Active; 'I' for Inactive)
REMARK    1  A    between atoms: C_1  and  O_2
REMARK    2  A    between atoms: O_2  and  C_3
REMARK    3  A    between atoms: C_7  and  C_11
REMARK    4  A    between atoms: C_8  and  O_9
REMARK    5  A    between atoms: O_9  and  C_10
REMARK    6  A    between atoms: C_14  and  C_21
REMARK    7  A    between atoms: N_16  and  S_17
REMARK    8  A    between atoms: S_17  and  C_20
REMARK    9  A    between atoms: C_22  and  C_34
REMARK                            x       y       z     vdW  Elec       q    Type
REMARK                         _______ _______ _______ _____ _____    ______ ____
ROOT
ATOM      1  C   UNL     1       3.326  -0.799  -0.374  0.00  0.00    +0.158 C 
ATOM      2  C   UNL     1       3.916  -1.093  -1.735  0.00  0.00    +0.025 C 
ATOM      3  C   UNL     1       5.051  -0.400  -1.834  0.00  0.00    +0.054 C 
ATOM      4  N   UNL     1       5.298   0.336  -0.683  0.00  0.00    -0.258 N 
ATOM      5  N   UNL     1       4.274   0.133   0.256  0.00  0.00    -0.090 NA
ATOM      6  H   UNL     1       6.069   0.909  -0.546  0.00  0.00    +0.168 HD
ENDROOT
BRANCH   3   7
ATOM      7  C   UNL     1       5.934  -0.413  -3.017  0.00  0.00    +0.069 A 
ATOM      8  C   UNL     1       6.505  -1.606  -3.459  0.00  0.00    +0.005 A 
ATOM      9  C   UNL     1       7.373  -1.565  -4.645  0.00  0.00    +0.008 A 
ATOM     10  C   UNL     1       7.968  -2.734  -5.131  0.00  0.00    +0.030 A 
ATOM     11  C   UNL     1       8.781  -2.675  -6.241  0.00  0.00    +0.042 A 
ATOM     12  C   UNL     1       9.013  -1.461  -6.877  0.00  0.00    +0.022 A 
ATOM     13  C   UNL     1       8.435  -0.302  -6.409  0.00  0.00    +0.028 A 
ATOM     14  C   UNL     1       7.609  -0.338  -5.289  0.00  0.00    +0.050 A 
ATOM     15  N   UNL     1       7.028   0.823  -4.818  0.00  0.00    -0.322 N 
ATOM     16  H   UNL     1       7.210   1.685  -5.291  0.00  0.00    +0.169 HD
ATOM     17  C   UNL     1       6.226   0.825  -3.740  0.00  0.00    +0.259 A 
ATOM     18  O   UNL     1       5.735   1.873  -3.358  0.00  0.00    -0.267 OA
ATOM     19 CL   UNL     1       9.520  -4.123  -6.848  0.00  0.00    -0.084 Cl
BRANCH   8  20
ATOM     20  C   UNL     1       6.242  -2.878  -2.756  0.00  0.00    -0.016 A 
ATOM     21  C   UNL     1       6.728  -3.079  -1.462  0.00  0.00    +0.008 A 
ATOM     22  C   UNL     1       6.474  -4.267  -0.810  0.00  0.00    +0.001 A 
ATOM     23  C   UNL     1       5.749  -5.264  -1.438  0.00  0.00    +0.000 A 
ATOM     24  C   UNL     1       5.269  -5.074  -2.722  0.00  0.00    +0.001 A 
ATOM     25  C   UNL     1       5.510  -3.889  -3.384  0.00  0.00    +0.008 A 
ENDBRANCH   8  20
ENDBRANCH   3   7
BRANCH   1  30
ATOM     26  C   UNL     1      -0.413  -0.341  -0.748  0.00  0.00    +0.162 A 
ATOM     27  C   UNL     1      -0.515   1.040  -0.779  0.00  0.00    +0.049 A 
ATOM     28  C   UNL     1       0.622   1.820  -0.680  0.00  0.00    +0.004 A 
ATOM     29  C   UNL     1       1.863   1.224  -0.549  0.00  0.00    +0.009 A 
ATOM     30  C   UNL     1       1.972  -0.154  -0.517  0.00  0.00    +0.022 A 
ATOM     31  C   UNL     1       0.836  -0.941  -0.616  0.00  0.00    +0.167 A 
BRANCH  26  33
ATOM     32  C   UNL     1      -2.779  -0.426  -0.977  0.00  0.00    +0.277 C 
ATOM     33  O   UNL     1      -1.531  -1.110  -0.845  0.00  0.00    -0.491 OA
ENDBRANCH  26  33
BRANCH  31  34
ATOM     34  O   UNL     1       0.941  -2.296  -0.586  0.00  0.00    -0.491 OA
ATOM     35  C   UNL     1       1.116  -2.962  -1.838  0.00  0.00    +0.277 C 
ENDBRANCH  31  34
ENDBRANCH   1  30
BRANCH   5  36
ATOM     36  S   UNL     1       4.156   0.806   1.764  0.00  0.00    +0.045 S 
ATOM     37  O   UNL     1       4.785   2.074   1.647  0.00  0.00    -0.157 OA
ATOM     38  O   UNL     1       2.778   0.709   2.097  0.00  0.00    -0.157 OA
ATOM     39  C   UNL     1       5.136  -0.281   2.837  0.00  0.00    +0.216 C 
ENDBRANCH   5  36
TORSDOF 6
