REMARK  Name = ZINC15968491
REMARK  8 active torsions:
REMARK  status: ('A' for Active; 'I' for Inactive)
REMARK    1  A    between atoms: C_1  and  C_2
REMARK    2  A    between atoms: C_2  and  C_3
REMARK    3  A    between atoms: C_17  and  C_20
REMARK    4  A    between atoms: C_20  and  C_22
REMARK    5  A    between atoms: C_20  and  O_23
REMARK    6  A    between atoms: N_26  and  C_29
REMARK    7  A    between atoms: C_29  and  C_30
REMARK    8  A    between atoms: C_30  and  C_31
REMARK                            x       y       z     vdW  Elec       q    Type
REMARK                         _______ _______ _______ _____ _____    ______ ____
ROOT
ATOM      1  C   UNL     1       0.731  -0.503   1.223  0.00  0.00    -0.026 A 
ATOM      2  C   UNL     1       2.075  -0.807   1.145  0.00  0.00    +0.005 A 
ATOM      3  C   UNL     1       2.752  -1.265   2.260  0.00  0.00    +0.001 A 
ATOM      4  C   UNL     1       2.079  -1.420   3.459  0.00  0.00    +0.008 A 
ATOM      5  C   UNL     1       0.739  -1.120   3.541  0.00  0.00    +0.004 A 
ATOM      6  C   UNL     1       0.048  -0.651   2.427  0.00  0.00    +0.042 A 
ATOM      7  N   UNL     1      -1.288  -0.409   2.754  0.00  0.00    -0.283 N 
ATOM      8  C   UNL     1      -1.553  -0.684   4.046  0.00  0.00    +0.243 C 
ATOM      9  O   UNL     1      -2.622  -0.567   4.607  0.00  0.00    -0.273 OA
ATOM     10  C   UNL     1      -0.268  -1.175   4.655  0.00  0.00    +0.136 C 
ATOM     11  C   UNL     1       0.151  -0.294   5.838  0.00  0.00    +0.122 C 
ATOM     12  C   UNL     1       0.794  -1.281   6.853  0.00  0.00    +0.109 C 
ATOM     13  C   UNL     1       0.703  -2.663   6.172  0.00  0.00    +0.096 C 
ATOM     14  N   UNL     1      -0.402  -2.541   5.194  0.00  0.00    -0.293 NA
ATOM     15  C   UNL     1       2.237  -0.832   6.907  0.00  0.00    +0.227 C 
ATOM     16  O   UNL     1       3.102  -1.338   7.590  0.00  0.00    -0.275 OA
ATOM     17  N   UNL     1       2.411   0.209   6.085  0.00  0.00    -0.241 N 
ATOM     18  C   UNL     1       1.296   0.604   5.429  0.00  0.00    +0.228 C 
ATOM     19  O   UNL     1       1.219   1.522   4.641  0.00  0.00    -0.275 OA
ATOM     20  H   UNL     1      -1.949  -0.080   2.125  0.00  0.00    +0.155 HD
ATOM     21  H   UNL     1      -1.293  -2.663   5.653  0.00  0.00    +0.124 HD
ENDROOT
BRANCH   1  23
ATOM     22  C   UNL     1      -0.019   1.526   0.010  0.00  0.00    +0.009 C 
ATOM     23  C   UNL     1       0.002  -0.004   0.002  0.00  0.00    +0.033 C 
ENDBRANCH   1  23
BRANCH  13  24
ATOM     24  C   UNL     1       0.404  -3.749   7.208  0.00  0.00    +0.129 C 
ATOM     25  C   UNL     1       0.319  -5.108   6.512  0.00  0.00    +0.039 C 
BRANCH  24  26
ATOM     26  O   UNL     1       1.449  -3.777   8.182  0.00  0.00    -0.390 OA
ATOM     27  H   UNL     1       2.324  -3.966   7.816  0.00  0.00    +0.210 HD
ENDBRANCH  24  26
ENDBRANCH  13  24
BRANCH  17  28
ATOM     28  C   UNL     1       3.704   0.874   5.912  0.00  0.00    +0.121 C 
BRANCH  28  29
ATOM     29  C   UNL     1       4.475   0.202   4.774  0.00  0.00    +0.054 C 
BRANCH  29  30
ATOM     30  C   UNL     1       5.806   0.887   4.595  0.00  0.00    -0.046 A 
ATOM     31  C   UNL     1       5.920   1.963   3.735  0.00  0.00    +0.004 A 
ATOM     32  C   UNL     1       7.140   2.591   3.571  0.00  0.00    +0.000 A 
ATOM     33  C   UNL     1       8.246   2.143   4.268  0.00  0.00    +0.000 A 
ATOM     34  C   UNL     1       8.132   1.068   5.130  0.00  0.00    +0.000 A 
ATOM     35  C   UNL     1       6.911   0.443   5.297  0.00  0.00    +0.004 A 
ENDBRANCH  29  30
ENDBRANCH  28  29
ENDBRANCH  17  28
TORSDOF 6
