REMARK  Name = ZINC01773511
REMARK  14 active torsions:
REMARK  status: ('A' for Active; 'I' for Inactive)
REMARK    1  A    between atoms: C_1  and  C_2
REMARK    2  A    between atoms: C_9  and  N_15
REMARK    3  A    between atoms: C_10  and  C_11
REMARK    4  A    between atoms: C_11  and  O_13
REMARK    5  A    between atoms: O_13  and  C_14
REMARK    6  A    between atoms: C_16  and  C_18
REMARK    7  A    between atoms: C_18  and  C_19
REMARK    8  A    between atoms: C_19  and  C_20
REMARK    9  A    between atoms: C_20  and  O_21
REMARK   10  A    between atoms: O_21  and  C_22
REMARK   11  A    between atoms: C_25  and  C_28
REMARK   12  A    between atoms: C_28  and  C_29
REMARK   13  A    between atoms: C_28  and  C_30
REMARK   14  A    between atoms: C_28  and  C_31
REMARK                            x       y       z     vdW  Elec       q    Type
REMARK                         _______ _______ _______ _____ _____    ______ ____
ROOT
ATOM      1  N   UNL     1       0.698  -5.847   2.435  0.00  0.00    -0.279 N 
ATOM      2  C   UNL     1       1.679  -6.094   3.325  0.00  0.00    +0.218 C 
ATOM      3  O   UNL     1       2.384  -5.189   3.717  0.00  0.00    -0.275 OA
ATOM      4  H   UNL     1       0.134  -6.571   2.121  0.00  0.00    +0.155 HD
ENDROOT
BRANCH   1  12
ATOM      5  C   UNL     1      -0.019   1.526   0.010  0.00  0.00    +0.008 C 
ATOM      6  C   UNL     1       0.002  -0.004   0.002  0.00  0.00    -0.009 C 
ATOM      7  C   UNL     1      -1.434  -0.537   0.019  0.00  0.00    +0.008 C 
ATOM      8  C   UNL     1      -1.432  -2.045  -0.237  0.00  0.00    +0.037 C 
ATOM      9  C   UNL     1      -0.464  -2.704   0.735  0.00  0.00    -0.021 A 
ATOM     10  C   UNL     1       0.485  -1.986   1.374  0.00  0.00    -0.004 A 
ATOM     11  S   UNL     1       1.344  -3.167   2.373  0.00  0.00    -0.077 S 
ATOM     12  C   UNL     1       0.494  -4.558   1.968  0.00  0.00    +0.086 A 
ATOM     13  C   UNL     1      -0.459  -4.120   1.061  0.00  0.00    +0.091 A 
ATOM     14  C   UNL     1       0.739  -0.515   1.248  0.00  0.00    +0.046 C 
BRANCH  13  15
ATOM     15  C   UNL     1      -1.419  -5.045   0.456  0.00  0.00    +0.342 C 
ATOM     16  O   UNL     1      -1.147  -5.610  -0.586  0.00  0.00    -0.245 OA
BRANCH  15  17
ATOM     17  O   UNL     1      -2.607  -5.272   1.056  0.00  0.00    -0.464 OA
ATOM     18  C   UNL     1      -3.495  -6.186   0.410  0.00  0.00    +0.280 C 
ENDBRANCH  15  17
ENDBRANCH  13  15
ENDBRANCH   1  12
BRANCH   2  19
ATOM     19  C   UNL     1       1.901  -7.496   3.832  0.00  0.00    +0.099 C 
BRANCH  19  20
ATOM     20  C   UNL     1       3.066  -7.502   4.823  0.00  0.00    +0.050 C 
BRANCH  20  21
ATOM     21  C   UNL     1       3.291  -8.925   5.338  0.00  0.00    +0.229 C 
BRANCH  21  22
ATOM     22  O   UNL     1       4.380  -8.930   6.264  0.00  0.00    -0.492 OA
BRANCH  22  23
ATOM     23  C   UNL     1       4.712 -10.125   6.818  0.00  0.00    +0.121 A 
ATOM     24  C   UNL     1       4.009 -11.270   6.474  0.00  0.00    +0.046 A 
ATOM     25  C   UNL     1       4.349 -12.484   7.039  0.00  0.00    +0.008 A 
ATOM     26  C   UNL     1       5.389 -12.558   7.947  0.00  0.00    -0.042 A 
ATOM     27  C   UNL     1       6.091 -11.418   8.292  0.00  0.00    +0.008 A 
ATOM     28  C   UNL     1       5.759 -10.203   7.725  0.00  0.00    +0.046 A 
BRANCH  26  29
ATOM     29  C   UNL     1       5.758 -13.884   8.562  0.00  0.00    -0.013 C 
ATOM     30  C   UNL     1       6.159 -14.864   7.458  0.00  0.00    +0.015 C 
ATOM     31  C   UNL     1       6.932 -13.691   9.524  0.00  0.00    +0.015 C 
ATOM     32  C   UNL     1       4.557 -14.442   9.328  0.00  0.00    +0.015 C 
ENDBRANCH  26  29
ENDBRANCH  22  23
ENDBRANCH  21  22
ENDBRANCH  20  21
ENDBRANCH  19  20
ENDBRANCH   2  19
TORSDOF 9
