REMARK  Name = ZINC39486528
REMARK  7 active torsions:
REMARK  status: ('A' for Active; 'I' for Inactive)
REMARK    1  A    between atoms: C_1  and  C_2
REMARK    2  A    between atoms: C_2  and  C_3
REMARK    3  A    between atoms: C_7  and  C_9
REMARK    4  A    between atoms: C_15  and  O_35
REMARK    5  A    between atoms: N_25  and  C_27
REMARK    6  A    between atoms: C_32  and  O_33
REMARK    7  A    between atoms: O_33  and  C_34
REMARK                            x       y       z     vdW  Elec       q    Type
REMARK                         _______ _______ _______ _____ _____    ______ ____
ROOT
ATOM      1  C   UNL     1       4.208  -1.389  -2.330  0.00  0.00    +0.062 C 
ATOM      2  C   UNL     1       4.849  -0.453  -3.306  0.00  0.00    -0.022 A 
ATOM      3  C   UNL     1       4.272   0.783  -3.499  0.00  0.00    +0.054 A 
ATOM      4  C   UNL     1       4.871   1.655  -4.404  0.00  0.00    +0.170 A 
ATOM      5  C   UNL     1       6.033   1.300  -5.105  0.00  0.00    +0.208 A 
ATOM      6  C   UNL     1       6.626   0.058  -4.919  0.00  0.00    +0.173 A 
ATOM      7  C   UNL     1       6.003  -0.820  -4.004  0.00  0.00    +0.067 A 
ATOM      8  C   UNL     1       6.577  -2.148  -3.791  0.00  0.00    +0.172 C 
ATOM      9  O   UNL     1       7.653  -2.406  -4.291  0.00  0.00    -0.292 OA
ATOM     10  C   UNL     1       5.896  -3.192  -2.989  0.00  0.00    +0.091 C 
ATOM     11  C   UNL     1       4.460  -2.856  -2.593  0.00  0.00    +0.099 C 
ATOM     12  C   UNL     1       4.281  -3.612  -1.283  0.00  0.00    +0.225 C 
ATOM     13  O   UNL     1       3.214  -3.916  -0.791  0.00  0.00    -0.275 OA
ATOM     14  N   UNL     1       5.487  -3.893  -0.755  0.00  0.00    -0.267 N 
ATOM     15  C   UNL     1       6.573  -3.415  -1.623  0.00  0.00    +0.126 C 
ATOM     16  O   UNL     1       6.393   2.328  -5.907  0.00  0.00    -0.449 OA
ATOM     17  C   UNL     1       5.226   3.173  -5.993  0.00  0.00    +0.467 C 
ATOM     18  O   UNL     1       4.509   2.905  -4.770  0.00  0.00    -0.452 OA
ENDROOT
BRANCH   1  23
ATOM     19  C   UNL     1       0.707  -0.490  -1.238  0.00  0.00    -0.047 A 
ATOM     20  C   UNL     1      -0.011  -0.719  -2.397  0.00  0.00    +0.003 A 
ATOM     21  C   UNL     1       0.636  -1.164  -3.534  0.00  0.00    +0.001 A 
ATOM     22  C   UNL     1       2.002  -1.381  -3.513  0.00  0.00    +0.004 A 
ATOM     23  C   UNL     1       2.720  -1.152  -2.354  0.00  0.00    -0.039 A 
ATOM     24  C   UNL     1       2.073  -0.702  -1.218  0.00  0.00    +0.008 A 
BRANCH  19  26
ATOM     25  C   UNL     1      -0.019   1.526   0.010  0.00  0.00    +0.009 C 
ATOM     26  C   UNL     1       0.002  -0.004   0.002  0.00  0.00    +0.032 C 
ENDBRANCH  19  26
ENDBRANCH   1  23
BRANCH  14  27
ATOM     27  C   UNL     1       5.684  -4.551   0.466  0.00  0.00    +0.078 A 
ATOM     28  C   UNL     1       5.791  -5.933   0.503  0.00  0.00    +0.027 A 
ATOM     29  C   UNL     1       5.986  -6.579   1.709  0.00  0.00    +0.002 A 
ATOM     30  C   UNL     1       6.074  -5.851   2.881  0.00  0.00    +0.004 A 
ATOM     31  C   UNL     1       5.968  -4.473   2.853  0.00  0.00    +0.047 A 
ATOM     32  C   UNL     1       5.779  -3.817   1.647  0.00  0.00    +0.141 A 
BRANCH  32  33
ATOM     33  O   UNL     1       5.680  -2.461   1.617  0.00  0.00    -0.493 OA
ATOM     34  C   UNL     1       5.786  -1.775   2.866  0.00  0.00    +0.277 C 
ENDBRANCH  32  33
ENDBRANCH  14  27
BRANCH   6  35
ATOM     35  O   UNL     1       7.753  -0.297  -5.587  0.00  0.00    -0.503 OA
ATOM     36  H   UNL     1       8.572  -0.068  -5.127  0.00  0.00    +0.292 HD
ENDBRANCH   6  35
TORSDOF 5
