REMARK  Name = ZINC26298062
REMARK  9 active torsions:
REMARK  status: ('A' for Active; 'I' for Inactive)
REMARK    1  A    between atoms: C_1  and  C_2
REMARK    2  A    between atoms: C_2  and  C_4
REMARK    3  A    between atoms: C_2  and  N_14
REMARK    4  A    between atoms: C_7  and  S_10
REMARK    5  A    between atoms: S_10  and  N_13
REMARK    6  A    between atoms: N_14  and  C_15
REMARK    7  A    between atoms: N_14  and  C_16
REMARK    8  A    between atoms: C_16  and  C_17
REMARK    9  A    between atoms: C_28  and  C_30
REMARK                            x       y       z     vdW  Elec       q    Type
REMARK                         _______ _______ _______ _____ _____    ______ ____
ROOT
ATOM      1  C   UNL     1       1.265   3.109  -1.432  0.00  0.00    +0.020 C 
ENDROOT
BRANCH   1   2
ATOM      2  C   UNL     1       1.305   4.461  -0.768  0.00  0.00    +0.204 C 
ATOM      3  O   UNL     1       0.304   5.145  -0.723  0.00  0.00    -0.277 OA
ATOM      4  N   UNL     1       2.453   4.911  -0.223  0.00  0.00    -0.264 N 
ATOM      5  C   UNL     1       3.656   4.334  -0.636  0.00  0.00    +0.050 A 
ATOM      6  C   UNL     1       3.668   3.630  -1.837  0.00  0.00    +0.024 A 
ATOM      7  C   UNL     1       4.829   3.035  -2.288  0.00  0.00    +0.002 A 
ATOM      8  C   UNL     1       5.994   3.132  -1.548  0.00  0.00    +0.001 A 
ATOM      9  C   UNL     1       5.996   3.830  -0.356  0.00  0.00    +0.016 A 
ATOM     10  C   UNL     1       4.832   4.434   0.103  0.00  0.00    +0.029 A 
ATOM     11  S   UNL     1       4.872   5.327   1.624  0.00  0.00    -0.121 S 
ATOM     12  C   UNL     1       3.112   5.520   2.041  0.00  0.00    +0.102 C 
ATOM     13  C   UNL     1       2.381   5.982   0.766  0.00  0.00    +0.121 C 
BRANCH  13  14
ATOM     14  C   UNL     1       0.939   6.278   1.087  0.00  0.00    -0.026 A 
ATOM     15  C   UNL     1       0.223   5.422   1.902  0.00  0.00    +0.005 A 
ATOM     16  C   UNL     1      -1.099   5.696   2.200  0.00  0.00    +0.000 A 
ATOM     17  C   UNL     1      -1.707   6.820   1.675  0.00  0.00    +0.000 A 
ATOM     18  C   UNL     1      -0.993   7.674   0.856  0.00  0.00    +0.000 A 
ATOM     19  C   UNL     1       0.331   7.403   0.561  0.00  0.00    +0.005 A 
ENDBRANCH  13  14
ENDBRANCH   1   2
BRANCH   1  20
ATOM     20  N   UNL     1      -0.085   2.543  -1.309  0.00  0.00    +0.388 N 
ATOM     21  C   UNL     1      -1.060   3.335  -2.070  0.00  0.00    -0.095 C 
ATOM     22  H   UNL     1      -0.372   2.582  -0.248  0.00  0.00    -0.081 HD
BRANCH  20  24
ATOM     23  C   UNL     1       0.098   1.054  -3.245  0.00  0.00    -0.008 C 
ATOM     24  C   UNL     1      -0.106   1.136  -1.730  0.00  0.00    -0.041 C 
BRANCH  24  25
ATOM     25  C   UNL     1      -1.434   0.522  -1.369  0.00  0.00    -0.061 A 
ATOM     26  C   UNL     1      -2.126   0.976  -0.261  0.00  0.00    +0.004 A 
ATOM     27  C   UNL     1      -3.346   0.417   0.068  0.00  0.00    +0.029 A 
ATOM     28  C   UNL     1      -3.871  -0.602  -0.705  0.00  0.00    +0.105 A 
ATOM     29  C   UNL     1      -3.176  -1.060  -1.809  0.00  0.00    +0.029 A 
ATOM     30  C   UNL     1      -1.958  -0.497  -2.142  0.00  0.00    +0.004 A 
BRANCH  28  31
ATOM     31  S   UNL     1      -5.424  -1.319  -0.282  0.00  0.00    +0.056 S 
ATOM     32  O   UNL     1      -6.128  -0.345   0.476  0.00  0.00    -0.153 OA
ATOM     33  O   UNL     1      -5.951  -1.881  -1.476  0.00  0.00    -0.153 OA
BRANCH  31  34
ATOM     34  N   UNL     1      -5.117  -2.585   0.741  0.00  0.00    -0.204 NA
ATOM     35  H   UNL     1      -6.065  -3.061   1.030  0.00  0.00    +0.144 HD
ATOM     36  H   UNL     1      -4.605  -2.213   1.641  0.00  0.00    +0.144 HD
ENDBRANCH  31  34
ENDBRANCH  28  31
ENDBRANCH  24  25
ENDBRANCH  20  24
ENDBRANCH   1  20
TORSDOF 7
