REMARK  Name = ZINC02987279
REMARK  8 active torsions:
REMARK  status: ('A' for Active; 'I' for Inactive)
REMARK    1  A    between atoms: C_1  and  C_2
REMARK    2  A    between atoms: C_2  and  O_3
REMARK    3  A    between atoms: O_3  and  C_4
REMARK    4  A    between atoms: C_4  and  C_6
REMARK    5  A    between atoms: C_7  and  C_36
REMARK    6  A    between atoms: C_14  and  C_15
REMARK    7  A    between atoms: C_16  and  C_25
REMARK    8  A    between atoms: C_27  and  C_29
REMARK                            x       y       z     vdW  Elec       q    Type
REMARK                         _______ _______ _______ _____ _____    ______ ____
ROOT
ATOM      1  C   UNL     1       4.508   1.982  -0.032  0.00  0.00    +0.085 C 
ATOM      2  C   UNL     1       3.796   3.149  -0.019  0.00  0.00    +0.053 C 
ATOM      3  N   UNL     1       2.469   3.129  -0.005  0.00  0.00    -0.228 NA
ATOM      4  C   UNL     1       1.741   2.042  -0.004  0.00  0.00    +0.178 A 
ATOM      5  N   UNL     1       2.256   0.765  -0.015  0.00  0.00    -0.275 N 
ATOM      6  C   UNL     1       1.399  -0.263  -0.013  0.00  0.00    +0.268 A 
ATOM      7  O   UNL     1       1.812  -1.408  -0.023  0.00  0.00    -0.266 OA
ATOM      8  C   UNL     1       0.002  -0.004   0.002  0.00  0.00    +0.081 A 
ATOM      9  C   UNL     1      -1.039  -0.883   0.007  0.00  0.00    +0.030 C 
ATOM     10  S   UNL     1      -0.022   1.782   0.012  0.00  0.00    -0.046 S 
ATOM     11  C   UNL     1       3.742   0.678  -0.031  0.00  0.00    +0.162 C 
ATOM     12  C   UNL     1       4.523   4.468  -0.019  0.00  0.00    +0.066 C 
ENDROOT
BRANCH   9  13
ATOM     13  C   UNL     1      -2.415  -0.386   0.023  0.00  0.00    +0.004 A 
ATOM     14  C   UNL     1      -2.939   0.545   0.876  0.00  0.00    +0.021 A 
ATOM     15  N   UNL     1      -4.248   0.750   0.580  0.00  0.00    -0.358 N 
ATOM     16  H   UNL     1      -4.831   1.368   1.047  0.00  0.00    +0.166 HD
ATOM     17  C   UNL     1      -4.634  -0.050  -0.477  0.00  0.00    +0.047 A 
ATOM     18  C   UNL     1      -3.512  -0.795  -0.875  0.00  0.00    +0.007 A 
ATOM     19  C   UNL     1      -3.611  -1.695  -1.932  0.00  0.00    +0.010 A 
ATOM     20  C   UNL     1      -4.815  -1.851  -2.585  0.00  0.00    +0.001 A 
ATOM     21  C   UNL     1      -5.924  -1.116  -2.193  0.00  0.00    +0.002 A 
ATOM     22  C   UNL     1      -5.840  -0.221  -1.149  0.00  0.00    +0.026 A 
ATOM     23  C   UNL     1      -2.179   1.241   1.975  0.00  0.00    +0.064 C 
ENDBRANCH   9  13
BRANCH  11  24
ATOM     24  C   UNL     1       4.174  -0.112   1.177  0.00  0.00    -0.020 A 
ATOM     25  C   UNL     1       3.540   0.081   2.391  0.00  0.00    +0.007 A 
ATOM     26  C   UNL     1       3.931  -0.648   3.498  0.00  0.00    +0.020 A 
ATOM     27  C   UNL     1       4.965  -1.562   3.395  0.00  0.00    +0.041 A 
ATOM     28  C   UNL     1       5.603  -1.750   2.182  0.00  0.00    +0.020 A 
ATOM     29  C   UNL     1       5.207  -1.024   1.074  0.00  0.00    +0.007 A 
ATOM     30 CL   UNL     1       5.462  -2.471   4.787  0.00  0.00    -0.084 Cl
ENDBRANCH  11  24
BRANCH   1  31
ATOM     31  C   UNL     1       5.912   1.994  -0.047  0.00  0.00    +0.339 C 
ATOM     32  O   UNL     1       6.512   3.054  -0.048  0.00  0.00    -0.245 OA
BRANCH  31  33
ATOM     33  O   UNL     1       6.597   0.830  -0.060  0.00  0.00    -0.462 OA
BRANCH  33  35
ATOM     34  C   UNL     1       8.620  -0.492  -0.089  0.00  0.00    +0.048 C 
ATOM     35  C   UNL     1       8.024   0.916  -0.075  0.00  0.00    +0.229 C 
ENDBRANCH  33  35
ENDBRANCH  31  33
ENDBRANCH   1  31
TORSDOF 5
