REMARK  Name = ZINC36206531
REMARK  15 active torsions:
REMARK  status: ('A' for Active; 'I' for Inactive)
REMARK    1  A    between atoms: C_1  and  C_2
REMARK    2  A    between atoms: C_5  and  C_37
REMARK    3  A    between atoms: C_6  and  C_8
REMARK    4  A    between atoms: C_17  and  C_19
REMARK    5  A    between atoms: C_19  and  N_20
REMARK    6  A    between atoms: N_20  and  C_21
REMARK    7  A    between atoms: N_20  and  C_26
REMARK    8  A    between atoms: C_21  and  C_22
REMARK    9  A    between atoms: C_22  and  C_23
REMARK   10  A    between atoms: C_23  and  O_24
REMARK   11  A    between atoms: O_24  and  C_25
REMARK   12  A    between atoms: C_26  and  C_27
REMARK   13  A    between atoms: C_27  and  C_29
REMARK   14  A    between atoms: C_27  and  O_36
REMARK   15  A    between atoms: C_29  and  C_30
REMARK                            x       y       z     vdW  Elec       q    Type
REMARK                         _______ _______ _______ _____ _____    ______ ____
ROOT
ATOM      1  C   UNL     1      -0.069  -2.243   3.793  0.00  0.00    +0.004 A 
ATOM      2  C   UNL     1      -1.019  -2.321   4.756  0.00  0.00    +0.056 A 
ATOM      3  S   UNL     1      -0.401  -3.593   5.842  0.00  0.00    -0.076 S 
ATOM      4  C   UNL     1       1.102  -3.986   4.986  0.00  0.00    +0.116 A 
ATOM      5  C   UNL     1       1.088  -3.127   3.876  0.00  0.00    +0.080 A 
ATOM      6  C   UNL     1       2.208  -3.237   2.991  0.00  0.00    +0.260 A 
ATOM      7  O   UNL     1       2.288  -2.530   2.002  0.00  0.00    -0.267 OA
ATOM      8  N   UNL     1       3.172  -4.135   3.269  0.00  0.00    -0.312 N 
ATOM      9  H   UNL     1       3.934  -4.214   2.674  0.00  0.00    +0.170 HD
ATOM     10  C   UNL     1       3.100  -4.930   4.367  0.00  0.00    +0.094 A 
ATOM     11  N   UNL     1       2.096  -4.846   5.197  0.00  0.00    -0.229 NA
ENDROOT
BRANCH   1  17
ATOM     12  C   UNL     1      -0.281   2.462   2.140  0.00  0.00    +0.044 C 
ATOM     13  C   UNL     1      -0.309   0.980   1.874  0.00  0.00    -0.050 A 
ATOM     14  C   UNL     1      -0.466   0.513   0.581  0.00  0.00    +0.003 A 
ATOM     15  C   UNL     1      -0.493  -0.847   0.329  0.00  0.00    +0.004 A 
ATOM     16  C   UNL     1      -0.365  -1.747   1.368  0.00  0.00    -0.043 A 
ATOM     17  C   UNL     1      -0.207  -1.282   2.673  0.00  0.00    -0.013 A 
ATOM     18  C   UNL     1      -0.174   0.090   2.920  0.00  0.00    +0.012 A 
ATOM     19  C   UNL     1      -0.396  -3.228   1.092  0.00  0.00    +0.044 C 
ENDBRANCH   1  17
BRANCH  10  20
ATOM     20  C   UNL     1       4.204  -5.920   4.638  0.00  0.00    -0.003 C 
BRANCH  20  21
ATOM     21  N   UNL     1       3.906  -6.661   5.871  0.00  0.00    +0.386 N 
ATOM     22  H   UNL     1       3.756  -6.009   6.626  0.00  0.00    -0.081 HD
BRANCH  21  23
ATOM     23  C   UNL     1       2.696  -7.471   5.675  0.00  0.00    -0.076 C 
BRANCH  23  24
ATOM     24  C   UNL     1       2.954  -8.518   4.590  0.00  0.00    +0.009 C 
BRANCH  24  25
ATOM     25  C   UNL     1       1.671  -9.311   4.332  0.00  0.00    +0.157 C 
BRANCH  25  26
ATOM     26  O   UNL     1       1.912 -10.290   3.319  0.00  0.00    -0.383 OA
ATOM     27  C   UNL     1       0.771 -11.089   3.000  0.00  0.00    +0.193 C 
ENDBRANCH  25  26
ENDBRANCH  24  25
ENDBRANCH  23  24
ENDBRANCH  21  23
BRANCH  21  28
ATOM     28  C   UNL     1       5.036  -7.540   6.200  0.00  0.00    -0.046 C 
BRANCH  28  29
ATOM     29  C   UNL     1       4.778  -8.220   7.546  0.00  0.00    +0.102 C 
BRANCH  29  30
ATOM     30  O   UNL     1       4.628  -7.226   8.561  0.00  0.00    -0.393 OA
ATOM     31  H   UNL     1       5.403  -6.657   8.672  0.00  0.00    +0.210 HD
ENDBRANCH  29  30
BRANCH  29  32
ATOM     32  C   UNL     1       5.959  -9.129   7.892  0.00  0.00    +0.064 C 
BRANCH  32  33
ATOM     33  C   UNL     1       5.652  -9.892   9.155  0.00  0.00    -0.045 A 
ATOM     34  C   UNL     1       5.993  -9.359  10.384  0.00  0.00    +0.004 A 
ATOM     35  C   UNL     1       5.712 -10.059  11.543  0.00  0.00    +0.000 A 
ATOM     36  C   UNL     1       5.089 -11.291  11.472  0.00  0.00    +0.000 A 
ATOM     37  C   UNL     1       4.747 -11.823  10.243  0.00  0.00    +0.000 A 
ATOM     38  C   UNL     1       5.025 -11.121   9.085  0.00  0.00    +0.004 A 
ENDBRANCH  32  33
ENDBRANCH  29  32
ENDBRANCH  28  29
ENDBRANCH  21  28
ENDBRANCH  20  21
ENDBRANCH  10  20
TORSDOF 12
