REMARK  Name = ZINC17919604
REMARK  6 active torsions:
REMARK  status: ('A' for Active; 'I' for Inactive)
REMARK    1  A    between atoms: C_1  and  O_2
REMARK    2  A    between atoms: O_2  and  C_3
REMARK    3  A    between atoms: C_6  and  C_9
REMARK    4  A    between atoms: N_18  and  N_19
REMARK    5  A    between atoms: N_19  and  C_20
REMARK    6  A    between atoms: C_30  and  C_32
REMARK                            x       y       z     vdW  Elec       q    Type
REMARK                         _______ _______ _______ _____ _____    ______ ____
ROOT
ATOM      1  C   UNL     1      -4.964  -2.620   0.037  0.00  0.00    +0.080 A 
ATOM      2  C   UNL     1      -5.024  -3.986   0.041  0.00  0.00    +0.077 A 
ATOM      3  S   UNL     1      -6.794  -4.239   0.053  0.00  0.00    -0.058 S 
ATOM      4  C   UNL     1      -7.266  -2.515   0.051  0.00  0.00    +0.189 A 
ATOM      5  N   UNL     1      -6.087  -1.920   0.047  0.00  0.00    -0.223 NA
ATOM      6  N   UNL     1      -8.537  -1.951   0.058  0.00  0.00    -0.130 N 
ATOM      7  C   UNL     1      -9.690  -2.649   0.073  0.00  0.00    +0.294 C 
ATOM      8  O   UNL     1      -9.810  -3.862   0.084  0.00  0.00    -0.266 OA
ATOM      9  C   UNL     1     -10.773  -1.653   0.075  0.00  0.00    +0.173 C 
ATOM     10  N   UNL     1     -12.073  -1.879   0.088  0.00  0.00    -0.175 NA
ATOM     11  C   UNL     1     -10.085  -0.345   0.059  0.00  0.00    +0.122 C 
ATOM     12  N   UNL     1      -8.800  -0.582   0.056  0.00  0.00    -0.168 NA
ENDROOT
BRANCH   1  16
ATOM     13  C   UNL     1      -1.200  -0.637   0.010  0.00  0.00    +0.120 A 
ATOM     14  C   UNL     1      -2.374   0.104   0.020  0.00  0.00    +0.046 A 
ATOM     15  C   UNL     1      -3.596  -0.536   0.028  0.00  0.00    +0.013 A 
ATOM     16  C   UNL     1      -3.651  -1.929   0.027  0.00  0.00    +0.001 A 
ATOM     17  C   UNL     1      -2.471  -2.670   0.017  0.00  0.00    +0.013 A 
ATOM     18  C   UNL     1      -1.252  -2.025   0.003  0.00  0.00    +0.046 A 
BRANCH  13  20
ATOM     19  C   UNL     1      -0.017   1.425   0.010  0.00  0.00    +0.277 C 
ATOM     20  O   UNL     1       0.002  -0.004   0.002  0.00  0.00    -0.495 OA
ENDBRANCH  13  20
ENDBRANCH   1  16
BRANCH  11  21
ATOM     21  C   UNL     1     -10.733   0.987   0.055  0.00  0.00    +0.004 A 
ATOM     22  C   UNL     1     -12.124   1.089   0.071  0.00  0.00    +0.010 A 
ATOM     23  C   UNL     1     -12.721   2.333   0.067  0.00  0.00    +0.001 A 
ATOM     24  C   UNL     1     -11.943   3.477   0.046  0.00  0.00    +0.000 A 
ATOM     25  C   UNL     1     -10.563   3.382   0.029  0.00  0.00    +0.001 A 
ATOM     26  C   UNL     1      -9.954   2.144   0.039  0.00  0.00    +0.010 A 
ENDBRANCH  11  21
BRANCH  10  27
ATOM     27  N   UNL     1     -12.518  -3.090   0.101  0.00  0.00    -0.236 N 
ATOM     28  H   UNL     1     -11.896  -3.834   0.101  0.00  0.00    +0.174 HD
BRANCH  27  29
ATOM     29  C   UNL     1     -13.888  -3.327   0.115  0.00  0.00    +0.056 A 
ATOM     30  C   UNL     1     -14.778  -2.272   0.109  0.00  0.00    +0.025 A 
ATOM     31  C   UNL     1     -16.150  -2.500   0.123  0.00  0.00    +0.002 A 
ATOM     32  C   UNL     1     -16.653  -3.765   0.142  0.00  0.00    +0.008 A 
ATOM     33  C   UNL     1     -15.782  -4.867   0.148  0.00  0.00    -0.016 A 
ATOM     34  C   UNL     1     -14.382  -4.650   0.129  0.00  0.00    +0.005 A 
ATOM     35  C   UNL     1     -13.513  -5.752   0.130  0.00  0.00    +0.010 A 
ATOM     36  C   UNL     1     -14.025  -7.014   0.144  0.00  0.00    +0.001 A 
ATOM     37  C   UNL     1     -15.401  -7.229   0.158  0.00  0.00    +0.001 A 
ATOM     38  C   UNL     1     -16.274  -6.184   0.168  0.00  0.00    +0.008 A 
ENDBRANCH  27  29
ENDBRANCH  10  27
TORSDOF 5
