REMARK  Name = ZINC39686401
REMARK  12 active torsions:
REMARK  status: ('A' for Active; 'I' for Inactive)
REMARK    1  A    between atoms: C_1  and  C_2
REMARK    2  A    between atoms: C_2  and  C_4
REMARK    3  A    between atoms: C_2  and  N_13
REMARK    4  A    between atoms: C_4  and  C_5
REMARK    5  A    between atoms: C_10  and  O_11
REMARK    6  A    between atoms: O_11  and  C_12
REMARK    7  A    between atoms: C_14  and  C_16
REMARK    8  A    between atoms: C_27  and  C_29
REMARK    9  A    between atoms: C_31  and  O_37
REMARK   10  A    between atoms: C_33  and  O_35
REMARK   11  A    between atoms: O_35  and  C_36
REMARK   12  A    between atoms: O_37  and  C_38
REMARK                            x       y       z     vdW  Elec       q    Type
REMARK                         _______ _______ _______ _____ _____    ______ ____
ROOT
ATOM      1  C   UNL     1       1.826  -2.218   1.091  0.00  0.00    +0.100 C 
ATOM      2  C   UNL     1       0.721  -3.290   1.214  0.00  0.00    +0.121 C 
ATOM      3  N   UNL     1       0.867  -4.120  -0.005  0.00  0.00    -0.296 N 
ATOM      4  C   UNL     1       2.332  -4.237  -0.197  0.00  0.00    +0.115 C 
ATOM      5  C   UNL     1       2.884  -2.845   0.167  0.00  0.00    -0.004 C 
ATOM      6  C   UNL     1       4.214  -2.979   0.902  0.00  0.00    -0.010 C 
ATOM      7  C   UNL     1       5.265  -3.550  -0.054  0.00  0.00    -0.082 C 
ATOM      8  N   UNL     1       5.410  -2.661  -1.213  0.00  0.00    +0.379 N 
ATOM      9  C   UNL     1       4.152  -2.611  -1.967  0.00  0.00    -0.082 C 
ATOM     10  C   UNL     1       3.054  -1.999  -1.091  0.00  0.00    -0.010 C 
ATOM     11  C   UNL     1      -0.111  -4.649  -0.767  0.00  0.00    +0.247 C 
ATOM     12  O   UNL     1       0.172  -5.306  -1.750  0.00  0.00    -0.270 OA
ATOM     13  H   UNL     1       5.647  -1.733  -0.895  0.00  0.00    -0.086 HD
ATOM     14  H   UNL     1       6.146  -3.007  -1.811  0.00  0.00    -0.086 HD
ENDROOT
BRANCH  11  15
ATOM     15  C   UNL     1      -1.528  -4.430  -0.407  0.00  0.00    +0.044 A 
ATOM     16  C   UNL     1      -2.082  -3.152  -0.490  0.00  0.00    +0.059 A 
ATOM     17  C   UNL     1      -3.411  -2.952  -0.153  0.00  0.00    +0.124 A 
ATOM     18  C   UNL     1      -4.190  -4.020   0.269  0.00  0.00    +0.091 A 
ATOM     19  C   UNL     1      -3.643  -5.292   0.353  0.00  0.00    +0.124 A 
ATOM     20  C   UNL     1      -2.317  -5.502   0.012  0.00  0.00    +0.059 A 
BRANCH  19  21
ATOM     21  O   UNL     1      -4.411  -6.335   0.766  0.00  0.00    -0.495 OA
ATOM     22  C   UNL     1      -5.771  -6.048   1.097  0.00  0.00    +0.277 C 
ENDBRANCH  19  21
BRANCH  17  23
ATOM     23  O   UNL     1      -3.951  -1.708  -0.234  0.00  0.00    -0.495 OA
ATOM     24  C   UNL     1      -5.293  -1.552   0.234  0.00  0.00    +0.277 C 
ENDBRANCH  17  23
ENDBRANCH  11  15
BRANCH   1  26
ATOM     25  N   UNL     1       1.857   0.228   0.723  0.00  0.00    -0.312 N 
ATOM     26  C   UNL     1       1.271  -0.960   0.475  0.00  0.00    +0.218 C 
ATOM     27  O   UNL     1       0.296  -1.016  -0.245  0.00  0.00    -0.275 OA
ATOM     28  H   UNL     1       2.678   0.266   1.239  0.00  0.00    +0.149 HD
BRANCH  25  30
ATOM     29  C   UNL     1       1.800   1.756  -1.186  0.00  0.00    +0.028 C 
ATOM     30  C   UNL     1       1.256   1.463   0.213  0.00  0.00    +0.074 C 
BRANCH  30  31
ATOM     31  C   UNL     1       1.603   2.623   1.149  0.00  0.00    +0.060 C 
BRANCH  31  32
ATOM     32  C   UNL     1       2.152   2.079   2.442  0.00  0.00    -0.004 A 
ATOM     33  C   UNL     1       1.307   1.858   3.513  0.00  0.00    +0.007 A 
ATOM     34  C   UNL     1       1.811   1.359   4.700  0.00  0.00    +0.000 A 
ATOM     35  C   UNL     1       3.160   1.079   4.819  0.00  0.00    +0.004 A 
ATOM     36  C   UNL     1       4.008   1.297   3.751  0.00  0.00    +0.046 A 
ATOM     37  C   UNL     1       3.504   1.793   2.557  0.00  0.00    +0.123 A 
BRANCH  37  38
ATOM     38  O   UNL     1       4.336   2.003   1.502  0.00  0.00    -0.495 OA
ATOM     39  C   UNL     1       5.724   1.736   1.708  0.00  0.00    +0.277 C 
ENDBRANCH  37  38
ENDBRANCH  31  32
ENDBRANCH  30  31
ENDBRANCH  25  30
ENDBRANCH   1  26
TORSDOF 8
