REMARK  Name = ZINC11905214
REMARK  8 active torsions:
REMARK  status: ('A' for Active; 'I' for Inactive)
REMARK    1  A    between atoms: C_1  and  O_2
REMARK    2  A    between atoms: O_2  and  C_3
REMARK    3  A    between atoms: C_6  and  C_9
REMARK    4  A    between atoms: C_9  and  C_11
REMARK    5  A    between atoms: C_9  and  N_54
REMARK    6  A    between atoms: C_11  and  N_12
REMARK    7  A    between atoms: C_13  and  C_15
REMARK    8  A    between atoms: C_17  and  C_20
REMARK                            x       y       z     vdW  Elec       q    Type
REMARK                         _______ _______ _______ _____ _____    ______ ____
ROOT
ATOM      1  C   UNL     1      -1.709   2.463   1.461  0.00  0.00    +0.094 C 
ENDROOT
BRANCH   1   2
ATOM      2  N   UNL     1      -2.925   3.280   1.463  0.00  0.00    -0.311 N 
ATOM      3  C   UNL     1      -3.446   3.709   2.629  0.00  0.00    +0.266 C 
ATOM      4  O   UNL     1      -2.908   3.419   3.679  0.00  0.00    -0.268 OA
ATOM      5  H   UNL     1      -3.355   3.512   0.625  0.00  0.00    +0.149 HD
BRANCH   3   6
ATOM      6  C   UNL     1      -4.678   4.537   2.631  0.00  0.00    +0.168 A 
ATOM      7  C   UNL     1      -5.351   5.058   3.767  0.00  0.00    +0.086 A 
ATOM      8  C   UNL     1      -6.410   5.740   3.234  0.00  0.00    +0.168 A 
ATOM      9  O   UNL     1      -6.324   5.591   1.901  0.00  0.00    -0.354 OA
ATOM     10  N   UNL     1      -5.365   4.926   1.585  0.00  0.00    -0.073 NA
BRANCH   8  11
ATOM     11  C   UNL     1      -7.447   6.486   3.978  0.00  0.00    +0.020 A 
ATOM     12  C   UNL     1      -7.404   6.545   5.372  0.00  0.00    +0.013 A 
ATOM     13  C   UNL     1      -8.372   7.247   6.059  0.00  0.00    +0.016 A 
ATOM     14  C   UNL     1      -9.390   7.884   5.370  0.00  0.00    +0.018 A 
ATOM     15  C   UNL     1      -9.441   7.824   3.988  0.00  0.00    +0.016 A 
ATOM     16  C   UNL     1      -8.476   7.130   3.289  0.00  0.00    +0.013 A 
ATOM     17 BR   UNL     1     -10.718   8.838   6.321  0.00  0.00    -0.050 Br
ENDBRANCH   8  11
ENDBRANCH   3   6
ENDBRANCH   1   2
BRANCH   1  18
ATOM     18  C   UNL     1      -1.333   2.113   0.020  0.00  0.00    -0.020 C 
BRANCH  18  22
ATOM     19  C   UNL     1       2.394   0.021  -0.003  0.00  0.00    +0.120 A 
ATOM     20  C   UNL     1       2.187   1.063   0.889  0.00  0.00    +0.046 A 
ATOM     21  C   UNL     1       0.983   1.739   0.893  0.00  0.00    +0.005 A 
ATOM     22  C   UNL     1      -0.017   1.378   0.009  0.00  0.00    -0.059 A 
ATOM     23  C   UNL     1       0.186   0.340  -0.882  0.00  0.00    +0.005 A 
ATOM     24  C   UNL     1       1.390  -0.339  -0.890  0.00  0.00    +0.046 A 
BRANCH  19  26
ATOM     25  C   UNL     1       3.720  -1.707  -0.955  0.00  0.00    +0.277 C 
ATOM     26  O   UNL     1       3.578  -0.646  -0.009  0.00  0.00    -0.495 OA
ENDBRANCH  19  26
ENDBRANCH  18  22
BRANCH  18  31
ATOM     27  C   UNL     1      -0.047   4.153  -0.319  0.00  0.00    -0.078 C 
ATOM     28  C   UNL     1       0.236   5.073  -1.533  0.00  0.00    -0.020 C 
ATOM     29  C   UNL     1      -0.044   4.150  -2.740  0.00  0.00    -0.020 C 
ATOM     30  C   UNL     1      -0.964   3.042  -2.195  0.00  0.00    -0.078 C 
ATOM     31  N   UNL     1      -1.198   3.364  -0.786  0.00  0.00    +0.385 N 
ATOM     32  H   UNL     1      -2.058   3.917  -0.695  0.00  0.00    -0.081 HD
ENDBRANCH  18  31
ENDBRANCH   1  18
TORSDOF 7
