REMARK  Name = ZINC20205696
REMARK  8 active torsions:
REMARK  status: ('A' for Active; 'I' for Inactive)
REMARK    1  A    between atoms: C_1  and  C_2
REMARK    2  A    between atoms: C_2  and  O_3
REMARK    3  A    between atoms: O_3  and  C_4
REMARK    4  A    between atoms: C_4  and  C_6
REMARK    5  A    between atoms: C_7  and  C_12
REMARK    6  A    between atoms: C_12  and  N_13
REMARK    7  A    between atoms: C_17  and  C_20
REMARK    8  A    between atoms: C_20  and  C_21
REMARK                            x       y       z     vdW  Elec       q    Type
REMARK                         _______ _______ _______ _____ _____    ______ ____
ROOT
ATOM      1  N   UNL     1       2.175  -5.109   0.827  0.00  0.00    -0.293 NA
ATOM      2  C   UNL     1       2.112  -3.993  -0.128  0.00  0.00    +0.113 C 
ATOM      3  C   UNL     1       3.136  -4.223  -1.242  0.00  0.00    +0.175 C 
ATOM      4  O   UNL     1       2.880  -5.485  -1.865  0.00  0.00    -0.374 OA
ATOM      5  C   UNL     1       2.933  -6.594  -0.964  0.00  0.00    +0.137 C 
ATOM      6  C   UNL     1       1.907  -6.387   0.153  0.00  0.00    +0.116 C 
ENDROOT
BRANCH   1   7
ATOM      7  C   UNL     1       1.245  -4.898   1.945  0.00  0.00    +0.123 C 
BRANCH   7   9
ATOM      8  C   UNL     1       1.499  -2.372   2.471  0.00  0.00    +0.147 A 
ATOM      9  C   UNL     1       1.697  -3.713   2.758  0.00  0.00    +0.018 A 
ATOM     10  C   UNL     1       2.405  -3.732   3.962  0.00  0.00    +0.139 A 
ATOM     11  N   UNL     1       2.598  -2.493   4.335  0.00  0.00    -0.181 NA
ATOM     12  N   UNL     1       2.088  -1.674   3.488  0.00  0.00    -0.271 N 
ATOM     13  H   UNL     1       2.114  -0.707   3.559  0.00  0.00    +0.189 HD
BRANCH   8  14
ATOM     14  C   UNL     1       0.801  -1.813   1.304  0.00  0.00    +0.357 C 
ATOM     15  O   UNL     1       0.321  -2.556   0.470  0.00  0.00    -0.243 OA
BRANCH  14  16
ATOM     16  O   UNL     1       0.693  -0.477   1.160  0.00  0.00    -0.460 OA
BRANCH  16  18
ATOM     17  C   UNL     1      -0.019   1.526   0.010  0.00  0.00    +0.048 C 
ATOM     18  C   UNL     1       0.002  -0.004   0.002  0.00  0.00    +0.229 C 
ENDBRANCH  16  18
ENDBRANCH  14  16
ENDBRANCH   8  14
ENDBRANCH   7   9
ENDBRANCH   1   7
BRANCH   5  19
ATOM     19  C   UNL     1       2.613  -7.884  -1.722  0.00  0.00    +0.068 C 
BRANCH  19  20
ATOM     20  C   UNL     1       3.689  -8.148  -2.742  0.00  0.00    -0.037 A 
ATOM     21  C   UNL     1       3.530  -7.731  -4.029  0.00  0.00    +0.004 A 
ATOM     22  C   UNL     1       4.514  -7.966  -4.986  0.00  0.00    +0.001 A 
ATOM     23  C   UNL     1       5.664  -8.619  -4.664  0.00  0.00    +0.008 A 
ATOM     24  C   UNL     1       5.865  -9.064  -3.346  0.00  0.00    -0.018 A 
ATOM     25  C   UNL     1       4.866  -8.819  -2.370  0.00  0.00    -0.015 A 
ATOM     26  C   UNL     1       5.069  -9.259  -1.051  0.00  0.00    +0.009 A 
ATOM     27  C   UNL     1       6.222  -9.907  -0.727  0.00  0.00    +0.001 A 
ATOM     28  C   UNL     1       7.207 -10.141  -1.685  0.00  0.00    +0.001 A 
ATOM     29  C   UNL     1       7.039  -9.742  -2.975  0.00  0.00    +0.008 A 
ENDBRANCH  19  20
ENDBRANCH   5  19
TORSDOF 7
