REMARK  Name = ZINC09185038
REMARK  14 active torsions:
REMARK  status: ('A' for Active; 'I' for Inactive)
REMARK    1  A    between atoms: C_1  and  C_2
REMARK    2  A    between atoms: C_2  and  N_66
REMARK    3  A    between atoms: C_3  and  C_4
REMARK    4  A    between atoms: C_3  and  N_66
REMARK    5  A    between atoms: C_5  and  C_6
REMARK    6  A    between atoms: C_5  and  N_66
REMARK    7  A    between atoms: C_6  and  N_7
REMARK    8  A    between atoms: C_8  and  C_24
REMARK    9  A    between atoms: C_11  and  C_12
REMARK   10  A    between atoms: C_11  and  O_19
REMARK   11  A    between atoms: C_15  and  C_18
REMARK   12  A    between atoms: C_27  and  C_30
REMARK   13  A    between atoms: C_30  and  C_31
REMARK   14  A    between atoms: C_30  and  C_32
REMARK                            x       y       z     vdW  Elec       q    Type
REMARK                         _______ _______ _______ _____ _____    ______ ____
ROOT
ATOM      1  N   UNL     1       1.324   1.693   0.299  0.00  0.00    -0.285 N 
ATOM      2  C   UNL     1       1.114   3.123   0.542  0.00  0.00    +0.144 C 
ATOM      3  C   UNL     1      -0.376   3.322   0.694  0.00  0.00    +0.071 C 
ATOM      4  C   UNL     1      -1.033   4.511   0.936  0.00  0.00    +0.133 C 
ATOM      5  C   UNL     1      -0.958   2.054   0.535  0.00  0.00    +0.249 C 
ATOM      6  O   UNL     1      -2.148   1.802   0.585  0.00  0.00    -0.282 OA
ATOM      7  C   UNL     1       0.134   1.070   0.297  0.00  0.00    +0.288 C 
ATOM      8  O   UNL     1      -0.029  -0.120   0.122  0.00  0.00    -0.266 OA
ENDROOT
BRANCH   4   9
ATOM      9  C   UNL     1      -2.482   4.511   1.205  0.00  0.00    +0.017 A 
ATOM     10  C   UNL     1      -3.337   5.319   0.451  0.00  0.00    +0.012 A 
ATOM     11  C   UNL     1      -4.692   5.310   0.706  0.00  0.00    +0.004 A 
ATOM     12  C   UNL     1      -5.205   4.511   1.712  0.00  0.00    -0.050 A 
ATOM     13  C   UNL     1      -4.364   3.711   2.467  0.00  0.00    +0.004 A 
ATOM     14  C   UNL     1      -3.007   3.706   2.221  0.00  0.00    +0.012 A 
ATOM     15  C   UNL     1      -6.686   4.511   1.988  0.00  0.00    +0.044 C 
ENDBRANCH   4   9
BRANCH   2  16
ATOM     16  C   UNL     1       1.627   3.925  -0.626  0.00  0.00    -0.022 A 
ATOM     17  C   UNL     1       1.428   3.471  -1.916  0.00  0.00    +0.006 A 
ATOM     18  C   UNL     1       1.895   4.210  -2.988  0.00  0.00    +0.004 A 
ATOM     19  C   UNL     1       2.567   5.397  -2.769  0.00  0.00    -0.045 A 
ATOM     20  C   UNL     1       2.770   5.849  -1.478  0.00  0.00    +0.004 A 
ATOM     21  C   UNL     1       2.300   5.112  -0.406  0.00  0.00    +0.006 A 
BRANCH  19  22
ATOM     22  C   UNL     1       3.079   6.200  -3.937  0.00  0.00    +0.013 C 
ATOM     23  C   UNL     1       4.071   5.357  -4.740  0.00  0.00    +0.012 C 
ATOM     24  C   UNL     1       1.906   6.600  -4.834  0.00  0.00    +0.012 C 
ENDBRANCH  19  22
ENDBRANCH   2  16
BRANCH   4  25
ATOM     25  O   UNL     1      -0.349   5.675   0.925  0.00  0.00    -0.506 OA
ATOM     26  H   UNL     1      -0.974   6.431   1.117  0.00  0.00    +0.292 HD
ENDBRANCH   4  25
BRANCH   1  27
ATOM     27  C   UNL     1       2.623   1.046   0.092  0.00  0.00    +0.090 C 
BRANCH  27  28
ATOM     28  C   UNL     1       2.960   1.047  -1.400  0.00  0.00    -0.060 C 
BRANCH  28  29
ATOM     29  N   UNL     1       4.218   0.296  -1.601  0.00  0.00    +0.380 N 
ATOM     30  H   UNL     1       4.881   0.552  -0.860  0.00  0.00    -0.082 HD
BRANCH  29  32
ATOM     31  C   UNL     1       5.293  -1.900  -1.517  0.00  0.00    -0.017 C 
ATOM     32  C   UNL     1       3.955  -1.157  -1.530  0.00  0.00    -0.082 C 
ENDBRANCH  29  32
BRANCH  29  33
ATOM     33  C   UNL     1       4.807   0.640  -2.912  0.00  0.00    -0.082 C 
ATOM     34  C   UNL     1       5.464   2.018  -2.808  0.00  0.00    -0.017 C 
ENDBRANCH  29  33
ENDBRANCH  28  29
ENDBRANCH  27  28
ENDBRANCH   1  27
TORSDOF 9
