REMARK  Name = ZINC09821892
REMARK  6 active torsions:
REMARK  status: ('A' for Active; 'I' for Inactive)
REMARK    1  A    between atoms: C_3  and  S_27
REMARK    2  A    between atoms: C_6  and  N_7
REMARK    3  A    between atoms: C_8  and  C_10
REMARK    4  A    between atoms: C_10  and  N_68
REMARK    5  A    between atoms: C_14  and  C_16
REMARK    6  A    between atoms: S_27  and  N_30
REMARK                            x       y       z     vdW  Elec       q    Type
REMARK                         _______ _______ _______ _____ _____    ______ ____
ROOT
ATOM      1  N   UNL     1       5.299  -2.128  -3.964  0.00  0.00    -0.287 N 
ATOM      2  C   UNL     1       4.935  -3.289  -4.544  0.00  0.00    +0.201 C 
ATOM      3  O   UNL     1       4.146  -4.024  -3.987  0.00  0.00    -0.278 OA
ATOM      4  H   UNL     1       5.869  -1.506  -4.442  0.00  0.00    +0.155 HD
ENDROOT
BRANCH   1  10
ATOM      5  C   UNL     1       4.671  -2.835  -1.742  0.00  0.00    +0.025 A 
ATOM      6  C   UNL     1       4.233  -2.529  -0.468  0.00  0.00    +0.030 A 
ATOM      7  C   UNL     1       3.978  -1.215  -0.120  0.00  0.00    +0.106 A 
ATOM      8  C   UNL     1       4.156  -0.204  -1.047  0.00  0.00    +0.030 A 
ATOM      9  C   UNL     1       4.599  -0.503  -2.320  0.00  0.00    +0.025 A 
ATOM     10  C   UNL     1       4.856  -1.822  -2.673  0.00  0.00    +0.033 A 
BRANCH   7  11
ATOM     11  S   UNL     1       3.419  -0.829   1.505  0.00  0.00    +0.061 S 
ATOM     12  O   UNL     1       2.804  -2.006   2.014  0.00  0.00    -0.153 OA
ATOM     13  O   UNL     1       2.731   0.411   1.414  0.00  0.00    -0.153 OA
BRANCH  11  14
ATOM     14  N   UNL     1       4.762  -0.558   2.434  0.00  0.00    -0.177 NA
ATOM     15  C   UNL     1       5.332   0.792   2.550  0.00  0.00    +0.109 C 
ATOM     16  C   UNL     1       6.819   0.732   2.185  0.00  0.00    +0.017 C 
ATOM     17  C   UNL     1       7.512  -0.320   3.055  0.00  0.00    +0.003 C 
ATOM     18  C   UNL     1       6.893  -1.694   2.787  0.00  0.00    +0.017 C 
ATOM     19  C   UNL     1       5.407  -1.661   3.159  0.00  0.00    +0.109 C 
ENDBRANCH  11  14
ENDBRANCH   7  11
ENDBRANCH   1  10
BRANCH   2  20
ATOM     20  C   UNL     1       5.506  -3.674  -5.884  0.00  0.00    +0.020 C 
BRANCH  20  25
ATOM     21  C   UNL     1       3.526  -4.856  -6.636  0.00  0.00    -0.077 C 
ATOM     22  C   UNL     1       3.357  -5.364  -8.083  0.00  0.00    -0.020 C 
ATOM     23  C   UNL     1       4.602  -6.268  -8.284  0.00  0.00    -0.013 C 
ATOM     24  C   UNL     1       5.677  -5.504  -7.473  0.00  0.00    -0.037 C 
ATOM     25  N   UNL     1       4.951  -4.990  -6.294  0.00  0.00    +0.390 N 
ATOM     26  H   UNL     1       5.053  -5.654  -5.517  0.00  0.00    -0.080 HD
BRANCH  24  27
ATOM     27  C   UNL     1       6.771  -6.444  -7.036  0.00  0.00    -0.057 A 
ATOM     28  C   UNL     1       6.548  -7.325  -5.994  0.00  0.00    +0.006 A 
ATOM     29  C   UNL     1       7.547  -8.191  -5.588  0.00  0.00    +0.049 A 
ATOM     30  C   UNL     1       8.774  -8.173  -6.230  0.00  0.00    +0.162 A 
ATOM     31  C   UNL     1       8.998  -7.289  -7.275  0.00  0.00    +0.162 A 
ATOM     32  C   UNL     1       7.994  -6.427  -7.683  0.00  0.00    +0.051 A 
ATOM     33  O   UNL     1      10.211  -7.278  -7.901  0.00  0.00    -0.488 OA
ATOM     34  C   UNL     1      10.525  -8.438  -8.675  0.00  0.00    +0.232 C 
ATOM     35  C   UNL     1      11.113  -9.530  -7.796  0.00  0.00    +0.082 C 
ATOM     36  C   UNL     1      10.116 -10.047  -6.771  0.00  0.00    +0.232 C 
ATOM     37  O   UNL     1       9.768  -9.021  -5.839  0.00  0.00    -0.488 OA
ENDBRANCH  24  27
ENDBRANCH  20  25
ENDBRANCH   2  20
TORSDOF 6
