REMARK  Name = ZINC20931048
REMARK  5 active torsions:
REMARK  status: ('A' for Active; 'I' for Inactive)
REMARK    1  A    between atoms: C_10  and  C_13
REMARK    2  A    between atoms: C_13  and  C_14
REMARK    3  A    between atoms: N_16  and  C_17
REMARK    4  A    between atoms: C_17  and  C_18
REMARK    5  A    between atoms: C_18  and  N_24
REMARK                            x       y       z     vdW  Elec       q    Type
REMARK                         _______ _______ _______ _____ _____    ______ ____
ROOT
ATOM      1  C   UNL     1      -4.785   4.927  -2.079  0.00  0.00    +0.217 C 
ATOM      2  O   UNL     1      -4.533   5.674  -3.001  0.00  0.00    -0.276 OA
ATOM      3  N   UNL     1      -3.872   4.723  -1.109  0.00  0.00    -0.316 N 
ATOM      4  H   UNL     1      -4.101   4.045  -0.273  0.00  0.00    +0.149 HD
ENDROOT
BRANCH   1   5
ATOM      5  C   UNL     1      -6.119   4.228  -2.019  0.00  0.00    +0.150 C 
BRANCH   5  15
ATOM      6  C   UNL     1      -6.658   0.124  -5.258  0.00  0.00    +0.002 A 
ATOM      7  C   UNL     1      -5.527   0.820  -5.643  0.00  0.00    +0.004 A 
ATOM      8  C   UNL     1      -5.408   2.168  -5.357  0.00  0.00    +0.047 A 
ATOM      9  C   UNL     1      -6.423   2.822  -4.679  0.00  0.00    +0.143 A 
ATOM     10  C   UNL     1      -7.553   2.115  -4.272  0.00  0.00    +0.076 A 
ATOM     11  C   UNL     1      -7.673   0.769  -4.576  0.00  0.00    +0.027 A 
ATOM     12  N   UNL     1      -8.568   2.783  -3.574  0.00  0.00    -0.280 N 
ATOM     13  C   UNL     1      -8.338   4.029  -3.108  0.00  0.00    +0.259 C 
ATOM     14  O   UNL     1      -9.235   4.661  -2.592  0.00  0.00    -0.271 OA
ATOM     15  C   UNL     1      -6.961   4.630  -3.231  0.00  0.00    +0.268 C 
ATOM     16  O   UNL     1      -6.334   4.155  -4.425  0.00  0.00    -0.477 OA
ATOM     17  H   UNL     1      -9.539   2.292  -3.412  0.00  0.00    +0.155 HD
ENDBRANCH   5  15
ENDBRANCH   1   5
BRANCH   3  18
ATOM     18  C   UNL     1      -2.576   5.402  -1.168  0.00  0.00    +0.092 C 
BRANCH  18  19
ATOM     19  C   UNL     1      -1.734   5.000   0.044  0.00  0.00    -0.050 C 
ATOM     20  C   UNL     1      -0.380   5.710  -0.017  0.00  0.00    -0.010 C 
ATOM     21  C   UNL     1      -0.597   7.224  -0.007  0.00  0.00    -0.001 C 
ATOM     22  C   UNL     1      -1.326   7.626   1.277  0.00  0.00    -0.000 C 
ATOM     23  C   UNL     1      -2.680   6.916   1.338  0.00  0.00    -0.001 C 
ATOM     24  C   UNL     1      -2.463   5.402   1.328  0.00  0.00    -0.010 C 
BRANCH  19  25
ATOM     25  N   UNL     1      -1.525   3.546   0.035  0.00  0.00    +0.384 N 
ATOM     26  C   UNL     1      -0.826   3.122  -1.185  0.00  0.00    -0.078 C 
ATOM     27  C   UNL     1      -0.756   1.594  -1.230  0.00  0.00    -0.019 C 
ATOM     28  C   UNL     1      -0.013   1.086   0.008  0.00  0.00    -0.004 C 
ATOM     29  C   UNL     1      -0.732   1.581   1.266  0.00  0.00    -0.019 C 
ATOM     30  C   UNL     1      -0.804   3.109   1.238  0.00  0.00    -0.078 C 
ATOM     31  H   UNL     1      -2.512   3.061   0.041  0.00  0.00    -0.081 HD
ENDBRANCH  19  25
ENDBRANCH  18  19
ENDBRANCH   3  18
TORSDOF 5
