REMARK  Name = ZINC03765982
REMARK  11 active torsions:
REMARK  status: ('A' for Active; 'I' for Inactive)
REMARK    1  A    between atoms: C_1  and  C_2
REMARK    2  A    between atoms: C_5  and  C_8
REMARK    3  A    between atoms: C_8  and  N_9
REMARK    4  A    between atoms: N_9  and  C_10
REMARK    5  A    between atoms: C_10  and  C_12
REMARK    6  A    between atoms: C_10  and  C_15
REMARK    7  A    between atoms: C_12  and  C_13
REMARK    8  A    between atoms: C_12  and  C_14
REMARK    9  A    between atoms: N_17  and  C_18
REMARK   10  A    between atoms: C_27  and  C_29
REMARK   11  A    between atoms: C_29  and  N_30
REMARK                            x       y       z     vdW  Elec       q    Type
REMARK                         _______ _______ _______ _____ _____    ______ ____
ROOT
ATOM      1  N   UNL     1      -1.363   3.167   2.776  0.00  0.00    -0.284 N 
ATOM      2  C   UNL     1      -1.192   4.353   3.394  0.00  0.00    +0.234 C 
ATOM      3  O   UNL     1      -0.484   5.201   2.893  0.00  0.00    -0.274 OA
ENDROOT
BRANCH   1   4
ATOM      4  C   UNL     1      -2.285   2.176   3.336  0.00  0.00    +0.143 C 
BRANCH   4   9
ATOM      5  C   UNL     1      -7.717   4.066   2.774  0.00  0.00    +0.044 C 
ATOM      6  C   UNL     1      -6.301   3.573   2.921  0.00  0.00    -0.050 A 
ATOM      7  C   UNL     1      -5.754   2.745   1.959  0.00  0.00    +0.003 A 
ATOM      8  C   UNL     1      -4.455   2.292   2.093  0.00  0.00    +0.005 A 
ATOM      9  C   UNL     1      -3.701   2.670   3.189  0.00  0.00    -0.030 A 
ATOM     10  C   UNL     1      -4.250   3.494   4.154  0.00  0.00    +0.005 A 
ATOM     11  C   UNL     1      -5.547   3.950   4.017  0.00  0.00    +0.003 A 
ENDBRANCH   4   9
ENDBRANCH   1   4
BRANCH   1  12
ATOM     12  C   UNL     1      -0.626   2.870   1.545  0.00  0.00    +0.165 C 
BRANCH  12  13
ATOM     13  C   UNL     1      -1.601   2.560   0.439  0.00  0.00    +0.238 C 
ATOM     14  O   UNL     1      -2.757   2.916   0.532  0.00  0.00    -0.273 OA
ATOM     15  N   UNL     1      -1.190   1.887  -0.654  0.00  0.00    -0.284 N 
ATOM     16  H   UNL     1      -0.286   1.537  -0.696  0.00  0.00    +0.155 HD
BRANCH  15  17
ATOM     17  C   UNL     1      -2.066   1.694  -1.729  0.00  0.00    +0.037 A 
ATOM     18  C   UNL     1      -1.997   0.528  -2.480  0.00  0.00    +0.027 A 
ATOM     19  C   UNL     1      -2.864   0.334  -3.539  0.00  0.00    +0.051 A 
ATOM     20  C   UNL     1      -3.798   1.306  -3.860  0.00  0.00    +0.166 A 
ATOM     21  C   UNL     1      -3.866   2.479  -3.111  0.00  0.00    +0.168 A 
ATOM     22  C   UNL     1      -3.000   2.670  -2.048  0.00  0.00    +0.072 A 
ATOM     23  O   UNL     1      -4.857   3.266  -3.623  0.00  0.00    -0.453 OA
ATOM     24  C   UNL     1      -5.121   2.746  -4.939  0.00  0.00    +0.466 C 
ATOM     25  O   UNL     1      -4.747   1.359  -4.840  0.00  0.00    -0.453 OA
ENDBRANCH  15  17
ENDBRANCH  12  13
BRANCH  12  26
ATOM     26  C   UNL     1       0.285   1.662   1.775  0.00  0.00    +0.012 C 
ATOM     27  C   UNL     1      -0.569   0.433   2.093  0.00  0.00    +0.009 C 
ATOM     28  C   UNL     1       1.224   1.948   2.949  0.00  0.00    +0.009 C 
ENDBRANCH  12  26
ENDBRANCH   1  12
BRANCH   2  29
ATOM     29  C   UNL     1      -1.879   4.625   4.707  0.00  0.00    +0.210 C 
BRANCH  29  30
ATOM     30  N   UNL     1      -1.196   5.721   5.398  0.00  0.00    -0.255 N 
ATOM     31  C   UNL     1      -1.522   7.067   5.249  0.00  0.00    +0.048 A 
ATOM     32  C   UNL     1      -2.491   7.697   4.479  0.00  0.00    +0.024 A 
ATOM     33  C   UNL     1      -2.614   9.074   4.506  0.00  0.00    +0.002 A 
ATOM     34  C   UNL     1      -1.778   9.843   5.298  0.00  0.00    +0.001 A 
ATOM     35  C   UNL     1      -0.808   9.237   6.072  0.00  0.00    +0.014 A 
ATOM     36  C   UNL     1      -0.675   7.849   6.051  0.00  0.00    +0.048 A 
ATOM     37  C   UNL     1       0.234   6.915   6.740  0.00  0.00    +0.250 C 
ATOM     38  O   UNL     1       1.119   7.186   7.525  0.00  0.00    -0.282 OA
ATOM     39  C   UNL     1      -0.179   5.554   6.262  0.00  0.00    +0.292 C 
ATOM     40  O   UNL     1       0.316   4.497   6.591  0.00  0.00    -0.266 OA
ENDBRANCH  29  30
ENDBRANCH   2  29
TORSDOF 8
