REMARK  Name = ZINC03246990
REMARK  8 active torsions:
REMARK  status: ('A' for Active; 'I' for Inactive)
REMARK    1  A    between atoms: C_10  and  C_12
REMARK    2  A    between atoms: C_12  and  O_13
REMARK    3  A    between atoms: O_13  and  C_14
REMARK    4  A    between atoms: C_14  and  C_16
REMARK    5  A    between atoms: C_21  and  N_22
REMARK    6  A    between atoms: N_22  and  C_23
REMARK    7  A    between atoms: C_26  and  S_29
REMARK    8  A    between atoms: S_29  and  C_30
REMARK                            x       y       z     vdW  Elec       q    Type
REMARK                         _______ _______ _______ _____ _____    ______ ____
ROOT
ATOM      1  C   UNL     1      -0.643   1.617   7.398  0.00  0.00    +0.080 A 
ATOM      2  C   UNL     1       0.435   0.744   7.570  0.00  0.00    +0.017 A 
ATOM      3  C   UNL     1       0.817   0.365   8.838  0.00  0.00    +0.001 A 
ATOM      4  C   UNL     1       0.137   0.845   9.947  0.00  0.00    +0.002 A 
ATOM      5  C   UNL     1      -0.928   1.707   9.795  0.00  0.00    +0.024 A 
ATOM      6  C   UNL     1      -1.326   2.105   8.524  0.00  0.00    +0.045 A 
ENDROOT
BRANCH   1   7
ATOM      7  C   UNL     1      -1.056   2.027   6.045  0.00  0.00    +0.341 C 
ATOM      8  O   UNL     1      -1.928   2.862   5.903  0.00  0.00    -0.245 OA
BRANCH   7   9
ATOM      9  O   UNL     1      -0.468   1.476   4.965  0.00  0.00    -0.452 OA
BRANCH   9  10
ATOM     10  C   UNL     1      -0.926   1.928   3.663  0.00  0.00    +0.328 C 
BRANCH  10  20
ATOM     11  C   UNL     1      -3.134   4.083  -0.488  0.00  0.00    +0.000 A 
ATOM     12  C   UNL     1      -3.110   4.043   0.894  0.00  0.00    +0.002 A 
ATOM     13  C   UNL     1      -2.237   3.201   1.549  0.00  0.00    +0.024 A 
ATOM     14  C   UNL     1      -1.371   2.382   0.823  0.00  0.00    +0.040 A 
ATOM     15  C   UNL     1      -1.403   2.429  -0.562  0.00  0.00    -0.024 A 
ATOM     16  C   UNL     1      -2.280   3.275  -1.214  0.00  0.00    +0.005 A 
ATOM     17  C   UNL     1      -0.378   1.456  -1.100  0.00  0.00    +0.056 C 
ATOM     18  C   UNL     1       0.259   0.832   0.152  0.00  0.00    +0.118 C 
ATOM     19  N   UNL     1      -0.417   1.467   1.287  0.00  0.00    -0.268 N 
ATOM     20  C   UNL     1      -0.160   1.207   2.584  0.00  0.00    +0.258 C 
ATOM     21  O   UNL     1       0.688   0.392   2.882  0.00  0.00    -0.272 OA
ENDBRANCH  10  20
ENDBRANCH   9  10
ENDBRANCH   7   9
ENDBRANCH   1   7
BRANCH   6  22
ATOM     22  N   UNL     1      -2.395   2.977   8.368  0.00  0.00    -0.314 N 
ATOM     23  H   UNL     1      -2.263   3.932   8.479  0.00  0.00    +0.152 HD
BRANCH  22  24
ATOM     24  C   UNL     1      -3.665   2.479   8.052  0.00  0.00    +0.031 A 
ATOM     25  C   UNL     1      -3.862   1.109   7.929  0.00  0.00    +0.024 A 
ATOM     26  C   UNL     1      -5.115   0.617   7.621  0.00  0.00    +0.017 A 
ATOM     27  C   UNL     1      -6.176   1.492   7.425  0.00  0.00    +0.013 A 
ATOM     28  C   UNL     1      -5.977   2.862   7.544  0.00  0.00    +0.017 A 
ATOM     29  C   UNL     1      -4.725   3.354   7.856  0.00  0.00    +0.024 A 
BRANCH  27  30
ATOM     30  S   UNL     1      -7.774   0.865   7.028  0.00  0.00    -0.056 S 
BRANCH  30  31
ATOM     31  C   UNL     1      -7.540  -0.934   6.985  0.00  0.00    +0.404 C 
ATOM     32  F   UNL     1      -6.590  -1.258   6.012  0.00  0.00    -0.197 F 
ATOM     33  F   UNL     1      -7.097  -1.376   8.236  0.00  0.00    -0.197 F 
ENDBRANCH  30  31
ENDBRANCH  27  30
ENDBRANCH  22  24
ENDBRANCH   6  22
TORSDOF 8
