REMARK  Name = ZINC36585236
REMARK  10 active torsions:
REMARK  status: ('A' for Active; 'I' for Inactive)
REMARK    1  A    between atoms: C_1  and  C_2
REMARK    2  A    between atoms: C_2  and  C_3
REMARK    3  A    between atoms: C_2  and  C_4
REMARK    4  A    between atoms: C_2  and  N_5
REMARK    5  A    between atoms: N_5  and  C_6
REMARK    6  A    between atoms: C_6  and  C_8
REMARK    7  A    between atoms: C_6  and  C_18
REMARK    8  A    between atoms: C_10  and  N_15
REMARK    9  A    between atoms: N_20  and  C_21
REMARK   10  A    between atoms: C_27  and  C_29
REMARK                            x       y       z     vdW  Elec       q    Type
REMARK                         _______ _______ _______ _____ _____    ______ ____
ROOT
ATOM      1  C   UNL     1       1.377   0.082  -2.250  0.00  0.00    +0.194 C 
ENDROOT
BRANCH   1   2
ATOM      2  C   UNL     1       2.753  -0.483  -2.011  0.00  0.00    +0.002 A 
ATOM      3  C   UNL     1       3.086  -0.992  -0.770  0.00  0.00    +0.040 A 
ATOM      4  C   UNL     1       4.348  -1.510  -0.550  0.00  0.00    +0.127 A 
ATOM      5  C   UNL     1       5.279  -1.520  -1.572  0.00  0.00    +0.034 A 
ATOM      6  C   UNL     1       4.947  -1.013  -2.814  0.00  0.00    +0.022 A 
ATOM      7  C   UNL     1       3.682  -0.499  -3.036  0.00  0.00    +0.047 A 
ATOM      8 CL   UNL     1       3.263   0.132  -4.598  0.00  0.00    -0.083 Cl
BRANCH   4   9
ATOM      9  N   UNL     1       4.704  -2.053   0.780  0.00  0.00    +0.056 N 
ATOM     10  O   UNL     1       3.890  -2.044   1.674  0.00  0.00    -0.126 OA
ATOM     11  O   UNL     1       5.808  -2.507   0.972  0.00  0.00    -0.126 OA
ENDBRANCH   4   9
ENDBRANCH   1   2
BRANCH   1  12
ATOM     12  C   UNL     1       1.449   1.587  -2.270  0.00  0.00    +0.238 C 
ATOM     13  O   UNL     1       0.675   2.240  -1.603  0.00  0.00    -0.273 OA
ATOM     14  N   UNL     1       2.373   2.208  -3.030  0.00  0.00    -0.311 N 
ATOM     15  H   UNL     1       2.990   1.686  -3.566  0.00  0.00    +0.149 HD
BRANCH  14  16
ATOM     16  C   UNL     1       2.447   3.671  -3.045  0.00  0.00    +0.073 C 
ATOM     17  C   UNL     1       1.451   4.221  -4.067  0.00  0.00    +0.022 C 
ATOM     18  C   UNL     1       1.528   5.749  -4.083  0.00  0.00    +0.002 C 
ATOM     19  C   UNL     1       2.944   6.185  -4.465  0.00  0.00    +0.000 C 
ATOM     20  C   UNL     1       3.940   5.635  -3.442  0.00  0.00    +0.002 C 
ATOM     21  C   UNL     1       3.863   4.106  -3.427  0.00  0.00    +0.022 C 
ENDBRANCH  14  16
ENDBRANCH   1  12
BRANCH   1  22
ATOM     22  N   UNL     1       0.478  -0.350  -1.177  0.00  0.00    -0.277 N 
ATOM     23  C   UNL     1       0.354   0.396  -0.061  0.00  0.00    +0.248 C 
ATOM     24  O   UNL     1      -0.451   0.082   0.794  0.00  0.00    -0.270 OA
BRANCH  23  25
ATOM     25  C   UNL     1       1.198   1.596   0.124  0.00  0.00    +0.038 A 
ATOM     26  C   UNL     1       2.386   1.735  -0.596  0.00  0.00    +0.013 A 
ATOM     27  C   UNL     1       3.169   2.857  -0.420  0.00  0.00    +0.002 A 
ATOM     28  C   UNL     1       2.779   3.844   0.468  0.00  0.00    +0.020 A 
ATOM     29  C   UNL     1       1.602   3.713   1.185  0.00  0.00    +0.042 A 
ATOM     30  C   UNL     1       0.807   2.597   1.014  0.00  0.00    +0.033 A 
ATOM     31 CL   UNL     1       1.122   4.957   2.296  0.00  0.00    -0.084 Cl
ENDBRANCH  23  25
BRANCH  22  33
ATOM     32  C   UNL     1       0.046  -2.247  -2.659  0.00  0.00    +0.031 C 
ATOM     33  C   UNL     1      -0.286  -1.592  -1.317  0.00  0.00    +0.030 C 
ATOM     34  C   UNL     1      -1.782  -1.279  -1.258  0.00  0.00    +0.031 C 
ATOM     35  C   UNL     1       0.081  -2.547  -0.179  0.00  0.00    +0.031 C 
ENDBRANCH  22  33
ENDBRANCH   1  22
TORSDOF 7
