REMARK  Name = ZINC21232109
REMARK  8 active torsions:
REMARK  status: ('A' for Active; 'I' for Inactive)
REMARK    1  A    between atoms: C_1  and  C_2
REMARK    2  A    between atoms: C_2  and  N_3
REMARK    3  A    between atoms: C_13  and  S_14
REMARK    4  A    between atoms: S_14  and  C_15
REMARK    5  A    between atoms: C_15  and  C_17
REMARK    6  A    between atoms: C_15  and  C_20
REMARK    7  A    between atoms: C_17  and  C_18
REMARK    8  A    between atoms: C_17  and  C_19
REMARK                            x       y       z     vdW  Elec       q    Type
REMARK                         _______ _______ _______ _____ _____    ______ ____
ROOT
ATOM      1  N   UNL     1      -3.496   1.235  -2.043  0.00  0.00    -0.288 N 
ATOM      2  C   UNL     1      -4.727   0.698  -1.875  0.00  0.00    +0.262 A 
ATOM      3  O   UNL     1      -5.636   0.953  -2.643  0.00  0.00    -0.267 OA
ATOM      4  C   UNL     1      -4.927  -0.199  -0.729  0.00  0.00    +0.066 A 
ATOM      5  C   UNL     1      -6.159  -0.796  -0.468  0.00  0.00    +0.030 A 
ATOM      6  C   UNL     1      -6.290  -1.630   0.622  0.00  0.00    +0.019 A 
ATOM      7  C   UNL     1      -5.207  -1.876   1.457  0.00  0.00    +0.017 A 
ATOM      8  C   UNL     1      -3.991  -1.300   1.220  0.00  0.00    +0.029 A 
ATOM      9  C   UNL     1      -3.827  -0.450   0.122  0.00  0.00    +0.079 A 
ATOM     10  N   UNL     1      -2.638   0.139  -0.146  0.00  0.00    -0.223 NA
ATOM     11  C   UNL     1      -2.485   0.935  -1.175  0.00  0.00    +0.173 A 
ATOM     12 BR   UNL     1      -7.957  -2.445   0.984  0.00  0.00    -0.050 Br
ENDROOT
BRANCH   1  14
ATOM     13  C   UNL     1      -2.785   1.330  -4.381  0.00  0.00    +0.027 C 
ATOM     14  C   UNL     1      -3.245   2.140  -3.167  0.00  0.00    +0.124 C 
ENDBRANCH   1  14
BRANCH  11  15
ATOM     15  S   UNL     1      -0.902   1.659  -1.449  0.00  0.00    -0.075 S 
BRANCH  15  16
ATOM     16  C   UNL     1      -0.032   1.081   0.030  0.00  0.00    +0.143 C 
BRANCH  16  17
ATOM     17  C   UNL     1       1.433   1.411  -0.088  0.00  0.00    +0.234 C 
ATOM     18  O   UNL     1       1.793   2.332  -0.791  0.00  0.00    -0.274 OA
ATOM     19  N   UNL     1       2.345   0.684   0.588  0.00  0.00    -0.239 N 
ATOM     20  C   UNL     1       3.655   0.979   0.482  0.00  0.00    +0.303 C 
ATOM     21  O   UNL     1       4.016   1.902  -0.222  0.00  0.00    -0.253 OA
ATOM     22  N   UNL     1       4.567   0.251   1.158  0.00  0.00    -0.313 N 
ATOM     23  H   UNL     1       2.018  -0.151   1.225  0.00  0.00    +0.159 HD
ATOM     24  H   UNL     1       5.636   0.492   1.072  0.00  0.00    +0.146 HD
ATOM     25  H   UNL     1       4.240  -0.584   1.795  0.00  0.00    +0.146 HD
ENDBRANCH  16  17
BRANCH  16  26
ATOM     26  C   UNL     1      -0.613   1.772   1.265  0.00  0.00    +0.005 C 
ATOM     27  C   UNL     1       0.024   1.183   2.525  0.00  0.00    +0.009 C 
ATOM     28  C   UNL     1      -0.317   3.271   1.198  0.00  0.00    +0.009 C 
ENDBRANCH  16  26
ENDBRANCH  15  16
ENDBRANCH  11  15
TORSDOF 5
