REMARK  Name = ZINC10278728
REMARK  7 active torsions:
REMARK  status: ('A' for Active; 'I' for Inactive)
REMARK    1  A    between atoms: C_1  and  C_2
REMARK    2  A    between atoms: C_5  and  C_8
REMARK    3  A    between atoms: C_8  and  C_34
REMARK    4  A    between atoms: N_11  and  C_15
REMARK    5  A    between atoms: C_15  and  N_67
REMARK    6  A    between atoms: N_18  and  S_21
REMARK    7  A    between atoms: S_21  and  C_24
REMARK                            x       y       z     vdW  Elec       q    Type
REMARK                         _______ _______ _______ _____ _____    ______ ____
ROOT
ATOM      1  C   UNL     1       0.268   4.003   1.975  0.00  0.00    -0.059 C 
ATOM      2  C   UNL     1       0.415   4.320   3.467  0.00  0.00    +0.091 C 
ATOM      3  N   UNL     1       1.355   5.442   3.616  0.00  0.00    -0.180 NA
ATOM      4  C   UNL     1       2.659   5.351   2.942  0.00  0.00    +0.091 C 
ATOM      5  C   UNL     1       2.423   4.994   1.471  0.00  0.00    -0.059 C 
ATOM      6  N   UNL     1       1.611   3.759   1.406  0.00  0.00    +0.392 N 
ATOM      7  H   UNL     1       2.077   3.026   1.954  0.00  0.00    -0.079 HD
ENDROOT
BRANCH   3   8
ATOM      8  S   UNL     1       0.954   6.771   4.518  0.00  0.00    +0.061 S 
ATOM      9  O   UNL     1      -0.036   6.349   5.446  0.00  0.00    -0.153 OA
ATOM     10  O   UNL     1       2.178   7.367   4.928  0.00  0.00    -0.153 OA
BRANCH   8  11
ATOM     11  C   UNL     1       0.173   7.920   3.435  0.00  0.00    +0.106 A 
ATOM     12  C   UNL     1       0.927   8.865   2.764  0.00  0.00    +0.029 A 
ATOM     13  C   UNL     1       0.309   9.759   1.915  0.00  0.00    +0.006 A 
ATOM     14  C   UNL     1      -1.069   9.726   1.737  0.00  0.00    -0.044 A 
ATOM     15  C   UNL     1      -1.820   8.786   2.407  0.00  0.00    -0.042 A 
ATOM     16  C   UNL     1      -1.194   7.884   3.257  0.00  0.00    +0.032 A 
ATOM     17  C   UNL     1      -3.315   8.686   2.254  0.00  0.00    +0.035 C 
ATOM     18  C   UNL     1      -3.882   9.972   1.656  0.00  0.00    +0.005 C 
ATOM     19  C   UNL     1      -3.085  10.309   0.391  0.00  0.00    +0.005 C 
ATOM     20  C   UNL     1      -1.680  10.740   0.806  0.00  0.00    +0.035 C 
ENDBRANCH   8  11
ENDBRANCH   3   8
BRANCH   6  21
ATOM     21  C   UNL     1       1.491   3.307   0.005  0.00  0.00    +0.043 C 
BRANCH  21  25
ATOM     22  C   UNL     1       1.419  -0.406  -0.014  0.00  0.00    +0.135 C 
ATOM     23  C   UNL     1       2.164   0.914  -0.014  0.00  0.00    +0.249 C 
ATOM     24  O   UNL     1       3.365   1.077  -0.025  0.00  0.00    -0.272 OA
ATOM     25  N   UNL     1       1.213   1.869   0.001  0.00  0.00    -0.241 N 
ATOM     26  C   UNL     1      -0.016   1.341   0.009  0.00  0.00    +0.308 C 
ATOM     27  O   UNL     1      -1.036   2.003   0.018  0.00  0.00    -0.252 OA
ATOM     28  N   UNL     1       0.002  -0.004   0.002  0.00  0.00    -0.281 N 
ATOM     29  C   UNL     1       1.737  -1.208  -1.278  0.00  0.00    +0.047 C 
ATOM     30  H   UNL     1      -0.768  -0.594   0.006  0.00  0.00    +0.152 HD
BRANCH  22  35
ATOM     31  C   UNL     1       2.715  -3.472   4.710  0.00  0.00    +0.044 C 
ATOM     32  C   UNL     1       2.377  -2.673   3.478  0.00  0.00    -0.050 A 
ATOM     33  C   UNL     1       1.106  -2.738   2.939  0.00  0.00    +0.004 A 
ATOM     34  C   UNL     1       0.796  -2.005   1.809  0.00  0.00    +0.006 A 
ATOM     35  C   UNL     1       1.757  -1.206   1.218  0.00  0.00    -0.016 A 
ATOM     36  C   UNL     1       3.030  -1.144   1.754  0.00  0.00    +0.006 A 
ATOM     37  C   UNL     1       3.339  -1.874   2.887  0.00  0.00    +0.004 A 
ENDBRANCH  22  35
ENDBRANCH  21  25
ENDBRANCH   6  21
TORSDOF 5
