REMARK  Name = ZINC59497655
REMARK  6 active torsions:
REMARK  status: ('A' for Active; 'I' for Inactive)
REMARK    1  A    between atoms: C_1  and  C_2
REMARK    2  A    between atoms: C_2  and  C_23
REMARK    3  A    between atoms: C_4  and  N_11
REMARK    4  A    between atoms: C_7  and  C_9
REMARK    5  A    between atoms: C_7  and  C_10
REMARK    6  A    between atoms: C_23  and  N_24
REMARK                            x       y       z     vdW  Elec       q    Type
REMARK                         _______ _______ _______ _____ _____    ______ ____
ROOT
ATOM      1  C   UNL     1       0.174   1.525   0.241  0.00  0.00    +0.013 C 
ATOM      2  C   UNL     1       0.141  -0.002   0.151  0.00  0.00    -0.014 C 
ATOM      3  C   UNL     1       0.525  -0.473  -1.243  0.00  0.00    +0.030 C 
ATOM      4  C   UNL     1       2.019  -0.419  -1.510  0.00  0.00    +0.076 C 
ATOM      5  C   UNL     1       2.812  -1.143  -0.437  0.00  0.00    +0.028 C 
ATOM      6  C   UNL     1       2.472  -0.702   0.977  0.00  0.00    -0.033 C 
ATOM      7  C   UNL     1       0.980  -0.637   1.242  0.00  0.00    +0.014 C 
ATOM      8  C   UNL     1       3.067  -1.757   1.942  0.00  0.00    +0.011 C 
ATOM      9  C   UNL     1       3.150   0.630   1.310  0.00  0.00    +0.011 C 
ENDROOT
BRANCH   4  10
ATOM     10  N   UNL     1       2.493   0.945  -1.718  0.00  0.00    -0.296 N 
ATOM     11  C   UNL     1       3.581   1.171  -2.482  0.00  0.00    +0.307 C 
ATOM     12  O   UNL     1       4.111   0.250  -3.072  0.00  0.00    -0.252 OA
ATOM     13  N   UNL     1       4.080   2.418  -2.591  0.00  0.00    -0.255 N 
ATOM     14  C   UNL     1       3.469   3.621  -2.018  0.00  0.00    +0.120 C 
ATOM     15  C   UNL     1       4.404   4.775  -2.412  0.00  0.00    +0.056 C 
ATOM     16  C   UNL     1       5.511   4.116  -3.204  0.00  0.00    -0.024 A 
ATOM     17  C   UNL     1       5.260   2.754  -3.262  0.00  0.00    +0.041 A 
ATOM     18  C   UNL     1       6.155   1.928  -3.944  0.00  0.00    +0.024 A 
ATOM     19  C   UNL     1       7.274   2.464  -4.547  0.00  0.00    +0.002 A 
ATOM     20  C   UNL     1       7.517   3.823  -4.480  0.00  0.00    +0.000 A 
ATOM     21  C   UNL     1       6.630   4.648  -3.813  0.00  0.00    +0.005 A 
ATOM     22  H   UNL     1       2.026   1.689  -1.308  0.00  0.00    +0.151 HD
ENDBRANCH   4  10
BRANCH   2  23
ATOM     23  C   UNL     1      -1.329  -0.431   0.389  0.00  0.00    +0.112 C 
BRANCH  23  24
ATOM     24  N   UNL     1      -2.186   0.171  -0.636  0.00  0.00    -0.298 N 
ATOM     25  C   UNL     1      -3.513  -0.065  -0.628  0.00  0.00    +0.307 C 
ATOM     26  O   UNL     1      -4.012  -0.699   0.282  0.00  0.00    -0.252 OA
ATOM     27  N   UNL     1      -4.286   0.402  -1.628  0.00  0.00    -0.255 N 
ATOM     28  C   UNL     1      -3.788   1.070  -2.833  0.00  0.00    +0.120 C 
ATOM     29  C   UNL     1      -5.042   1.407  -3.655  0.00  0.00    +0.056 C 
ATOM     30  C   UNL     1      -6.193   0.886  -2.825  0.00  0.00    -0.024 A 
ATOM     31  C   UNL     1      -5.681   0.314  -1.671  0.00  0.00    +0.041 A 
ATOM     32  C   UNL     1      -6.561  -0.245  -0.743  0.00  0.00    +0.024 A 
ATOM     33  C   UNL     1      -7.920  -0.229  -0.977  0.00  0.00    +0.002 A 
ATOM     34  C   UNL     1      -8.421   0.341  -2.132  0.00  0.00    +0.000 A 
ATOM     35  C   UNL     1      -7.556   0.903  -3.053  0.00  0.00    +0.005 A 
ATOM     36  H   UNL     1      -1.798   0.738  -1.320  0.00  0.00    +0.150 HD
ENDBRANCH  23  24
ENDBRANCH   2  23
TORSDOF 3
