REMARK  Name = ZINC39311437
REMARK  4 active torsions:
REMARK  status: ('A' for Active; 'I' for Inactive)
REMARK    1  A    between atoms: C_1  and  N_2
REMARK    2  A    between atoms: C_14  and  S_16
REMARK    3  A    between atoms: S_16  and  C_17
REMARK    4  A    between atoms: C_17  and  C_18
REMARK                            x       y       z     vdW  Elec       q    Type
REMARK                         _______ _______ _______ _____ _____    ______ ____
ROOT
ATOM      1  C   UNL     1      -0.448   1.716   0.798  0.00  0.00    +0.132 C 
ATOM      2  N   UNL     1      -0.400   0.265   0.601  0.00  0.00    -0.300 N 
ATOM      3  C   UNL     1      -0.523  -0.420  -0.620  0.00  0.00    +0.053 A 
ATOM      4  C   UNL     1      -0.568   0.058  -1.923  0.00  0.00    +0.025 A 
ATOM      5  C   UNL     1      -0.654  -0.823  -2.984  0.00  0.00    +0.002 A 
ATOM      6  C   UNL     1      -0.697  -2.185  -2.752  0.00  0.00    +0.002 A 
ATOM      7  C   UNL     1      -0.672  -2.670  -1.459  0.00  0.00    +0.025 A 
ATOM      8  C   UNL     1      -0.602  -1.793  -0.383  0.00  0.00    +0.055 A 
ATOM      9  N   UNL     1      -0.646  -2.018   0.989  0.00  0.00    -0.271 N 
ATOM     10  C   UNL     1      -0.210  -0.750   1.633  0.00  0.00    +0.251 C 
ATOM     11  N   UNL     1      -1.171  -0.620   2.749  0.00  0.00    -0.218 NA
ATOM     12  N   UNL     1      -1.318  -1.996   3.247  0.00  0.00    -0.225 NA
ATOM     13  C   UNL     1      -0.962  -2.893   2.122  0.00  0.00    +0.219 C 
ATOM     14  H   UNL     1      -0.809  -0.011   3.468  0.00  0.00    +0.144 HD
ATOM     15  H   UNL     1      -0.725  -2.156   4.047  0.00  0.00    +0.144 HD
ENDROOT
BRANCH  13  16
ATOM     16  S   UNL     1       0.491  -3.882   2.570  0.00  0.00    -0.114 S 
BRANCH  16  17
ATOM     17  C   UNL     1       1.789  -2.649   2.863  0.00  0.00    +0.146 C 
BRANCH  17  18
ATOM     18  C   UNL     1       3.027  -3.336   3.378  0.00  0.00    +0.118 A 
ATOM     19  N   UNL     1       3.986  -3.801   2.633  0.00  0.00    -0.232 NA
ATOM     20  C   UNL     1       4.946  -4.356   3.417  0.00  0.00    +0.089 A 
ATOM     21  C   UNL     1       6.164  -4.986   3.149  0.00  0.00    +0.030 A 
ATOM     22  C   UNL     1       6.931  -5.452   4.180  0.00  0.00    +0.002 A 
ATOM     23  C   UNL     1       6.513  -5.306   5.495  0.00  0.00    +0.002 A 
ATOM     24  C   UNL     1       5.314  -4.688   5.783  0.00  0.00    +0.028 A 
ATOM     25  C   UNL     1       4.522  -4.208   4.749  0.00  0.00    +0.066 A 
ATOM     26  N   UNL     1       3.308  -3.554   4.691  0.00  0.00    -0.341 N 
ATOM     27  H   UNL     1       2.756  -3.299   5.447  0.00  0.00    +0.167 HD
ENDBRANCH  17  18
ENDBRANCH  16  17
ENDBRANCH  13  16
TORSDOF 3
