REMARK  Name = ZINC38536839
REMARK  6 active torsions:
REMARK  status: ('A' for Active; 'I' for Inactive)
REMARK    1  A    between atoms: C_1  and  C_2
REMARK    2  A    between atoms: C_5  and  N_9
REMARK    3  A    between atoms: C_6  and  C_8
REMARK    4  A    between atoms: C_10  and  C_12
REMARK    5  A    between atoms: C_12  and  S_13
REMARK    6  A    between atoms: S_13  and  C_14
REMARK                            x       y       z     vdW  Elec       q    Type
REMARK                         _______ _______ _______ _____ _____    ______ ____
ROOT
ATOM      1  C   UNL     1      -0.356  -8.692  -2.728  0.00  0.00    +0.205 C 
ATOM      2  N   UNL     1      -0.333  -9.187  -1.527  0.00  0.00    -0.233 NA
ATOM      3  C   UNL     1      -0.415 -10.651  -1.363  0.00  0.00    +0.220 C 
ATOM      4  C   UNL     1      -0.500 -11.459  -2.682  0.00  0.00    +0.173 C 
ATOM      5  C   UNL     1      -1.843 -12.148  -2.614  0.00  0.00    +0.001 A 
ATOM      6  C   UNL     1      -2.468 -13.003  -3.503  0.00  0.00    +0.007 A 
ATOM      7  C   UNL     1      -3.720 -13.512  -3.215  0.00  0.00    +0.000 A 
ATOM      8  C   UNL     1      -4.348 -13.164  -2.033  0.00  0.00    +0.002 A 
ATOM      9  C   UNL     1      -3.730 -12.312  -1.143  0.00  0.00    +0.023 A 
ATOM     10  C   UNL     1      -2.465 -11.793  -1.427  0.00  0.00    +0.034 A 
ATOM     11  N   UNL     1      -1.667 -10.926  -0.655  0.00  0.00    -0.320 N 
ATOM     12  N   UNL     1      -0.480 -10.664  -3.921  0.00  0.00    -0.295 N 
ATOM     13  N   UNL     1      -0.458  -9.432  -3.864  0.00  0.00    -0.151 NA
ATOM     14  H   UNL     1      -1.906 -10.560   0.210  0.00  0.00    +0.148 HD
ATOM     15  H   UNL     1      -0.534 -11.107  -4.782  0.00  0.00    +0.183 HD
ENDROOT
BRANCH   1  16
ATOM     16  S   UNL     1      -0.255  -6.941  -2.895  0.00  0.00    -0.075 S 
BRANCH  16  17
ATOM     17  C   UNL     1      -0.134  -6.343  -1.187  0.00  0.00    +0.173 C 
BRANCH  17  19
ATOM     18  N   UNL     1       0.059  -4.170  -0.021  0.00  0.00    -0.285 N 
ATOM     19  C   UNL     1      -0.040  -4.839  -1.187  0.00  0.00    +0.227 C 
ATOM     20  O   UNL     1      -0.054  -4.230  -2.236  0.00  0.00    -0.275 OA
ATOM     21  H   UNL     1       0.135  -4.658   0.814  0.00  0.00    +0.155 HD
BRANCH  18  26
ATOM     22  C   UNL     1       0.025   1.503   0.005  0.00  0.00    +0.044 C 
ATOM     23  C   UNL     1       0.034  -0.004  -0.002  0.00  0.00    -0.050 A 
ATOM     24  C   UNL     1       0.632  -0.685  -1.046  0.00  0.00    +0.005 A 
ATOM     25  C   UNL     1       0.641  -2.066  -1.055  0.00  0.00    +0.024 A 
ATOM     26  C   UNL     1       0.051  -2.771  -0.014  0.00  0.00    +0.036 A 
ATOM     27  C   UNL     1      -0.548  -2.083   1.033  0.00  0.00    -0.029 A 
ATOM     28  C   UNL     1      -0.550  -0.702   1.039  0.00  0.00    +0.008 A 
ATOM     29  C   UNL     1      -1.190  -2.843   2.165  0.00  0.00    +0.045 C 
ENDBRANCH  18  26
ENDBRANCH  17  19
ENDBRANCH  16  17
ENDBRANCH   1  16
TORSDOF 4
