REMARK  Name = ZINC39624440
REMARK  8 active torsions:
REMARK  status: ('A' for Active; 'I' for Inactive)
REMARK    1  A    between atoms: C_1  and  C_2
REMARK    2  A    between atoms: C_3  and  C_15
REMARK    3  A    between atoms: C_4  and  C_7
REMARK    4  A    between atoms: C_19  and  C_28
REMARK    5  A    between atoms: N_30  and  C_31
REMARK    6  A    between atoms: C_31  and  C_32
REMARK    7  A    between atoms: C_32  and  C_33
REMARK    8  A    between atoms: C_32  and  C_34
REMARK                            x       y       z     vdW  Elec       q    Type
REMARK                         _______ _______ _______ _____ _____    ______ ____
ROOT
ATOM      1  C   UNL     1      -2.482  -0.398   0.234  0.00  0.00    +0.252 C 
ATOM      2  O   UNL     1      -3.188  -0.308  -0.753  0.00  0.00    -0.270 OA
ATOM      3  N   UNL     1      -2.986  -0.110   1.451  0.00  0.00    -0.296 N 
ATOM      4  C   UNL     1      -2.319  -0.254   2.767  0.00  0.00    +0.121 C 
ATOM      5  C   UNL     1      -2.762   0.992   3.566  0.00  0.00    +0.100 C 
ATOM      6  C   UNL     1      -4.083   1.429   2.912  0.00  0.00    -0.004 C 
ATOM      7  C   UNL     1      -4.329   0.428   1.774  0.00  0.00    +0.115 C 
ATOM      8  C   UNL     1      -3.951   2.840   2.346  0.00  0.00    -0.010 C 
ATOM      9  C   UNL     1      -5.294   3.274   1.751  0.00  0.00    -0.082 C 
ATOM     10  N   UNL     1      -6.327   3.238   2.794  0.00  0.00    +0.379 N 
ATOM     11  C   UNL     1      -6.513   1.861   3.268  0.00  0.00    -0.082 C 
ATOM     12  C   UNL     1      -5.221   1.367   3.926  0.00  0.00    -0.010 C 
ATOM     13  H   UNL     1      -6.044   3.823   3.566  0.00  0.00    -0.086 HD
ATOM     14  H   UNL     1      -7.197   3.582   2.416  0.00  0.00    -0.086 HD
ENDROOT
BRANCH   1  17
ATOM     15  C   UNL     1      -0.079   1.446  -0.535  0.00  0.00    +0.090 C 
ATOM     16  C   UNL     1      -0.018  -0.030  -0.235  0.00  0.00    +0.147 A 
ATOM     17  C   UNL     1      -1.078  -0.821   0.099  0.00  0.00    +0.106 A 
ATOM     18  C   UNL     1      -0.548  -2.178   0.300  0.00  0.00    +0.130 A 
ATOM     19  N   UNL     1       0.742  -2.118   0.083  0.00  0.00    -0.077 NA
ATOM     20  O   UNL     1       1.081  -0.788  -0.256  0.00  0.00    -0.359 OA
BRANCH  18  21
ATOM     21  C   UNL     1      -1.325  -3.383   0.676  0.00  0.00    +0.058 A 
ATOM     22  C   UNL     1      -2.479  -3.722  -0.032  0.00  0.00    +0.134 A 
ATOM     23  C   UNL     1      -3.199  -4.848   0.325  0.00  0.00    +0.039 A 
ATOM     24  C   UNL     1      -2.777  -5.636   1.380  0.00  0.00    +0.004 A 
ATOM     25  C   UNL     1      -1.634  -5.304   2.085  0.00  0.00    +0.021 A 
ATOM     26  C   UNL     1      -0.903  -4.186   1.736  0.00  0.00    +0.053 A 
ATOM     27 CL   UNL     1       0.535  -3.777   2.618  0.00  0.00    -0.083 Cl
ATOM     28  F   UNL     1      -2.892  -2.953  -1.063  0.00  0.00    -0.205 F 
ENDBRANCH  18  21
ENDBRANCH   1  17
BRANCH   5  29
ATOM     29  C   UNL     1      -1.730   2.084   3.450  0.00  0.00    +0.218 C 
ATOM     30  O   UNL     1      -1.115   2.230   2.415  0.00  0.00    -0.275 OA
ATOM     31  N   UNL     1      -1.491   2.899   4.497  0.00  0.00    -0.315 N 
ATOM     32  H   UNL     1      -1.982   2.783   5.325  0.00  0.00    +0.149 HD
BRANCH  31  33
ATOM     33  C   UNL     1      -0.487   3.961   4.384  0.00  0.00    +0.107 C 
BRANCH  33  34
ATOM     34  C   UNL     1      -0.413   4.734   5.702  0.00  0.00    -0.000 C 
ATOM     35  C   UNL     1       0.100   3.808   6.808  0.00  0.00    +0.009 C 
ATOM     36  C   UNL     1       0.543   5.918   5.545  0.00  0.00    +0.009 C 
ENDBRANCH  33  34
ENDBRANCH  31  33
ENDBRANCH   5  29
TORSDOF 5
