REMARK  Name = ZINC02560260
REMARK  6 active torsions:
REMARK  status: ('A' for Active; 'I' for Inactive)
REMARK    1  A    between atoms: C_1  and  N_59
REMARK    2  A    between atoms: C_5  and  C_7
REMARK    3  A    between atoms: C_7  and  C_8
REMARK    4  A    between atoms: C_8  and  N_9
REMARK    5  A    between atoms: C_11  and  C_18
REMARK    6  A    between atoms: C_19  and  C_25
REMARK                            x       y       z     vdW  Elec       q    Type
REMARK                         _______ _______ _______ _____ _____    ______ ____
ROOT
ATOM      1  N   UNL     1       0.883   5.552   1.059  0.00  0.00    -0.346 N 
ATOM      2  C   UNL     1       0.128   5.972   2.111  0.00  0.00    +0.095 A 
ATOM      3  C   UNL     1       0.620   7.152   2.587  0.00  0.00    +0.013 A 
ATOM      4  C   UNL     1       1.779   7.493   1.743  0.00  0.00    +0.008 A 
ATOM      5  C   UNL     1       1.894   6.455   0.804  0.00  0.00    +0.050 A 
ATOM      6  C   UNL     1       2.913   6.500  -0.141  0.00  0.00    +0.026 A 
ATOM      7  C   UNL     1       3.797   7.558  -0.150  0.00  0.00    +0.002 A 
ATOM      8  C   UNL     1       3.682   8.582   0.778  0.00  0.00    +0.001 A 
ATOM      9  C   UNL     1       2.679   8.556   1.723  0.00  0.00    +0.010 A 
ENDROOT
BRANCH   3  10
ATOM     10  C   UNL     1       0.092   7.934   3.717  0.00  0.00    +0.059 C 
ATOM     11  C   UNL     1       0.233   7.647   5.070  0.00  0.00    +0.059 C 
ATOM     12  C   UNL     1      -0.470   8.726   5.793  0.00  0.00    +0.252 C 
ATOM     13  O   UNL     1      -0.569   8.824   7.000  0.00  0.00    -0.270 OA
ATOM     14  N   UNL     1      -0.984   9.582   4.893  0.00  0.00    -0.248 N 
ATOM     15  C   UNL     1      -0.688   9.186   3.643  0.00  0.00    +0.252 C 
ATOM     16  O   UNL     1      -1.013   9.760   2.623  0.00  0.00    -0.270 OA
ATOM     17  H   UNL     1      -1.492  10.378   5.115  0.00  0.00    +0.158 HD
BRANCH  11  18
ATOM     18  C   UNL     1       0.940   6.499   5.663  0.00  0.00    +0.013 A 
ATOM     19  C   UNL     1       2.290   6.331   5.753  0.00  0.00    +0.092 A 
ATOM     20  N   UNL     1       2.565   5.147   6.367  0.00  0.00    -0.360 N 
ATOM     21  H   UNL     1       3.456   4.810   6.547  0.00  0.00    +0.165 HD
ATOM     22  C   UNL     1       1.394   4.494   6.691  0.00  0.00    +0.047 A 
ATOM     23  C   UNL     1       0.327   5.304   6.269  0.00  0.00    +0.008 A 
ATOM     24  C   UNL     1      -0.987   4.888   6.469  0.00  0.00    +0.010 A 
ATOM     25  C   UNL     1      -1.234   3.680   7.084  0.00  0.00    +0.001 A 
ATOM     26  C   UNL     1      -0.181   2.879   7.502  0.00  0.00    +0.002 A 
ATOM     27  C   UNL     1       1.124   3.277   7.309  0.00  0.00    +0.026 A 
ENDBRANCH  11  18
ENDBRANCH   3  10
BRANCH   1  28
ATOM     28  C   UNL     1       0.650   4.320   0.301  0.00  0.00    +0.120 C 
BRANCH  28  29
ATOM     29  C   UNL     1       1.532   3.202   0.862  0.00  0.00    +0.006 C 
BRANCH  29  34
ATOM     30  C   UNL     1      -0.804   1.948  -1.056  0.00  0.00    -0.096 C 
ATOM     31  C   UNL     1       0.056  -0.039   0.038  0.00  0.00    -0.079 C 
ATOM     32  C   UNL     1       1.544  -0.445  -0.020  0.00  0.00    -0.020 C 
ATOM     33  C   UNL     1       2.270   0.805   0.542  0.00  0.00    -0.017 C 
ATOM     34  C   UNL     1       1.389   1.953  -0.011  0.00  0.00    -0.067 C 
ATOM     35  N   UNL     1       0.010   1.432   0.075  0.00  0.00    +0.380 N 
ATOM     36  H   UNL     1      -0.414   1.736   0.960  0.00  0.00    -0.082 HD
ENDBRANCH  29  34
ENDBRANCH  28  29
ENDBRANCH   1  28
TORSDOF 5
