REMARK  Name = ZINC63804608
REMARK  11 active torsions:
REMARK  status: ('A' for Active; 'I' for Inactive)
REMARK    1  A    between atoms: C_1  and  C_2
REMARK    2  A    between atoms: C_2  and  O_3
REMARK    3  A    between atoms: O_3  and  C_4
REMARK    4  A    between atoms: C_7  and  S_14
REMARK    5  A    between atoms: S_14  and  N_17
REMARK    6  A    between atoms: N_17  and  C_18
REMARK    7  A    between atoms: C_18  and  C_19
REMARK    8  A    between atoms: C_19  and  C_20
REMARK    9  A    between atoms: C_23  and  O_31
REMARK   10  A    between atoms: C_28  and  C_30
REMARK   11  A    between atoms: O_31  and  C_32
REMARK                            x       y       z     vdW  Elec       q    Type
REMARK                         _______ _______ _______ _____ _____    ______ ____
ROOT
ATOM      1  N   UNL     1      -2.722  -6.696   1.419  0.00  0.00    -0.190 NA
ATOM      2  H   UNL     1      -2.229  -7.076   2.163  0.00  0.00    +0.148 HD
ENDROOT
BRANCH   1   3
ATOM      3  S   UNL     1      -1.987  -6.518  -0.055  0.00  0.00    +0.059 S 
ATOM      4  O   UNL     1      -0.682  -7.065   0.074  0.00  0.00    -0.153 OA
ATOM      5  O   UNL     1      -2.214  -5.176  -0.463  0.00  0.00    -0.153 OA
BRANCH   3   9
ATOM      6  C   UNL     1      -4.236  -9.142  -3.028  0.00  0.00    +0.128 A 
ATOM      7  C   UNL     1      -4.207  -7.782  -3.160  0.00  0.00    +0.048 A 
ATOM      8  C   UNL     1      -3.517  -6.989  -2.246  0.00  0.00    +0.033 A 
ATOM      9  C   UNL     1      -2.853  -7.545  -1.196  0.00  0.00    +0.113 A 
ATOM     10  C   UNL     1      -2.859  -8.940  -1.025  0.00  0.00    +0.012 A 
ATOM     11  C   UNL     1      -3.564  -9.750  -1.949  0.00  0.00    +0.026 A 
ATOM     12  C   UNL     1      -3.574 -11.144  -1.776  0.00  0.00    +0.012 A 
ATOM     13  C   UNL     1      -2.913 -11.696  -0.722  0.00  0.00    +0.001 A 
ATOM     14  C   UNL     1      -2.224 -10.899   0.191  0.00  0.00    +0.001 A 
ATOM     15  C   UNL     1      -2.183  -9.546   0.048  0.00  0.00    +0.010 A 
BRANCH   6  16
ATOM     16  O   UNL     1      -4.914  -9.901  -3.927  0.00  0.00    -0.492 OA
BRANCH  16  18
ATOM     17  C   UNL     1      -6.274 -10.227  -5.898  0.00  0.00    +0.048 C 
ATOM     18  C   UNL     1      -5.570  -9.213  -4.994  0.00  0.00    +0.226 C 
ENDBRANCH  16  18
ENDBRANCH   6  16
ENDBRANCH   3   9
ENDBRANCH   1   3
BRANCH   1  19
ATOM     19  C   UNL     1      -4.115  -6.280   1.597  0.00  0.00    +0.110 C 
BRANCH  19  20
ATOM     20  C   UNL     1      -4.677  -6.915   2.871  0.00  0.00    +0.050 C 
BRANCH  20  21
ATOM     21  C   UNL     1      -6.065  -6.385   3.126  0.00  0.00    -0.037 C 
ATOM     22  C   UNL     1      -6.785  -5.571   2.321  0.00  0.00    +0.003 A 
ATOM     23  C   UNL     1      -6.504  -4.958   1.019  0.00  0.00    +0.056 A 
ATOM     24  C   UNL     1      -7.439  -4.167   0.439  0.00  0.00    +0.129 A 
ATOM     25  C   UNL     1      -8.682  -3.908   1.042  0.00  0.00    +0.048 A 
ATOM     26  C   UNL     1      -9.031  -4.426   2.239  0.00  0.00    +0.029 A 
ATOM     27  C   UNL     1      -8.095  -5.297   2.956  0.00  0.00    +0.043 A 
ATOM     28  N   UNL     1      -8.181  -5.917   4.107  0.00  0.00    -0.378 N 
ATOM     29  C   UNL     1      -6.936  -6.661   4.331  0.00  0.00    +0.103 C 
ATOM     30  C   UNL     1      -6.249  -6.163   5.604  0.00  0.00    +0.035 C 
ATOM     31  H   UNL     1      -8.941  -5.891   4.708  0.00  0.00    +0.160 HD
BRANCH  24  32
ATOM     32  O   UNL     1      -7.166  -3.605  -0.768  0.00  0.00    -0.420 OA
BRANCH  32  33
ATOM     33  C   UNL     1      -8.180  -2.779  -1.343  0.00  0.00    +0.489 C 
ATOM     34  F   UNL     1      -9.342  -3.532  -1.535  0.00  0.00    -0.149 F 
ATOM     35  F   UNL     1      -8.453  -1.709  -0.484  0.00  0.00    -0.149 F 
ATOM     36 CL   UNL     1      -7.608  -2.143  -2.931  0.00  0.00    +0.000 Cl
ENDBRANCH  32  33
ENDBRANCH  24  32
ENDBRANCH  20  21
ENDBRANCH  19  20
ENDBRANCH   1  19
TORSDOF 9
