REMARK  Name = ZINC22683168
REMARK  13 active torsions:
REMARK  status: ('A' for Active; 'I' for Inactive)
REMARK    1  A    between atoms: C_1  and  C_2
REMARK    2  A    between atoms: C_2  and  C_3
REMARK    3  A    between atoms: C_2  and  C_4
REMARK    4  A    between atoms: C_4  and  C_6
REMARK    5  A    between atoms: C_4  and  N_22
REMARK    6  A    between atoms: N_8  and  C_9
REMARK    7  A    between atoms: C_9  and  C_10
REMARK    8  A    between atoms: C_10  and  C_12
REMARK    9  A    between atoms: C_10  and  N_19
REMARK   10  A    between atoms: N_19  and  C_20
REMARK   11  A    between atoms: N_19  and  C_21
REMARK   12  A    between atoms: N_22  and  S_23
REMARK   13  A    between atoms: S_23  and  C_26
REMARK                            x       y       z     vdW  Elec       q    Type
REMARK                         _______ _______ _______ _____ _____    ______ ____
ROOT
ATOM      1  C   UNL     1      -6.000  -0.157  -1.551  0.00  0.00    +0.165 C 
ENDROOT
BRANCH   1   2
ATOM      2  C   UNL     1      -4.638   0.462  -1.728  0.00  0.00    +0.232 C 
ATOM      3  O   UNL     1      -4.282   0.840  -2.824  0.00  0.00    -0.274 OA
ATOM      4  N   UNL     1      -3.816   0.597  -0.669  0.00  0.00    -0.315 N 
ATOM      5  H   UNL     1      -4.139   0.254   0.325  0.00  0.00    +0.149 HD
BRANCH   4   6
ATOM      6  C   UNL     1      -2.491   1.198  -0.841  0.00  0.00    +0.093 C 
BRANCH   6   7
ATOM      7  C   UNL     1      -1.840   1.400   0.528  0.00  0.00    -0.021 C 
BRANCH   7   8
ATOM      8  C   UNL     1      -0.449   1.951   0.347  0.00  0.00    -0.057 A 
ATOM      9  C   UNL     1      -0.271   3.285   0.028  0.00  0.00    +0.002 A 
ATOM     10  C   UNL     1       1.004   3.791  -0.144  0.00  0.00    +0.003 A 
ATOM     11  C   UNL     1       2.102   2.965   0.008  0.00  0.00    +0.038 A 
ATOM     12  C   UNL     1       1.925   1.631   0.333  0.00  0.00    +0.124 A 
ATOM     13  C   UNL     1       0.647   1.125   0.505  0.00  0.00    +0.040 A 
ATOM     14  F   UNL     1       2.997   0.823   0.481  0.00  0.00    -0.205 F 
ENDBRANCH   7   8
BRANCH   7  15
ATOM     15  N   UNL     1      -2.642   2.344   1.318  0.00  0.00    +0.382 N 
ATOM     16  C   UNL     1      -3.377   3.269   0.445  0.00  0.00    -0.096 C 
ATOM     17  C   UNL     1      -3.558   1.631   2.219  0.00  0.00    -0.096 C 
ATOM     18  H   UNL     1      -1.954   2.938   1.937  0.00  0.00    -0.082 HD
ENDBRANCH   7  15
ENDBRANCH   6   7
ENDBRANCH   4   6
ENDBRANCH   1   2
BRANCH   1  20
ATOM     19  C   UNL     1      -7.230  -2.217  -0.854  0.00  0.00    +0.009 C 
ATOM     20  C   UNL     1      -5.847  -1.583  -1.019  0.00  0.00    +0.010 C 
ATOM     21  C   UNL     1      -5.021  -2.410  -2.006  0.00  0.00    +0.009 C 
ENDBRANCH   1  20
BRANCH   1  22
ATOM     22  N   UNL     1      -6.694  -0.189  -2.841  0.00  0.00    -0.178 NA
ATOM     23  H   UNL     1      -6.221  -0.673  -3.708  0.00  0.00    +0.149 HD
BRANCH  22  24
ATOM     24  S   UNL     1      -8.067   0.710  -3.065  0.00  0.00    +0.059 S 
ATOM     25  O   UNL     1      -8.483   0.488  -4.406  0.00  0.00    -0.153 OA
ATOM     26  O   UNL     1      -8.911   0.447  -1.952  0.00  0.00    -0.153 OA
BRANCH  24  27
ATOM     27  C   UNL     1      -7.603   2.406  -2.955  0.00  0.00    +0.106 A 
ATOM     28  C   UNL     1      -7.636   3.048  -1.719  0.00  0.00    +0.029 A 
ATOM     29  C   UNL     1      -7.279   4.356  -1.598  0.00  0.00    +0.010 A 
ATOM     30  C   UNL     1      -6.882   5.076  -2.738  0.00  0.00    -0.018 A 
ATOM     31  C   UNL     1      -6.512   6.429  -2.654  0.00  0.00    +0.008 A 
ATOM     32  C   UNL     1      -6.132   7.094  -3.779  0.00  0.00    +0.001 A 
ATOM     33  C   UNL     1      -6.104   6.454  -5.016  0.00  0.00    +0.001 A 
ATOM     34  C   UNL     1      -6.455   5.144  -5.136  0.00  0.00    +0.008 A 
ATOM     35  C   UNL     1      -6.853   4.424  -3.996  0.00  0.00    -0.016 A 
ATOM     36  C   UNL     1      -7.223   3.071  -4.080  0.00  0.00    +0.037 A 
ENDBRANCH  24  27
ENDBRANCH  22  24
ENDBRANCH   1  22
TORSDOF 9
