REMARK  Name = ZINC39973163
REMARK  6 active torsions:
REMARK  status: ('A' for Active; 'I' for Inactive)
REMARK    1  A    between atoms: C_1  and  C_2
REMARK    2  A    between atoms: C_4  and  S_7
REMARK    3  A    between atoms: S_7  and  C_8
REMARK    4  A    between atoms: C_8  and  C_9
REMARK    5  A    between atoms: N_11  and  N_12
REMARK    6  A    between atoms: C_13  and  C_24
REMARK                            x       y       z     vdW  Elec       q    Type
REMARK                         _______ _______ _______ _____ _____    ______ ____
ROOT
ATOM      1  N   UNL     1      -5.927   4.472  -7.818  0.00  0.00    -0.191 N 
ATOM      2  C   UNL     1      -6.305   3.322  -8.639  0.00  0.00    +0.212 C 
ATOM      3  N   UNL     1      -6.913   3.773  -9.897  0.00  0.00    -0.320 N 
ATOM      4  C   UNL     1      -7.851   4.799  -9.851  0.00  0.00    +0.041 A 
ATOM      5  C   UNL     1      -8.877   4.895 -10.775  0.00  0.00    +0.024 A 
ATOM      6  C   UNL     1      -9.785   5.933 -10.682  0.00  0.00    +0.002 A 
ATOM      7  C   UNL     1      -9.676   6.876  -9.672  0.00  0.00    +0.001 A 
ATOM      8  C   UNL     1      -8.659   6.795  -8.744  0.00  0.00    +0.015 A 
ATOM      9  C   UNL     1      -7.735   5.756  -8.827  0.00  0.00    +0.059 A 
ATOM     10  C   UNL     1      -6.627   5.624  -7.864  0.00  0.00    +0.266 C 
ATOM     11  O   UNL     1      -6.344   6.546  -7.122  0.00  0.00    -0.268 OA
ATOM     12  H   UNL     1      -6.666   3.365 -10.742  0.00  0.00    +0.148 HD
ENDROOT
BRANCH   2  13
ATOM     13  C   UNL     1      -7.298   2.475  -7.885  0.00  0.00    -0.008 A 
ATOM     14  C   UNL     1      -7.049   1.129  -7.689  0.00  0.00    +0.007 A 
ATOM     15  C   UNL     1      -7.960   0.352  -6.997  0.00  0.00    +0.000 A 
ATOM     16  C   UNL     1      -9.118   0.921  -6.502  0.00  0.00    +0.000 A 
ATOM     17  C   UNL     1      -9.366   2.267  -6.697  0.00  0.00    +0.000 A 
ATOM     18  C   UNL     1      -8.454   3.045  -7.385  0.00  0.00    +0.007 A 
ENDBRANCH   2  13
BRANCH   1  21
ATOM     19  C   UNL     1      -5.006   4.204  -5.639  0.00  0.00    +0.240 C 
ATOM     20  O   UNL     1      -6.127   4.227  -5.175  0.00  0.00    -0.273 OA
ATOM     21  N   UNL     1      -4.822   4.372  -6.963  0.00  0.00    -0.229 N 
ATOM     22  H   UNL     1      -3.923   4.425  -7.325  0.00  0.00    +0.173 HD
BRANCH  19  23
ATOM     23  C   UNL     1      -3.821   3.986  -4.734  0.00  0.00    +0.174 C 
BRANCH  23  24
ATOM     24  S   UNL     1      -4.393   3.794  -3.024  0.00  0.00    -0.075 S 
BRANCH  24  28
ATOM     25  C   UNL     1      -0.851   2.979   0.854  0.00  0.00    +0.090 C 
ATOM     26  C   UNL     1      -1.479   3.215  -0.495  0.00  0.00    +0.151 A 
ATOM     27  N   UNL     1      -2.814   3.356  -0.755  0.00  0.00    -0.204 NA
ATOM     28  C   UNL     1      -2.910   3.550  -2.103  0.00  0.00    +0.211 A 
ATOM     29  N   UNL     1      -1.689   3.521  -2.584  0.00  0.00    -0.121 NA
ATOM     30  N   UNL     1      -0.849   3.328  -1.631  0.00  0.00    -0.132 NA
ENDBRANCH  24  28
ENDBRANCH  23  24
ENDBRANCH  19  23
ENDBRANCH   1  21
TORSDOF 5
