REMARK  Name = ZINC44387074
REMARK  4 active torsions:
REMARK  status: ('A' for Active; 'I' for Inactive)
REMARK    1  A    between atoms: C_3  and  S_8
REMARK    2  A    between atoms: C_6  and  N_7
REMARK    3  A    between atoms: S_8  and  N_11
REMARK    4  A    between atoms: C_14  and  C_17
REMARK                            x       y       z     vdW  Elec       q    Type
REMARK                         _______ _______ _______ _____ _____    ______ ____
ROOT
ATOM      1  S   UNL     1       3.890   2.319  -0.024  0.00  0.00    +0.101 S 
ATOM      2  O   UNL     1       4.872   1.461  -0.589  0.00  0.00    -0.146 OA
ATOM      3  O   UNL     1       3.595   3.599  -0.566  0.00  0.00    -0.146 OA
ENDROOT
BRANCH   1   4
ATOM      4  N   UNL     1       4.326   2.562   1.555  0.00  0.00    -0.103 NA
ATOM      5  C   UNL     1       5.426   3.216   1.837  0.00  0.00    +0.192 A 
ATOM      6  N   UNL     1       5.970   3.520   3.066  0.00  0.00    -0.336 N 
ATOM      7  C   UNL     1       7.140   4.221   3.104  0.00  0.00    +0.028 A 
ATOM      8  C   UNL     1       7.734   4.596   1.972  0.00  0.00    +0.070 A 
ATOM      9  S   UNL     1       6.626   3.944   0.732  0.00  0.00    -0.057 S 
ATOM     10  H   UNL     1       5.531   3.244   3.885  0.00  0.00    +0.168 HD
BRANCH   7  11
ATOM     11  C   UNL     1       7.763   4.571   4.431  0.00  0.00    +0.036 C 
ATOM     12  C   UNL     1       6.942   4.295   5.692  0.00  0.00    +0.010 C 
ATOM     13  C   UNL     1       8.149   3.416   5.357  0.00  0.00    +0.010 C 
ENDBRANCH   7  11
ENDBRANCH   1   4
BRANCH   1  16
ATOM     14  C   UNL     1      -0.017   1.385   0.010  0.00  0.00    +0.024 A 
ATOM     15  C   UNL     1       1.171   2.090   0.002  0.00  0.00    +0.031 A 
ATOM     16  C   UNL     1       2.377   1.415  -0.013  0.00  0.00    +0.113 A 
ATOM     17  C   UNL     1       2.400   0.032  -0.021  0.00  0.00    +0.031 A 
ATOM     18  C   UNL     1       1.216  -0.679  -0.014  0.00  0.00    +0.024 A 
ATOM     19  C   UNL     1       0.002  -0.004   0.002  0.00  0.00    +0.025 A 
BRANCH  19  20
ATOM     20  N   UNL     1      -1.197  -0.720   0.010  0.00  0.00    -0.358 N 
ATOM     21  H   UNL     1      -2.044  -0.248   0.021  0.00  0.00    +0.142 HD
ATOM     22  H   UNL     1      -1.183  -1.690   0.005  0.00  0.00    +0.142 HD
ENDBRANCH  19  20
ENDBRANCH   1  16
TORSDOF 4
