REMARK  Name = ZINC39696052
REMARK  13 active torsions:
REMARK  status: ('A' for Active; 'I' for Inactive)
REMARK    1  A    between atoms: C_1  and  C_2
REMARK    2  A    between atoms: C_2  and  C_3
REMARK    3  A    between atoms: C_6  and  C_9
REMARK    4  A    between atoms: C_9  and  C_11
REMARK    5  A    between atoms: C_9  and  N_12
REMARK    6  A    between atoms: C_13  and  C_15
REMARK    7  A    between atoms: C_26  and  C_28
REMARK    8  A    between atoms: C_30  and  O_38
REMARK    9  A    between atoms: C_31  and  O_36
REMARK   10  A    between atoms: C_32  and  O_34
REMARK   11  A    between atoms: O_34  and  C_35
REMARK   12  A    between atoms: O_36  and  C_37
REMARK   13  A    between atoms: O_38  and  C_39
REMARK                            x       y       z     vdW  Elec       q    Type
REMARK                         _______ _______ _______ _____ _____    ______ ____
ROOT
ATOM      1  C   UNL     1       1.182  -5.242   7.017  0.00  0.00    +0.100 C 
ATOM      2  C   UNL     1       0.607  -5.921   5.754  0.00  0.00    +0.121 C 
ATOM      3  N   UNL     1       1.508  -7.071   5.504  0.00  0.00    -0.296 N 
ATOM      4  C   UNL     1       1.811  -7.603   6.855  0.00  0.00    +0.115 C 
ATOM      5  C   UNL     1       1.968  -6.349   7.739  0.00  0.00    -0.004 C 
ATOM      6  C   UNL     1       1.377  -6.601   9.123  0.00  0.00    -0.010 C 
ATOM      7  C   UNL     1       2.211  -7.665   9.843  0.00  0.00    -0.082 C 
ATOM      8  N   UNL     1       3.600  -7.205   9.958  0.00  0.00    +0.379 N 
ATOM      9  C   UNL     1       4.190  -7.055   8.622  0.00  0.00    -0.082 C 
ATOM     10  C   UNL     1       3.440  -5.965   7.851  0.00  0.00    -0.010 C 
ATOM     11  C   UNL     1       1.952  -7.529   4.317  0.00  0.00    +0.247 C 
ATOM     12  O   UNL     1       1.716  -6.908   3.299  0.00  0.00    -0.270 OA
ATOM     13  H   UNL     1       3.620  -6.316  10.435  0.00  0.00    -0.086 HD
ATOM     14  H   UNL     1       4.134  -7.879  10.486  0.00  0.00    -0.086 HD
ENDROOT
BRANCH  11  15
ATOM     15  C   UNL     1       2.726  -8.785   4.254  0.00  0.00    +0.044 A 
ATOM     16  C   UNL     1       2.633  -9.717   5.290  0.00  0.00    +0.062 A 
ATOM     17  C   UNL     1       3.358 -10.892   5.228  0.00  0.00    +0.166 A 
ATOM     18  C   UNL     1       4.180 -11.148   4.134  0.00  0.00    +0.204 A 
ATOM     19  C   UNL     1       4.274 -10.220   3.099  0.00  0.00    +0.166 A 
ATOM     20  C   UNL     1       3.546  -9.046   3.154  0.00  0.00    +0.062 A 
BRANCH  19  21
ATOM     21  O   UNL     1       5.078 -10.473   2.032  0.00  0.00    -0.491 OA
ATOM     22  C   UNL     1       5.127  -9.478   1.007  0.00  0.00    +0.277 C 
ENDBRANCH  19  21
BRANCH  18  23
ATOM     23  O   UNL     1       4.892 -12.304   4.075  0.00  0.00    -0.488 OA
ATOM     24  C   UNL     1       4.260 -13.423   3.450  0.00  0.00    +0.277 C 
ENDBRANCH  18  23
BRANCH  17  25
ATOM     25  O   UNL     1       3.269 -11.800   6.237  0.00  0.00    -0.491 OA
ATOM     26  C   UNL     1       2.407 -11.473   7.329  0.00  0.00    +0.277 C 
ENDBRANCH  17  25
ENDBRANCH  11  15
BRANCH   1  28
ATOM     27  N   UNL     1       2.329  -3.103   7.497  0.00  0.00    -0.308 N 
ATOM     28  C   UNL     1       2.101  -4.112   6.632  0.00  0.00    +0.219 C 
ATOM     29  O   UNL     1       2.637  -4.109   5.544  0.00  0.00    -0.275 OA
ATOM     30  H   UNL     1       1.900  -3.105   8.368  0.00  0.00    +0.149 HD
BRANCH  27  31
ATOM     31  C   UNL     1       3.222  -2.004   7.123  0.00  0.00    +0.100 C 
ATOM     32  C   UNL     1       4.669  -2.397   7.429  0.00  0.00    +0.033 C 
BRANCH  31  36
ATOM     33  C   UNL     1       2.192   1.490   9.354  0.00  0.00    -0.048 A 
ATOM     34  C   UNL     1       2.541   1.599   8.021  0.00  0.00    +0.004 A 
ATOM     35  C   UNL     1       2.874   0.468   7.299  0.00  0.00    +0.006 A 
ATOM     36  C   UNL     1       2.860  -0.772   7.910  0.00  0.00    -0.027 A 
ATOM     37  C   UNL     1       2.512  -0.880   9.244  0.00  0.00    +0.006 A 
ATOM     38  C   UNL     1       2.182   0.251   9.967  0.00  0.00    +0.004 A 
BRANCH  33  40
ATOM     39  C   UNL     1       3.089   3.312  10.777  0.00  0.00    +0.009 C 
ATOM     40  C   UNL     1       1.828   2.723  10.141  0.00  0.00    +0.032 C 
ENDBRANCH  33  40
ENDBRANCH  31  36
ENDBRANCH  27  31
ENDBRANCH   1  28
TORSDOF 8
