REMARK  Name = ZINC47872039
REMARK  10 active torsions:
REMARK  status: ('A' for Active; 'I' for Inactive)
REMARK    1  A    between atoms: C_1  and  C_2
REMARK    2  A    between atoms: C_7  and  N_12
REMARK    3  A    between atoms: C_9  and  C_11
REMARK    4  A    between atoms: N_12  and  C_13
REMARK    5  A    between atoms: C_13  and  N_15
REMARK    6  A    between atoms: N_15  and  N_16
REMARK    7  A    between atoms: C_17  and  C_19
REMARK    8  A    between atoms: C_23  and  S_25
REMARK    9  A    between atoms: S_25  and  N_28
REMARK   10  A    between atoms: N_28  and  C_29
REMARK                            x       y       z     vdW  Elec       q    Type
REMARK                         _______ _______ _______ _____ _____    ______ ____
ROOT
ATOM      1  N   UNL     1       2.778  -3.389   4.647  0.00  0.00    -0.231 N 
ATOM      2  C   UNL     1       3.430  -3.835   5.739  0.00  0.00    +0.260 C 
ATOM      3  O   UNL     1       3.957  -4.930   5.727  0.00  0.00    -0.269 OA
ATOM      4  H   UNL     1       2.357  -2.515   4.657  0.00  0.00    +0.173 HD
ENDROOT
BRANCH   2   5
ATOM      5  C   UNL     1       3.503  -2.993   6.952  0.00  0.00    +0.040 A 
ATOM      6  C   UNL     1       2.893  -1.738   6.972  0.00  0.00    +0.013 A 
ATOM      7  C   UNL     1       2.965  -0.957   8.107  0.00  0.00    +0.003 A 
ATOM      8  C   UNL     1       3.640  -1.416   9.225  0.00  0.00    +0.028 A 
ATOM      9  C   UNL     1       4.247  -2.659   9.211  0.00  0.00    +0.106 A 
ATOM     10  C   UNL     1       4.177  -3.452   8.085  0.00  0.00    +0.041 A 
BRANCH   9  11
ATOM     11  S   UNL     1       5.104  -3.234  10.639  0.00  0.00    +0.058 S 
ATOM     12  O   UNL     1       6.048  -4.195  10.187  0.00  0.00    -0.153 OA
ATOM     13  O   UNL     1       5.485  -2.080  11.376  0.00  0.00    -0.153 OA
BRANCH  11  14
ATOM     14  N   UNL     1       4.007  -4.051  11.573  0.00  0.00    -0.193 NA
ATOM     15  C   UNL     1       3.399  -5.287  11.076  0.00  0.00    +0.127 C 
ATOM     16  H   UNL     1       3.768  -3.711  12.450  0.00  0.00    +0.148 HD
ENDBRANCH  11  14
ENDBRANCH   9  11
ENDBRANCH   2   5
BRANCH   1  17
ATOM     17  N   UNL     1       2.708  -4.187   3.498  0.00  0.00    -0.246 N 
ATOM     18  H   UNL     1       3.129  -5.060   3.488  0.00  0.00    +0.172 HD
BRANCH  17  19
ATOM     19  C   UNL     1       2.056  -3.740   2.406  0.00  0.00    +0.147 C 
ATOM     20  S   UNL     1       1.972  -4.715   1.002  0.00  0.00    -0.017 S 
BRANCH  19  21
ATOM     21  N   UNL     1       1.471  -2.526   2.420  0.00  0.00    -0.322 N 
ATOM     22  H   UNL     1       1.520  -1.974   3.216  0.00  0.00    +0.148 HD
BRANCH  21  28
ATOM     23  C   UNL     1      -0.019   1.526   0.010  0.00  0.00    +0.008 C 
ATOM     24  C   UNL     1       0.002  -0.004   0.002  0.00  0.00    -0.009 C 
ATOM     25  C   UNL     1      -1.433  -0.534   0.013  0.00  0.00    +0.003 C 
ATOM     26  C   UNL     1      -1.413  -2.063   0.004  0.00  0.00    +0.002 C 
ATOM     27  C   UNL     1      -0.673  -2.570   1.244  0.00  0.00    +0.022 C 
ATOM     28  C   UNL     1       0.763  -2.041   1.233  0.00  0.00    +0.075 C 
ATOM     29  C   UNL     1       0.742  -0.511   1.242  0.00  0.00    +0.009 C 
ATOM     30  C   UNL     1       0.026  -0.018   2.500  0.00  0.00    +0.009 C 
ENDBRANCH  21  28
ENDBRANCH  19  21
ENDBRANCH  17  19
ENDBRANCH   1  17
TORSDOF 7
