REMARK  Name = ZINC19850471
REMARK  6 active torsions:
REMARK  status: ('A' for Active; 'I' for Inactive)
REMARK    1  A    between atoms: C_5  and  C_7
REMARK    2  A    between atoms: N_8  and  N_9
REMARK    3  A    between atoms: C_10  and  C_12
REMARK    4  A    between atoms: C_12  and  N_13
REMARK    5  A    between atoms: N_16  and  S_19
REMARK    6  A    between atoms: S_19  and  C_22
REMARK                            x       y       z     vdW  Elec       q    Type
REMARK                         _______ _______ _______ _____ _____    ______ ____
ROOT
ATOM      1  N   UNL     1      -2.455   5.333  -0.348  0.00  0.00    +0.387 N 
ATOM      2  C   UNL     1      -1.641   4.116  -0.227  0.00  0.00    -0.061 C 
ATOM      3  C   UNL     1      -1.038   4.046   1.180  0.00  0.00    +0.091 C 
ATOM      4  N   UNL     1      -2.124   4.168   2.164  0.00  0.00    -0.180 NA
ATOM      5  C   UNL     1      -3.069   5.287   2.023  0.00  0.00    +0.091 C 
ATOM      6  C   UNL     1      -3.592   5.308   0.582  0.00  0.00    -0.061 C 
ATOM      7  H   UNL     1      -1.820   6.189  -0.076  0.00  0.00    -0.081 HD
ENDROOT
BRANCH   4   8
ATOM      8  S   UNL     1      -2.282   3.071   3.395  0.00  0.00    +0.061 S 
ATOM      9  O   UNL     1      -3.645   3.104   3.796  0.00  0.00    -0.153 OA
ATOM     10  O   UNL     1      -1.645   1.878   2.961  0.00  0.00    -0.153 OA
BRANCH   8  11
ATOM     11  C   UNL     1      -1.343   3.678   4.757  0.00  0.00    +0.106 A 
ATOM     12  C   UNL     1      -0.014   3.321   4.892  0.00  0.00    +0.029 A 
ATOM     13  C   UNL     1       0.725   3.800   5.957  0.00  0.00    +0.017 A 
ATOM     14  C   UNL     1       0.132   4.628   6.894  0.00  0.00    +0.018 A 
ATOM     15  C   UNL     1      -1.199   4.980   6.761  0.00  0.00    +0.017 A 
ATOM     16  C   UNL     1      -1.936   4.505   5.692  0.00  0.00    +0.029 A 
ATOM     17 BR   UNL     1       1.141   5.279   8.355  0.00  0.00    -0.050 Br
ENDBRANCH   8  11
ENDBRANCH   4   8
BRANCH   1  18
ATOM     18  C   UNL     1      -2.911   5.527  -1.731  0.00  0.00    +0.020 C 
BRANCH  18  20
ATOM     19  N   UNL     1      -4.279   4.304  -3.390  0.00  0.00    -0.209 N 
ATOM     20  C   UNL     1      -3.803   4.380  -2.131  0.00  0.00    +0.216 C 
ATOM     21  O   UNL     1      -4.092   3.525  -1.321  0.00  0.00    -0.276 OA
ATOM     22  H   UNL     1      -4.016   5.079  -4.125  0.00  0.00    +0.177 HD
BRANCH  19  24
ATOM     23  C   UNL     1      -5.472   3.101  -5.000  0.00  0.00    +0.141 C 
ATOM     24  N   UNL     1      -5.108   3.238  -3.762  0.00  0.00    -0.188 NA
BRANCH  23  29
ATOM     25  C   UNL     1      -2.963   5.175  -6.866  0.00  0.00    +0.001 A 
ATOM     26  C   UNL     1      -3.666   5.476  -8.020  0.00  0.00    +0.003 A 
ATOM     27  C   UNL     1      -4.955   5.008  -8.195  0.00  0.00    +0.039 A 
ATOM     28  C   UNL     1      -5.550   4.234  -7.217  0.00  0.00    +0.132 A 
ATOM     29  C   UNL     1      -4.845   3.926  -6.049  0.00  0.00    +0.030 A 
ATOM     30  C   UNL     1      -3.545   4.408  -5.879  0.00  0.00    +0.012 A 
ATOM     31  F   UNL     1      -6.810   3.777  -7.388  0.00  0.00    -0.205 F 
ENDBRANCH  23  29
ENDBRANCH  19  24
ENDBRANCH  18  20
ENDBRANCH   1  18
TORSDOF 6
