REMARK  Name = ZINC06466211
REMARK  8 active torsions:
REMARK  status: ('A' for Active; 'I' for Inactive)
REMARK    1  A    between atoms: C_1  and  C_2
REMARK    2  A    between atoms: C_2  and  C_3
REMARK    3  A    between atoms: C_8  and  N_9
REMARK    4  A    between atoms: C_11  and  C_16
REMARK    5  A    between atoms: C_16  and  O_18
REMARK    6  A    between atoms: O_18  and  C_19
REMARK    7  A    between atoms: C_19  and  C_20
REMARK    8  A    between atoms: N_22  and  C_23
REMARK                            x       y       z     vdW  Elec       q    Type
REMARK                         _______ _______ _______ _____ _____    ______ ____
ROOT
ATOM      1  N   UNL     1      -1.505  -0.315  -2.391  0.00  0.00    -0.270 N 
ATOM      2  C   UNL     1      -0.735  -1.242  -3.227  0.00  0.00    +0.128 C 
ATOM      3  C   UNL     1       0.082  -0.350  -4.189  0.00  0.00    +0.124 C 
ATOM      4  C   UNL     1      -0.784   0.930  -4.242  0.00  0.00    +0.112 C 
ATOM      5  C   UNL     1      -1.559   0.910  -2.943  0.00  0.00    +0.221 C 
ATOM      6  O   UNL     1      -2.141   1.862  -2.467  0.00  0.00    -0.275 OA
ENDROOT
BRANCH   1  12
ATOM      7  C   UNL     1      -1.412  -0.526   0.013  0.00  0.00    -0.026 A 
ATOM      8  C   UNL     1      -2.015  -0.864   1.208  0.00  0.00    +0.005 A 
ATOM      9  C   UNL     1      -3.312  -1.342   1.219  0.00  0.00    +0.000 A 
ATOM     10  C   UNL     1      -4.010  -1.484   0.034  0.00  0.00    +0.002 A 
ATOM     11  C   UNL     1      -3.413  -1.147  -1.165  0.00  0.00    +0.024 A 
ATOM     12  C   UNL     1      -2.111  -0.661  -1.179  0.00  0.00    +0.039 A 
BRANCH   7  14
ATOM     13  C   UNL     1      -0.019   1.526   0.010  0.00  0.00    +0.009 C 
ATOM     14  C   UNL     1       0.002  -0.004   0.002  0.00  0.00    +0.033 C 
ENDBRANCH   7  14
ENDBRANCH   1  12
BRANCH   3  15
ATOM     15  C   UNL     1       0.191  -0.985  -5.551  0.00  0.00    +0.313 C 
ATOM     16  O   UNL     1      -0.328  -2.056  -5.763  0.00  0.00    -0.250 OA
BRANCH  15  17
ATOM     17  O   UNL     1       0.866  -0.361  -6.530  0.00  0.00    -0.455 OA
BRANCH  17  18
ATOM     18  C   UNL     1       0.929  -1.020  -7.796  0.00  0.00    +0.327 C 
BRANCH  18  19
ATOM     19  C   UNL     1       1.720  -0.177  -8.762  0.00  0.00    +0.251 C 
ATOM     20  O   UNL     1       2.184   0.884  -8.402  0.00  0.00    -0.272 OA
ATOM     21  N   UNL     1       1.913  -0.602 -10.027  0.00  0.00    -0.310 N 
ATOM     22  H   UNL     1       1.542  -1.451 -10.315  0.00  0.00    +0.149 HD
BRANCH  21  23
ATOM     23  C   UNL     1       2.682   0.218 -10.966  0.00  0.00    +0.073 C 
ATOM     24  C   UNL     1       1.760   1.255 -11.611  0.00  0.00    +0.022 C 
ATOM     25  C   UNL     1       2.563   2.111 -12.592  0.00  0.00    +0.002 C 
ATOM     26  C   UNL     1       3.162   1.216 -13.679  0.00  0.00    +0.000 C 
ATOM     27  C   UNL     1       4.083   0.179 -13.034  0.00  0.00    +0.002 C 
ATOM     28  C   UNL     1       3.280  -0.677 -12.053  0.00  0.00    +0.022 C 
ENDBRANCH  21  23
ENDBRANCH  18  19
ENDBRANCH  17  18
ENDBRANCH  15  17
ENDBRANCH   3  15
TORSDOF 7
