REMARK  Name = ZINC40324489
REMARK  5 active torsions:
REMARK  status: ('A' for Active; 'I' for Inactive)
REMARK    1  A    between atoms: C_1  and  C_2
REMARK    2  A    between atoms: C_10  and  C_11
REMARK    3  A    between atoms: C_16  and  C_19
REMARK    4  A    between atoms: C_22  and  S_25
REMARK    5  A    between atoms: S_25  and  C_28
REMARK                            x       y       z     vdW  Elec       q    Type
REMARK                         _______ _______ _______ _____ _____    ______ ____
ROOT
ATOM      1  C   UNL     1       0.032  -0.383   2.483  0.00  0.00    +0.285 C 
ATOM      2  O   UNL     1       0.018   0.805   2.745  0.00  0.00    -0.266 OA
ATOM      3  N   UNL     1       0.054  -1.291   3.478  0.00  0.00    -0.257 N 
ATOM      4  C   UNL     1       0.061  -0.872   4.800  0.00  0.00    +0.185 A 
ATOM      5  N   UNL     1       0.088  -1.606   5.897  0.00  0.00    -0.204 NA
ATOM      6  C   UNL     1       0.090  -0.974   7.058  0.00  0.00    +0.170 A 
ATOM      7  N   UNL     1       0.066   0.343   7.042  0.00  0.00    -0.187 NA
ATOM      8  S   UNL     1       0.047   0.696   5.404  0.00  0.00    +0.050 S 
ATOM      9  H   UNL     1       0.065  -2.239   3.270  0.00  0.00    +0.157 HD
ENDROOT
BRANCH   1  19
ATOM     10  C   UNL     1      -0.018   1.503   0.010  0.00  0.00    +0.048 C 
ATOM     11  C   UNL     1       0.002  -0.004   0.002  0.00  0.00    +0.008 A 
ATOM     12  C   UNL     1       0.009  -0.877  -1.171  0.00  0.00    +0.024 A 
ATOM     13  C   UNL     1      -0.001  -0.654  -2.550  0.00  0.00    +0.012 A 
ATOM     14  C   UNL     1       0.009  -1.718  -3.408  0.00  0.00    +0.001 A 
ATOM     15  C   UNL     1       0.028  -3.017  -2.918  0.00  0.00    +0.004 A 
ATOM     16  C   UNL     1       0.038  -3.257  -1.561  0.00  0.00    +0.047 A 
ATOM     17  C   UNL     1       0.029  -2.191  -0.669  0.00  0.00    +0.136 A 
ATOM     18  O   UNL     1       0.034  -2.113   0.676  0.00  0.00    -0.450 OA
ATOM     19  C   UNL     1       0.024  -0.827   1.083  0.00  0.00    +0.194 A 
ENDBRANCH   1  19
BRANCH   6  20
ATOM     20  C   UNL     1       0.118  -1.724   8.338  0.00  0.00    +0.020 A 
ATOM     21  C   UNL     1       0.149  -3.117   8.332  0.00  0.00    +0.013 A 
ATOM     22  C   UNL     1       0.175  -3.809   9.526  0.00  0.00    +0.027 A 
ATOM     23  C   UNL     1       0.171  -3.123  10.727  0.00  0.00    +0.088 A 
ATOM     24  C   UNL     1       0.141  -1.740  10.739  0.00  0.00    +0.027 A 
ATOM     25  C   UNL     1       0.120  -1.037   9.551  0.00  0.00    +0.013 A 
BRANCH  23  26
ATOM     26  S   UNL     1       0.204  -4.013  12.247  0.00  0.00    -0.006 S 
ATOM     27  O   UNL     1      -0.409  -3.144  13.189  0.00  0.00    -0.170 OA
ATOM     28  O   UNL     1      -0.374  -5.274  11.941  0.00  0.00    -0.170 OA
ATOM     29  C   UNL     1       1.965  -4.210  12.633  0.00  0.00    +0.200 C 
ENDBRANCH  23  26
ENDBRANCH   6  20
TORSDOF 3
