REMARK  Name = ZINC33087533
REMARK  7 active torsions:
REMARK  status: ('A' for Active; 'I' for Inactive)
REMARK    1  A    between atoms: C_1  and  C_2
REMARK    2  A    between atoms: C_2  and  N_3
REMARK    3  A    between atoms: C_4  and  C_23
REMARK    4  A    between atoms: C_7  and  S_8
REMARK    5  A    between atoms: S_8  and  C_9
REMARK    6  A    between atoms: C_9  and  C_10
REMARK    7  A    between atoms: N_12  and  C_13
REMARK                            x       y       z     vdW  Elec       q    Type
REMARK                         _______ _______ _______ _____ _____    ______ ____
ROOT
ATOM      1  N   UNL     1       5.812   1.952  -0.122  0.00  0.00    -0.302 N 
ATOM      2  C   UNL     1       6.116   3.278   0.081  0.00  0.00    +0.165 A 
ATOM      3  N   UNL     1       4.983   3.941   0.058  0.00  0.00    -0.128 NA
ATOM      4  N   UNL     1       4.006   3.132  -0.148  0.00  0.00    -0.122 NA
ATOM      5  C   UNL     1       4.454   1.903  -0.270  0.00  0.00    +0.192 A 
ENDROOT
BRANCH   2   6
ATOM      6  C   UNL     1       7.463   3.848   0.292  0.00  0.00    +0.023 A 
ATOM      7  C   UNL     1       8.595   3.126  -0.089  0.00  0.00    +0.015 A 
ATOM      8  C   UNL     1       9.854   3.658   0.107  0.00  0.00    +0.050 A 
ATOM      9  C   UNL     1       9.992   4.911   0.684  0.00  0.00    +0.162 A 
ATOM     10  C   UNL     1       8.870   5.635   1.066  0.00  0.00    +0.163 A 
ATOM     11  C   UNL     1       7.605   5.113   0.867  0.00  0.00    +0.061 A 
ATOM     12  O   UNL     1       9.023   6.867   1.634  0.00  0.00    -0.488 OA
ATOM     13  C   UNL     1       9.521   7.894   0.774  0.00  0.00    +0.232 C 
ATOM     14  C   UNL     1      11.040   7.857   0.714  0.00  0.00    +0.082 C 
ATOM     15  C   UNL     1      11.563   6.578   0.079  0.00  0.00    +0.232 C 
ATOM     16  O   UNL     1      11.234   5.442   0.881  0.00  0.00    -0.488 OA
ENDBRANCH   2   6
BRANCH   1  18
ATOM     17  C   UNL     1       7.182   0.588  -1.620  0.00  0.00    +0.027 C 
ATOM     18  C   UNL     1       6.748   0.827  -0.172  0.00  0.00    +0.122 C 
ENDBRANCH   1  18
BRANCH   5  19
ATOM     19  S   UNL     1       3.485   0.461  -0.560  0.00  0.00    -0.077 S 
BRANCH  19  20
ATOM     20  C   UNL     1       1.834   1.199  -0.626  0.00  0.00    +0.173 C 
BRANCH  20  21
ATOM     21  C   UNL     1       0.811   0.121  -0.873  0.00  0.00    +0.228 C 
ATOM     22  O   UNL     1       1.163  -1.033  -0.993  0.00  0.00    -0.275 OA
ATOM     23  N   UNL     1      -0.495   0.440  -0.966  0.00  0.00    -0.284 N 
ATOM     24  H   UNL     1      -0.824   1.473  -0.777  0.00  0.00    +0.155 HD
BRANCH  23  25
ATOM     25  C   UNL     1      -1.431  -0.540  -1.301  0.00  0.00    +0.041 A 
ATOM     26  C   UNL     1      -1.191  -1.863  -0.999  0.00  0.00    +0.024 A 
ATOM     27  C   UNL     1      -2.117  -2.848  -1.329  0.00  0.00    +0.002 A 
ATOM     28  C   UNL     1      -3.283  -2.534  -1.958  0.00  0.00    +0.008 A 
ATOM     29  C   UNL     1      -3.566  -1.197  -2.284  0.00  0.00    -0.016 A 
ATOM     30  C   UNL     1      -2.633  -0.185  -1.949  0.00  0.00    +0.003 A 
ATOM     31  C   UNL     1      -2.916   1.150  -2.279  0.00  0.00    +0.010 A 
ATOM     32  C   UNL     1      -4.084   1.456  -2.908  0.00  0.00    +0.001 A 
ATOM     33  C   UNL     1      -5.004   0.462  -3.235  0.00  0.00    +0.001 A 
ATOM     34  C   UNL     1      -4.762  -0.843  -2.934  0.00  0.00    +0.008 A 
ENDBRANCH  23  25
ENDBRANCH  20  21
ENDBRANCH  19  20
ENDBRANCH   5  19
TORSDOF 6
