REMARK  Name = ZINC45513233
REMARK  6 active torsions:
REMARK  status: ('A' for Active; 'I' for Inactive)
REMARK    1  A    between atoms: N_11  and  C_12
REMARK    2  A    between atoms: N_15  and  C_18
REMARK    3  A    between atoms: C_18  and  C_19
REMARK    4  A    between atoms: C_19  and  C_20
REMARK    5  A    between atoms: N_22  and  C_23
REMARK    6  A    between atoms: C_24  and  C_33
REMARK                            x       y       z     vdW  Elec       q    Type
REMARK                         _______ _______ _______ _____ _____    ______ ____
ROOT
ATOM      1  C   UNL     1       4.875  -0.586  -0.046  0.00  0.00    +0.089 C 
ATOM      2  C   UNL     1       5.517  -1.188  -1.300  0.00  0.00    +0.006 C 
ATOM      3  C   UNL     1       7.026  -0.933  -1.266  0.00  0.00    -0.077 C 
ATOM      4  N   UNL     1       7.604  -1.558  -0.071  0.00  0.00    +0.380 N 
ATOM      5  C   UNL     1       7.046  -0.937   1.136  0.00  0.00    -0.077 C 
ATOM      6  C   UNL     1       5.538  -1.191   1.194  0.00  0.00    +0.006 C 
ATOM      7  H   UNL     1       7.389  -2.544  -0.071  0.00  0.00    -0.082 HD
ENDROOT
BRANCH   1  18
ATOM      8  C   UNL     1      -0.017   1.377   0.010  0.00  0.00    +0.002 A 
ATOM      9  C   UNL     1       1.169   2.091   0.002  0.00  0.00    +0.002 A 
ATOM     10  C   UNL     1       2.381   1.429  -0.013  0.00  0.00    +0.028 A 
ATOM     11  C   UNL     1       2.410   0.043  -0.021  0.00  0.00    +0.070 A 
ATOM     12  C   UNL     1       1.214  -0.678  -0.013  0.00  0.00    +0.067 A 
ATOM     13  C   UNL     1       0.002  -0.004   0.002  0.00  0.00    +0.028 A 
ATOM     14  N   UNL     1       1.557  -2.028  -0.023  0.00  0.00    -0.306 N 
ATOM     15  H   UNL     1       0.934  -2.772  -0.021  0.00  0.00    +0.170 HD
ATOM     16  C   UNL     1       2.900  -2.124  -0.036  0.00  0.00    +0.328 A 
ATOM     17  O   UNL     1       3.528  -3.166  -0.047  0.00  0.00    -0.247 OA
ATOM     18  N   UNL     1       3.443  -0.892  -0.035  0.00  0.00    -0.289 N 
ENDBRANCH   1  18
BRANCH   4  19
ATOM     19  C   UNL     1       9.062  -1.379  -0.083  0.00  0.00    -0.070 C 
BRANCH  19  20
ATOM     20  C   UNL     1       9.679  -2.135   1.095  0.00  0.00    +0.077 C 
BRANCH  20  21
ATOM     21  C   UNL     1      11.175  -1.951   1.082  0.00  0.00    +0.216 C 
ATOM     22  O   UNL     1      11.696  -1.280   0.216  0.00  0.00    -0.276 OA
ATOM     23  N   UNL     1      11.933  -2.531   2.033  0.00  0.00    -0.279 N 
ATOM     24  H   UNL     1      11.516  -3.068   2.726  0.00  0.00    +0.155 HD
BRANCH  23  25
ATOM     25  C   UNL     1      13.311  -2.361   2.022  0.00  0.00    +0.090 A 
ATOM     26  C   UNL     1      14.239  -2.881   2.905  0.00  0.00    +0.084 A 
ATOM     27  C   UNL     1      15.639  -2.554   2.677  0.00  0.00    -0.018 A 
ATOM     28  C   UNL     1      15.847  -1.759   1.605  0.00  0.00    -0.004 A 
ATOM     29  S   UNL     1      14.234  -1.484   0.928  0.00  0.00    -0.077 S 
ATOM     30  C   UNL     1      17.151  -1.223   1.103  0.00  0.00    +0.043 C 
ATOM     31  C   UNL     1      18.166  -2.370   1.015  0.00  0.00    +0.005 C 
ATOM     32  C   UNL     1      18.891  -2.483   2.352  0.00  0.00    +0.001 C 
ATOM     33  C   UNL     1      17.951  -2.106   3.495  0.00  0.00    +0.005 C 
ATOM     34  C   UNL     1      16.770  -3.070   3.555  0.00  0.00    +0.037 C 
BRANCH  26  35
ATOM     35  C   UNL     1      13.839  -3.709   4.003  0.00  0.00    +0.102 C 
ATOM     36  N   UNL     1      13.522  -4.366   4.874  0.00  0.00    -0.191 NA
ENDBRANCH  26  35
ENDBRANCH  23  25
ENDBRANCH  20  21
ENDBRANCH  19  20
ENDBRANCH   4  19
TORSDOF 6
