REMARK  Name = ZINC20990100
REMARK  10 active torsions:
REMARK  status: ('A' for Active; 'I' for Inactive)
REMARK    1  A    between atoms: C_1  and  C_2
REMARK    2  A    between atoms: C_5  and  C_8
REMARK    3  A    between atoms: C_8  and  N_9
REMARK    4  A    between atoms: C_12  and  C_15
REMARK    5  A    between atoms: C_15  and  N_16
REMARK    6  A    between atoms: N_16  and  S_17
REMARK    7  A    between atoms: S_17  and  C_20
REMARK    8  A    between atoms: C_25  and  C_26
REMARK    9  A    between atoms: C_32  and  C_36
REMARK   10  A    between atoms: C_32  and  C_37
REMARK                            x       y       z     vdW  Elec       q    Type
REMARK                         _______ _______ _______ _____ _____    ______ ____
ROOT
ATOM      1  S   UNL     1      -6.502   7.740  -4.993  0.00  0.00    +0.059 S 
ATOM      2  O   UNL     1      -6.280   9.056  -5.481  0.00  0.00    -0.153 OA
ATOM      3  O   UNL     1      -6.240   6.583  -5.775  0.00  0.00    -0.153 OA
ENDROOT
BRANCH   1   4
ATOM      4  C   UNL     1      -8.198   7.657  -4.522  0.00  0.00    +0.110 A 
ATOM      5  C   UNL     1      -8.976   6.604  -4.952  0.00  0.00    +0.055 A 
ATOM      6  C   UNL     1     -10.313   6.529  -4.581  0.00  0.00    +0.049 A 
ATOM      7  C   UNL     1     -10.863   7.541  -3.773  0.00  0.00    +0.011 A 
ATOM      8  C   UNL     1     -10.065   8.601  -3.351  0.00  0.00    +0.016 A 
ATOM      9  C   UNL     1      -8.740   8.655  -3.726  0.00  0.00    -0.023 A 
ATOM     10  C   UNL     1      -7.877   9.802  -3.269  0.00  0.00    +0.046 C 
ATOM     11  C   UNL     1     -12.265   7.167  -3.577  0.00  0.00    +0.046 A 
ATOM     12  C   UNL     1     -12.460   5.976  -4.262  0.00  0.00    +0.028 A 
ATOM     13  N   UNL     1     -11.313   5.612  -4.850  0.00  0.00    -0.357 N 
ATOM     14  H   UNL     1     -11.100   4.731  -5.474  0.00  0.00    +0.166 HD
ATOM     15  C   UNL     1     -13.797   5.273  -4.273  0.00  0.00    +0.060 C 
ATOM     16  C   UNL     1     -14.550   5.663  -2.995  0.00  0.00    -0.023 C 
ATOM     17  C   UNL     1     -14.674   7.182  -2.887  0.00  0.00    +0.086 C 
ATOM     18  C   UNL     1     -13.299   7.813  -2.857  0.00  0.00    +0.166 C 
ATOM     19  O   UNL     1     -13.089   8.836  -2.238  0.00  0.00    -0.292 OA
ATOM     20  C   UNL     1     -13.789   5.130  -1.780  0.00  0.00    +0.011 C 
ATOM     21  C   UNL     1     -15.949   5.043  -3.026  0.00  0.00    +0.011 C 
ENDBRANCH   1   4
BRANCH   1  22
ATOM     22  N   UNL     1      -5.602   7.590  -3.611  0.00  0.00    -0.190 NA
ATOM     23  H   UNL     1      -5.104   8.478  -3.195  0.00  0.00    +0.148 HD
BRANCH  22  24
ATOM     24  C   UNL     1      -5.651   6.347  -2.837  0.00  0.00    +0.107 C 
BRANCH  24  28
ATOM     25  N   UNL     1      -3.196   4.549  -0.774  0.00  0.00    +0.383 N 
ATOM     26  C   UNL     1      -2.265   5.420  -1.522  0.00  0.00    -0.078 C 
ATOM     27  C   UNL     1      -3.137   6.084  -2.617  0.00  0.00    -0.016 C 
ATOM     28  C   UNL     1      -4.473   6.308  -1.861  0.00  0.00    -0.014 C 
ATOM     29  C   UNL     1      -4.565   5.070  -0.944  0.00  0.00    -0.074 C 
ATOM     30  H   UNL     1      -3.141   3.522  -1.163  0.00  0.00    -0.081 HD
BRANCH  25  31
ATOM     31  C   UNL     1      -2.830   4.485   0.647  0.00  0.00    -0.043 C 
BRANCH  31  36
ATOM     32  C   UNL     1       2.132   1.580   1.229  0.00  0.00    +0.044 C 
ATOM     33  C   UNL     1       0.838   2.338   1.078  0.00  0.00    -0.050 A 
ATOM     34  C   UNL     1      -0.367   1.662   1.119  0.00  0.00    +0.003 A 
ATOM     35  C   UNL     1      -1.554   2.356   0.974  0.00  0.00    +0.002 A 
ATOM     36  C   UNL     1      -1.536   3.727   0.799  0.00  0.00    -0.064 A 
ATOM     37  C   UNL     1      -0.331   4.403   0.757  0.00  0.00    +0.002 A 
ATOM     38  C   UNL     1       0.856   3.708   0.897  0.00  0.00    +0.003 A 
ENDBRANCH  31  36
ENDBRANCH  25  31
ENDBRANCH  24  28
ENDBRANCH  22  24
ENDBRANCH   1  22
TORSDOF 6
