REMARK  Name = ZINC35665076
REMARK  10 active torsions:
REMARK  status: ('A' for Active; 'I' for Inactive)
REMARK    1  A    between atoms: C_1  and  C_2
REMARK    2  A    between atoms: C_2  and  C_3
REMARK    3  A    between atoms: C_3  and  N_4
REMARK    4  A    between atoms: N_4  and  C_5
REMARK    5  A    between atoms: C_5  and  N_7
REMARK    6  A    between atoms: C_14  and  C_29
REMARK    7  A    between atoms: N_18  and  C_19
REMARK    8  A    between atoms: C_19  and  C_20
REMARK    9  A    between atoms: C_29  and  C_30
REMARK   10  A    between atoms: C_29  and  C_31
REMARK                            x       y       z     vdW  Elec       q    Type
REMARK                         _______ _______ _______ _____ _____    ______ ____
ROOT
ATOM      1  N   UNL     1       1.122  -3.731   3.055  0.00  0.00    -0.313 N 
ATOM      2  C   UNL     1       0.791  -4.309   1.745  0.00  0.00    +0.107 C 
ATOM      3  C   UNL     1       1.976  -5.155   1.266  0.00  0.00    +0.025 C 
ATOM      4  C   UNL     1       2.335  -6.179   2.341  0.00  0.00    +0.006 C 
ATOM      5  C   UNL     1       2.730  -5.472   3.636  0.00  0.00    +0.025 C 
ATOM      6  C   UNL     1       1.557  -4.629   4.134  0.00  0.00    +0.107 C 
ATOM      7  N   UNL     1       3.454  -7.023   1.872  0.00  0.00    +0.401 N 
ATOM      8  C   UNL     1       2.764  -8.179   1.248  0.00  0.00    +0.022 C 
ATOM      9  C   UNL     1       1.426  -8.255   1.951  0.00  0.00    +0.201 C 
ATOM     10  O   UNL     1       0.678  -9.209   1.950  0.00  0.00    -0.277 OA
ATOM     11  N   UNL     1       1.206  -7.081   2.580  0.00  0.00    -0.309 N 
ATOM     12  H   UNL     1       4.011  -6.530   1.190  0.00  0.00    -0.082 HD
ATOM     13  H   UNL     1       4.023  -7.324   2.648  0.00  0.00    -0.082 HD
ENDROOT
BRANCH   8  14
ATOM     14  C   UNL     1       3.563  -9.463   1.478  0.00  0.00    -0.023 C 
ATOM     15  C   UNL     1       2.834 -10.641   0.828  0.00  0.00    +0.006 C 
ATOM     16  C   UNL     1       4.953  -9.317   0.856  0.00  0.00    +0.006 C 
ENDBRANCH   8  14
BRANCH   1  17
ATOM     17  C   UNL     1       1.034  -2.402   3.261  0.00  0.00    +0.133 C 
ATOM     18  S   UNL     1       1.558  -1.729   4.745  0.00  0.00    -0.019 S 
BRANCH  17  19
ATOM     19  N   UNL     1       0.532  -1.603   2.298  0.00  0.00    -0.326 N 
ATOM     20  H   UNL     1       0.301  -1.973   1.432  0.00  0.00    +0.148 HD
BRANCH  19  21
ATOM     21  C   UNL     1       0.335  -0.175   2.561  0.00  0.00    +0.103 C 
BRANCH  21  23
ATOM     22  C   UNL     1      -0.447   1.989   1.588  0.00  0.00    +0.005 C 
ATOM     23  C   UNL     1      -0.242   0.498   1.314  0.00  0.00    +0.015 C 
ENDBRANCH  21  23
ENDBRANCH  19  21
ENDBRANCH  17  19
ENDBRANCH   1  17
BRANCH  11  24
ATOM     24  C   UNL     1       0.020  -6.759   3.378  0.00  0.00    +0.141 C 
BRANCH  24  25
ATOM     25  C   UNL     1       0.135  -7.409   4.733  0.00  0.00    -0.026 A 
ATOM     26  C   UNL     1      -0.691  -8.467   5.062  0.00  0.00    +0.009 A 
ATOM     27  C   UNL     1      -0.589  -9.067   6.304  0.00  0.00    +0.050 A 
ATOM     28  C   UNL     1       0.342  -8.607   7.221  0.00  0.00    +0.166 A 
ATOM     29  C   UNL     1       1.173  -7.541   6.889  0.00  0.00    +0.167 A 
ATOM     30  C   UNL     1       1.070  -6.948   5.641  0.00  0.00    +0.054 A 
ATOM     31  O   UNL     1       1.992  -7.280   7.950  0.00  0.00    -0.453 OA
ATOM     32  C   UNL     1       1.378  -7.927   9.079  0.00  0.00    +0.466 C 
ATOM     33  O   UNL     1       0.639  -9.014   8.490  0.00  0.00    -0.453 OA
ENDBRANCH  24  25
ENDBRANCH  11  24
TORSDOF 7
