REMARK  Name = ZINC41514178
REMARK  9 active torsions:
REMARK  status: ('A' for Active; 'I' for Inactive)
REMARK    1  A    between atoms: C_1  and  O_2
REMARK    2  A    between atoms: O_2  and  C_3
REMARK    3  A    between atoms: C_12  and  C_14
REMARK    4  A    between atoms: C_23  and  O_35
REMARK    5  A    between atoms: C_24  and  C_25
REMARK    6  A    between atoms: C_25  and  N_26
REMARK    7  A    between atoms: N_29  and  C_32
REMARK    8  A    between atoms: C_32  and  C_33
REMARK    9  A    between atoms: C_33  and  O_34
REMARK                            x       y       z     vdW  Elec       q    Type
REMARK                         _______ _______ _______ _____ _____    ______ ____
ROOT
ATOM      1  C   UNL     1       0.536  -6.231  -1.463  0.00  0.00    +0.006 A 
ATOM      2  C   UNL     1       1.704  -6.951  -1.274  0.00  0.00    +0.101 A 
ATOM      3  C   UNL     1       1.664  -8.353  -1.302  0.00  0.00    +0.338 A 
ATOM      4  O   UNL     1       2.696  -8.979  -1.135  0.00  0.00    -0.245 OA
ATOM      5  O   UNL     1       0.520  -9.025  -1.506  0.00  0.00    -0.422 OA
ATOM      6  C   UNL     1      -0.657  -8.390  -1.697  0.00  0.00    +0.144 A 
ATOM      7  C   UNL     1      -0.710  -6.986  -1.680  0.00  0.00    +0.026 A 
ATOM      8  C   UNL     1      -1.926  -6.328  -1.872  0.00  0.00    +0.016 A 
ATOM      9  C   UNL     1      -3.067  -7.052  -2.071  0.00  0.00    +0.046 A 
ATOM     10  C   UNL     1      -3.024  -8.444  -2.084  0.00  0.00    +0.122 A 
ATOM     11  C   UNL     1      -1.823  -9.112  -1.907  0.00  0.00    +0.020 A 
ENDROOT
BRANCH   1  21
ATOM     12  C   UNL     1       0.606  -0.607  -1.056  0.00  0.00    +0.163 A 
ATOM     13  C   UNL     1       1.173   0.157  -2.061  0.00  0.00    +0.049 A 
ATOM     14  C   UNL     1       1.797  -0.450  -3.142  0.00  0.00    +0.004 A 
ATOM     15  C   UNL     1       1.852  -1.811  -3.239  0.00  0.00    +0.012 A 
ATOM     16  C   UNL     1       1.264  -2.607  -2.246  0.00  0.00    +0.022 A 
ATOM     17  C   UNL     1       0.662  -1.997  -1.130  0.00  0.00    +0.180 A 
ATOM     18  O   UNL     1       0.157  -2.758  -0.129  0.00  0.00    -0.418 OA
ATOM     19  C   UNL     1      -0.260  -4.002  -0.456  0.00  0.00    +0.345 A 
ATOM     20  O   UNL     1      -1.259  -4.483   0.044  0.00  0.00    -0.245 OA
ATOM     21  C   UNL     1       0.539  -4.756  -1.441  0.00  0.00    +0.068 A 
ATOM     22  C   UNL     1       1.283  -4.023  -2.351  0.00  0.00    +0.027 A 
BRANCH  12  24
ATOM     23  C   UNL     1      -0.017   1.425   0.010  0.00  0.00    +0.277 C 
ATOM     24  O   UNL     1       0.002  -0.004   0.002  0.00  0.00    -0.491 OA
ENDBRANCH  12  24
ENDBRANCH   1  21
BRANCH  10  25
ATOM     25  O   UNL     1      -4.165  -9.151  -2.283  0.00  0.00    -0.506 OA
ATOM     26  H   UNL     1      -4.352  -9.344  -3.212  0.00  0.00    +0.292 HD
ENDBRANCH  10  25
BRANCH  11  27
ATOM     27  C   UNL     1      -1.787 -10.619  -1.922  0.00  0.00    -0.035 C 
BRANCH  27  28
ATOM     28  N   UNL     1      -2.008 -11.127  -0.562  0.00  0.00    +0.384 N 
ATOM     29  C   UNL     1      -0.892 -10.719   0.301  0.00  0.00    -0.063 C 
ATOM     30  C   UNL     1      -1.131 -11.233   1.723  0.00  0.00    +0.066 C 
ATOM     31  N   UNL     1      -1.244 -12.698   1.698  0.00  0.00    -0.304 NA
ATOM     32  C   UNL     1      -2.341 -13.123   0.819  0.00  0.00    +0.066 C 
ATOM     33  C   UNL     1      -2.092 -12.594  -0.595  0.00  0.00    -0.063 C 
ATOM     34  H   UNL     1      -2.870 -10.750  -0.198  0.00  0.00    -0.081 HD
BRANCH  31  35
ATOM     35  C   UNL     1      -1.418 -13.236   3.054  0.00  0.00    +0.112 C 
BRANCH  35  36
ATOM     36  C   UNL     1      -1.281 -14.759   3.021  0.00  0.00    +0.171 C 
BRANCH  36  37
ATOM     37  O   UNL     1       0.052 -15.110   2.643  0.00  0.00    -0.394 OA
ATOM     38  H   UNL     1       0.211 -16.063   2.602  0.00  0.00    +0.209 HD
ENDBRANCH  36  37
ENDBRANCH  35  36
ENDBRANCH  31  35
ENDBRANCH  27  28
ENDBRANCH  11  27
TORSDOF 8
