REMARK  Name = ZINC67205250
REMARK  12 active torsions:
REMARK  status: ('A' for Active; 'I' for Inactive)
REMARK    1  A    between atoms: C_1  and  C_2
REMARK    2  A    between atoms: C_2  and  C_3
REMARK    3  A    between atoms: C_6  and  C_9
REMARK    4  A    between atoms: C_11  and  C_33
REMARK    5  A    between atoms: C_12  and  C_17
REMARK    6  A    between atoms: C_17  and  N_18
REMARK    7  A    between atoms: N_21  and  C_24
REMARK    8  A    between atoms: C_27  and  C_30
REMARK    9  A    between atoms: C_30  and  C_32
REMARK   10  A    between atoms: C_33  and  O_35
REMARK   11  A    between atoms: O_35  and  C_36
REMARK   12  A    between atoms: C_36  and  C_37
REMARK                            x       y       z     vdW  Elec       q    Type
REMARK                         _______ _______ _______ _____ _____    ______ ____
ROOT
ATOM      1  C   UNL     1       2.599  -1.997  -4.918  0.00  0.00    +0.144 C 
ATOM      2  C   UNL     1       2.884  -3.483  -4.844  0.00  0.00    +0.079 C 
ATOM      3  C   UNL     1       4.167  -3.870  -4.677  0.00  0.00    +0.038 C 
ATOM      4  N   UNL     1       5.173  -2.952  -4.578  0.00  0.00    -0.271 N 
ATOM      5  C   UNL     1       4.978  -1.629  -4.637  0.00  0.00    +0.304 C 
ATOM      6  O   UNL     1       5.937  -0.888  -4.539  0.00  0.00    -0.252 OA
ATOM      7  N   UNL     1       3.754  -1.091  -4.800  0.00  0.00    -0.288 N 
ATOM      8  H   UNL     1       6.079  -3.277  -4.459  0.00  0.00    +0.156 HD
ATOM      9  H   UNL     1       3.636  -0.129  -4.840  0.00  0.00    +0.151 HD
ENDROOT
BRANCH   1  13
ATOM     10  C   UNL     1      -0.159  -1.030  -1.802  0.00  0.00    -0.048 A 
ATOM     11  C   UNL     1      -0.619  -1.269  -3.083  0.00  0.00    +0.004 A 
ATOM     12  C   UNL     1       0.273  -1.581  -4.092  0.00  0.00    +0.006 A 
ATOM     13  C   UNL     1       1.626  -1.655  -3.819  0.00  0.00    -0.022 A 
ATOM     14  C   UNL     1       2.087  -1.416  -2.538  0.00  0.00    +0.006 A 
ATOM     15  C   UNL     1       1.195  -1.099  -1.530  0.00  0.00    +0.004 A 
BRANCH  10  17
ATOM     16  C   UNL     1      -1.327   0.827  -0.646  0.00  0.00    +0.009 C 
ATOM     17  C   UNL     1      -1.132  -0.690  -0.703  0.00  0.00    +0.032 C 
ENDBRANCH  10  17
ENDBRANCH   1  13
BRANCH   2  18
ATOM     18  C   UNL     1       1.841  -4.434  -4.946  0.00  0.00    +0.339 C 
ATOM     19  O   UNL     1       2.102  -5.621  -5.002  0.00  0.00    -0.245 OA
BRANCH  18  20
ATOM     20  O   UNL     1       0.555  -4.024  -4.982  0.00  0.00    -0.462 OA
BRANCH  20  21
ATOM     21  C   UNL     1      -0.446  -5.037  -5.086  0.00  0.00    +0.229 C 
ATOM     22  C   UNL     1      -1.830  -4.386  -5.113  0.00  0.00    +0.048 C 
ENDBRANCH  20  21
ENDBRANCH  18  20
ENDBRANCH   2  18
BRANCH   3  23
ATOM     23  C   UNL     1       4.494  -5.339  -4.598  0.00  0.00    +0.136 C 
BRANCH  23  24
ATOM     24  N   UNL     1       4.649  -5.880  -5.955  0.00  0.00    -0.294 NA
ATOM     25  C   UNL     1       5.888  -5.395  -6.577  0.00  0.00    +0.103 C 
ATOM     26  C   UNL     1       5.924  -5.831  -8.045  0.00  0.00    +0.120 C 
ATOM     27  N   UNL     1       5.727  -7.287  -8.105  0.00  0.00    -0.327 N 
ATOM     28  C   UNL     1       4.579  -7.864  -7.389  0.00  0.00    +0.120 C 
ATOM     29  C   UNL     1       4.596  -7.348  -5.946  0.00  0.00    +0.103 C 
BRANCH  27  30
ATOM     30  C   UNL     1       6.601  -8.097  -8.820  0.00  0.00    +0.030 A 
ATOM     31  C   UNL     1       6.463  -9.482  -8.770  0.00  0.00    +0.024 A 
ATOM     32  C   UNL     1       7.321 -10.281  -9.470  0.00  0.00    +0.013 A 
ATOM     33  C   UNL     1       8.340  -9.706 -10.240  0.00  0.00    +0.017 A 
ATOM     34  C   UNL     1       8.475  -8.312 -10.287  0.00  0.00    +0.013 A 
ATOM     35  C   UNL     1       7.610  -7.520  -9.588  0.00  0.00    +0.024 A 
BRANCH  33  36
ATOM     36  C   UNL     1       9.264 -10.561 -10.994  0.00  0.00    +0.160 C 
ATOM     37  O   UNL     1       9.146 -11.767 -10.951  0.00  0.00    -0.292 OA
ATOM     38  C   UNL     1      10.360  -9.940 -11.821  0.00  0.00    +0.091 C 
ENDBRANCH  33  36
ENDBRANCH  27  30
ENDBRANCH  23  24
ENDBRANCH   3  23
TORSDOF 9
