REMARK  Name = ZINC49861570
REMARK  7 active torsions:
REMARK  status: ('A' for Active; 'I' for Inactive)
REMARK    1  A    between atoms: C_1  and  C_2
REMARK    2  A    between atoms: C_5  and  C_9
REMARK    3  A    between atoms: C_6  and  C_8
REMARK    4  A    between atoms: C_10  and  C_20
REMARK    5  A    between atoms: C_12  and  C_17
REMARK    6  A    between atoms: C_13  and  N_15
REMARK    7  A    between atoms: N_15  and  C_16
REMARK                            x       y       z     vdW  Elec       q    Type
REMARK                         _______ _______ _______ _____ _____    ______ ____
ROOT
ATOM      1  C   UNL     1       0.184  -4.264  -0.106  0.00  0.00    +0.051 A 
ATOM      2  C   UNL     1      -0.973  -4.829   0.434  0.00  0.00    -0.026 A 
ATOM      3  C   UNL     1      -1.083  -6.202   0.514  0.00  0.00    +0.024 A 
ATOM      4  C   UNL     1      -0.019  -6.987   0.044  0.00  0.00    +0.101 A 
ATOM      5  C   UNL     1       1.117  -6.347  -0.487  0.00  0.00    +0.111 A 
ATOM      6  N   UNL     1       1.176  -5.027  -0.548  0.00  0.00    -0.342 N 
ATOM      7  C   UNL     1      -2.090  -3.947   0.926  0.00  0.00    +0.046 C 
ATOM      8  H   UNL     1       1.966  -4.606  -0.922  0.00  0.00    +0.167 HD
ENDROOT
BRANCH   1  13
ATOM      9  C   UNL     1       0.649   1.465  -0.442  0.00  0.00    +0.044 C 
ATOM     10  C   UNL     1       0.528  -0.035  -0.354  0.00  0.00    -0.050 A 
ATOM     11  C   UNL     1       0.475  -0.791  -1.511  0.00  0.00    +0.004 A 
ATOM     12  C   UNL     1       0.364  -2.164  -1.437  0.00  0.00    +0.010 A 
ATOM     13  C   UNL     1       0.304  -2.790  -0.192  0.00  0.00    +0.002 A 
ATOM     14  C   UNL     1       0.358  -2.023   0.971  0.00  0.00    -0.041 A 
ATOM     15  C   UNL     1       0.475  -0.650   0.884  0.00  0.00    +0.007 A 
ATOM     16  C   UNL     1       0.295  -2.691   2.320  0.00  0.00    +0.044 C 
ENDBRANCH   1  13
BRANCH   5  17
ATOM     17  N   UNL     1       2.174  -7.104  -0.954  0.00  0.00    -0.333 N 
ATOM     18  C   UNL     1       3.407  -6.446  -1.394  0.00  0.00    +0.127 C 
ATOM     19  H   UNL     1       2.100  -8.070  -0.991  0.00  0.00    +0.147 HD
ENDBRANCH   5  17
BRANCH   4  20
ATOM     20  C   UNL     1      -0.089  -8.453   0.108  0.00  0.00    +0.390 C 
ATOM     21  O   UNL     1      -1.030  -8.997   0.670  0.00  0.00    -0.240 OA
ATOM     22  O   UNL     1       0.794  -9.130  -0.402  0.00  0.00    -0.240 OA
ENDBRANCH   4  20
TORSDOF 3
