REMARK  Name = ZINC63138041
REMARK  9 active torsions:
REMARK  status: ('A' for Active; 'I' for Inactive)
REMARK    1  A    between atoms: C_1  and  O_2
REMARK    2  A    between atoms: O_2  and  C_3
REMARK    3  A    between atoms: C_7  and  C_9
REMARK    4  A    between atoms: C_9  and  N_10
REMARK    5  A    between atoms: C_30  and  C_32
REMARK    6  A    between atoms: C_36  and  O_40
REMARK    7  A    between atoms: C_37  and  O_38
REMARK    8  A    between atoms: O_38  and  C_39
REMARK    9  A    between atoms: O_40  and  C_41
REMARK                            x       y       z     vdW  Elec       q    Type
REMARK                         _______ _______ _______ _____ _____    ______ ____
ROOT
ATOM      1  N   UNL     1       2.544  -4.586  -1.633  0.00  0.00    -0.287 N 
ATOM      2  C   UNL     1       3.808  -4.753  -2.374  0.00  0.00    +0.204 C 
ATOM      3  C   UNL     1       4.929  -4.153  -1.553  0.00  0.00    +0.234 C 
ATOM      4  O   UNL     1       5.783  -3.456  -2.058  0.00  0.00    -0.274 OA
ATOM      5  N   UNL     1       4.935  -4.435  -0.208  0.00  0.00    -0.279 N 
ATOM      6  C   UNL     1       3.901  -5.345   0.240  0.00  0.00    +0.167 C 
ATOM      7  C   UNL     1       2.568  -4.897  -0.303  0.00  0.00    +0.237 C 
ATOM      8  O   UNL     1       1.579  -4.822   0.395  0.00  0.00    -0.274 OA
ATOM      9  C   UNL     1       3.837  -5.688   1.705  0.00  0.00    +0.065 C 
ATOM     10  C   UNL     1       4.773  -4.801   2.480  0.00  0.00    -0.034 C 
ATOM     11  C   UNL     1       4.653  -4.186   3.648  0.00  0.00    -0.001 A 
ATOM     12  C   UNL     1       3.571  -4.180   4.646  0.00  0.00    +0.010 A 
ATOM     13  C   UNL     1       3.778  -3.416   5.752  0.00  0.00    +0.001 A 
ATOM     14  C   UNL     1       4.939  -2.666   5.962  0.00  0.00    +0.002 A 
ATOM     15  C   UNL     1       5.986  -2.617   5.101  0.00  0.00    +0.026 A 
ATOM     16  C   UNL     1       5.888  -3.383   3.902  0.00  0.00    +0.043 A 
ATOM     17  N   UNL     1       6.731  -3.525   2.925  0.00  0.00    -0.375 N 
ATOM     18  C   UNL     1       6.158  -4.452   1.940  0.00  0.00    +0.131 C 
ATOM     19  C   UNL     1       5.934  -3.758   0.605  0.00  0.00    +0.137 C 
ATOM     20  H   UNL     1       7.595  -3.090   2.856  0.00  0.00    +0.160 HD
ENDROOT
BRANCH  19  21
ATOM     21  C   UNL     1       5.460  -2.357   0.898  0.00  0.00    +0.021 A 
ATOM     22  C   UNL     1       4.108  -2.069   0.889  0.00  0.00    +0.009 A 
ATOM     23  C   UNL     1       3.670  -0.785   1.157  0.00  0.00    +0.004 A 
ATOM     24  C   UNL     1       4.583   0.216   1.436  0.00  0.00    +0.049 A 
ATOM     25  C   UNL     1       5.939  -0.067   1.446  0.00  0.00    +0.162 A 
ATOM     26  C   UNL     1       6.379  -1.361   1.182  0.00  0.00    +0.166 A 
BRANCH  26  27
ATOM     27  O   UNL     1       7.709  -1.644   1.197  0.00  0.00    -0.491 OA
ATOM     28  C   UNL     1       8.418  -1.495  -0.034  0.00  0.00    +0.277 C 
ENDBRANCH  26  27
BRANCH  25  29
ATOM     29  O   UNL     1       6.838   0.916   1.720  0.00  0.00    -0.491 OA
ATOM     30  C   UNL     1       6.313   2.219   1.987  0.00  0.00    +0.277 C 
ENDBRANCH  25  29
ENDBRANCH  19  21
BRANCH   1  31
ATOM     31  C   UNL     1       1.325  -4.106  -2.289  0.00  0.00    +0.143 C 
BRANCH  31  36
ATOM     32  C   UNL     1       0.606  -0.607  -1.056  0.00  0.00    +0.120 A 
ATOM     33  C   UNL     1       1.173   0.161  -2.063  0.00  0.00    +0.045 A 
ATOM     34  C   UNL     1       1.786  -0.455  -3.136  0.00  0.00    +0.004 A 
ATOM     35  C   UNL     1       1.836  -1.835  -3.208  0.00  0.00    +0.005 A 
ATOM     36  C   UNL     1       1.271  -2.602  -2.207  0.00  0.00    -0.027 A 
ATOM     37  C   UNL     1       0.661  -1.991  -1.128  0.00  0.00    +0.050 A 
BRANCH  32  39
ATOM     38  C   UNL     1      -0.017   1.425   0.010  0.00  0.00    +0.277 C 
ATOM     39  O   UNL     1       0.002  -0.004   0.002  0.00  0.00    -0.495 OA
ENDBRANCH  32  39
ENDBRANCH  31  36
ENDBRANCH   1  31
TORSDOF 6
