REMARK  Name = ZINC16662976
REMARK  8 active torsions:
REMARK  status: ('A' for Active; 'I' for Inactive)
REMARK    1  A    between atoms: C_1  and  C_2
REMARK    2  A    between atoms: C_5  and  C_25
REMARK    3  A    between atoms: C_6  and  N_8
REMARK    4  A    between atoms: N_11  and  C_14
REMARK    5  A    between atoms: C_14  and  C_15
REMARK    6  A    between atoms: C_17  and  O_23
REMARK    7  A    between atoms: C_18  and  O_22
REMARK    8  A    between atoms: O_23  and  C_24
REMARK                            x       y       z     vdW  Elec       q    Type
REMARK                         _______ _______ _______ _____ _____    ______ ____
ROOT
ATOM      1  N   UNL     1       0.051  -2.796   2.390  0.00  0.00    -0.327 N 
ATOM      2  C   UNL     1       1.322  -3.157   3.038  0.00  0.00    +0.120 C 
ATOM      3  C   UNL     1       1.268  -2.704   4.501  0.00  0.00    +0.103 C 
ATOM      4  N   UNL     1       0.066  -3.259   5.138  0.00  0.00    -0.295 NA
ATOM      5  C   UNL     1      -1.157  -2.746   4.507  0.00  0.00    +0.103 C 
ATOM      6  C   UNL     1      -1.203  -3.196   3.047  0.00  0.00    +0.120 C 
ENDROOT
BRANCH   1  12
ATOM      7  C   UNL     1      -0.018   1.503   0.010  0.00  0.00    +0.044 C 
ATOM      8  C   UNL     1       0.002  -0.004   0.002  0.00  0.00    -0.049 A 
ATOM      9  C   UNL     1       0.006  -0.688  -1.200  0.00  0.00    +0.004 A 
ATOM     10  C   UNL     1       0.024  -2.071  -1.212  0.00  0.00    +0.005 A 
ATOM     11  C   UNL     1       0.039  -2.773  -0.023  0.00  0.00    -0.029 A 
ATOM     12  C   UNL     1       0.036  -2.089   1.186  0.00  0.00    +0.033 A 
ATOM     13  C   UNL     1       0.023  -0.700   1.194  0.00  0.00    +0.026 A 
ATOM     14  C   UNL     1       0.059  -4.280  -0.037  0.00  0.00    +0.045 C 
ENDBRANCH   1  12
BRANCH   4  15
ATOM     15  C   UNL     1       0.065  -2.992   6.583  0.00  0.00    +0.119 C 
BRANCH  15  16
ATOM     16  C   UNL     1      -1.042  -3.777   7.238  0.00  0.00    -0.029 A 
ATOM     17  C   UNL     1      -2.302  -3.222   7.362  0.00  0.00    +0.054 A 
ATOM     18  C   UNL     1      -3.321  -3.942   7.964  0.00  0.00    +0.163 A 
ATOM     19  C   UNL     1      -3.073  -5.226   8.442  0.00  0.00    +0.172 A 
ATOM     20  C   UNL     1      -1.808  -5.777   8.314  0.00  0.00    +0.059 A 
ATOM     21  C   UNL     1      -0.797  -5.054   7.708  0.00  0.00    +0.023 A 
ATOM     22  I   UNL     1      -1.430  -7.708   9.033  0.00  0.00    -0.040 I 
BRANCH  19  23
ATOM     23  O   UNL     1      -4.070  -5.937   9.034  0.00  0.00    -0.503 OA
ATOM     24  H   UNL     1      -4.584  -6.478   8.420  0.00  0.00    +0.292 HD
ENDBRANCH  19  23
BRANCH  18  25
ATOM     25  O   UNL     1      -4.560  -3.397   8.088  0.00  0.00    -0.491 OA
ATOM     26  C   UNL     1      -4.742  -2.075   7.574  0.00  0.00    +0.277 C 
ENDBRANCH  18  25
ENDBRANCH  15  16
ENDBRANCH   4  15
TORSDOF 5
