REMARK  Name = ZINC39656116
REMARK  10 active torsions:
REMARK  status: ('A' for Active; 'I' for Inactive)
REMARK    1  A    between atoms: C_1  and  C_2
REMARK    2  A    between atoms: C_8  and  C_11
REMARK    3  A    between atoms: C_11  and  C_12
REMARK    4  A    between atoms: C_12  and  N_13
REMARK    5  A    between atoms: C_14  and  C_16
REMARK    6  A    between atoms: C_27  and  C_29
REMARK    7  A    between atoms: C_31  and  O_37
REMARK    8  A    between atoms: C_34  and  O_35
REMARK    9  A    between atoms: O_35  and  C_36
REMARK   10  A    between atoms: O_37  and  C_38
REMARK                            x       y       z     vdW  Elec       q    Type
REMARK                         _______ _______ _______ _____ _____    ______ ____
ROOT
ATOM      1  C   UNL     1       4.626  -0.109  -7.495  0.00  0.00    +0.100 C 
ATOM      2  C   UNL     1       5.654   0.307  -6.419  0.00  0.00    +0.121 C 
ATOM      3  N   UNL     1       6.098  -0.970  -5.812  0.00  0.00    -0.296 N 
ATOM      4  C   UNL     1       6.199  -1.907  -6.957  0.00  0.00    +0.115 C 
ATOM      5  C   UNL     1       4.990  -1.561  -7.848  0.00  0.00    -0.004 C 
ATOM      6  C   UNL     1       5.372  -1.668  -9.321  0.00  0.00    -0.010 C 
ATOM      7  C   UNL     1       5.672  -3.130  -9.662  0.00  0.00    -0.082 C 
ATOM      8  N   UNL     1       4.490  -3.953  -9.382  0.00  0.00    +0.379 N 
ATOM      9  C   UNL     1       4.185  -3.919  -7.946  0.00  0.00    -0.082 C 
ATOM     10  C   UNL     1       3.821  -2.490  -7.533  0.00  0.00    -0.010 C 
ATOM     11  C   UNL     1       6.354  -1.222  -4.513  0.00  0.00    +0.250 C 
ATOM     12  O   UNL     1       6.131  -0.371  -3.674  0.00  0.00    -0.270 OA
ATOM     13  H   UNL     1       3.702  -3.594  -9.900  0.00  0.00    -0.086 HD
ATOM     14  H   UNL     1       4.669  -4.905  -9.664  0.00  0.00    -0.086 HD
ENDROOT
BRANCH  11  15
ATOM     15  C   UNL     1       6.903  -2.530  -4.110  0.00  0.00    +0.082 A 
ATOM     16  C   UNL     1       7.804  -3.200  -4.942  0.00  0.00    +0.062 A 
ATOM     17  C   UNL     1       8.316  -4.425  -4.557  0.00  0.00    +0.121 A 
ATOM     18  C   UNL     1       7.936  -4.992  -3.347  0.00  0.00    +0.049 A 
ATOM     19  C   UNL     1       7.046  -4.338  -2.519  0.00  0.00    +0.050 A 
ATOM     20  C   UNL     1       6.529  -3.105  -2.888  0.00  0.00    +0.132 A 
BRANCH  20  21
ATOM     21  O   UNL     1       5.658  -2.459  -2.071  0.00  0.00    -0.494 OA
ATOM     22  C   UNL     1       5.322  -3.106  -0.842  0.00  0.00    +0.277 C 
ENDBRANCH  20  21
BRANCH  17  23
ATOM     23  O   UNL     1       9.193  -5.078  -5.366  0.00  0.00    -0.495 OA
ATOM     24  C   UNL     1       9.682  -6.340  -4.907  0.00  0.00    +0.277 C 
ENDBRANCH  17  23
ENDBRANCH  11  15
BRANCH   1  26
ATOM     25  N   UNL     1       2.192   0.248  -7.754  0.00  0.00    -0.315 N 
ATOM     26  C   UNL     1       3.227  -0.039  -6.940  0.00  0.00    +0.218 C 
ATOM     27  O   UNL     1       3.033  -0.240  -5.760  0.00  0.00    -0.275 OA
ATOM     28  H   UNL     1       2.348   0.409  -8.698  0.00  0.00    +0.149 HD
BRANCH  25  29
ATOM     29  C   UNL     1       0.832   0.316  -7.214  0.00  0.00    +0.109 C 
BRANCH  29  30
ATOM     30  C   UNL     1      -0.147   0.655  -8.339  0.00  0.00    +0.056 C 
BRANCH  30  38
ATOM     31  C   UNL     1      -2.142   5.463  -5.946  0.00  0.00    +0.044 C 
ATOM     32  C   UNL     1      -2.600   4.059  -6.249  0.00  0.00    -0.050 A 
ATOM     33  C   UNL     1      -3.883   3.663  -5.896  0.00  0.00    +0.005 A 
ATOM     34  C   UNL     1      -4.322   2.385  -6.163  0.00  0.00    +0.026 A 
ATOM     35  C   UNL     1      -3.474   1.481  -6.794  0.00  0.00    +0.047 A 
ATOM     36  N   UNL     1      -3.610   0.168  -7.187  0.00  0.00    -0.360 N 
ATOM     37  C   UNL     1      -2.453  -0.264  -7.775  0.00  0.00    +0.087 A 
ATOM     38  C   UNL     1      -1.546   0.726  -7.784  0.00  0.00    -0.021 A 
ATOM     39  C   UNL     1      -2.175   1.887  -7.150  0.00  0.00    +0.003 A 
ATOM     40  C   UNL     1      -1.752   3.189  -6.874  0.00  0.00    +0.013 A 
ATOM     41  H   UNL     1      -4.408  -0.370  -7.066  0.00  0.00    +0.165 HD
ENDBRANCH  30  38
ENDBRANCH  29  30
ENDBRANCH  25  29
ENDBRANCH   1  26
TORSDOF 7
