REMARK  Name = ZINC35456901
REMARK  13 active torsions:
REMARK  status: ('A' for Active; 'I' for Inactive)
REMARK    1  A    between atoms: C_1  and  C_2
REMARK    2  A    between atoms: C_2  and  C_3
REMARK    3  A    between atoms: C_2  and  C_4
REMARK    4  A    between atoms: C_2  and  O_19
REMARK    5  A    between atoms: O_19  and  C_20
REMARK    6  A    between atoms: C_22  and  O_41
REMARK    7  A    between atoms: C_24  and  O_40
REMARK    8  A    between atoms: C_26  and  O_39
REMARK    9  A    between atoms: C_28  and  C_31
REMARK   10  A    between atoms: C_31  and  O_32
REMARK   11  A    between atoms: O_32  and  C_33
REMARK   12  A    between atoms: C_33  and  C_35
REMARK   13  A    between atoms: C_35  and  C_36
REMARK                            x       y       z     vdW  Elec       q    Type
REMARK                         _______ _______ _______ _____ _____    ______ ____
ROOT
ATOM      1  C   UNL     1       1.434   0.055  -1.879  0.00  0.00    +0.282 C 
ATOM      2  C   UNL     1       1.704  -0.584  -3.244  0.00  0.00    +0.201 C 
ATOM      3  C   UNL     1       0.508  -0.328  -4.165  0.00  0.00    +0.179 C 
ATOM      4  C   UNL     1       0.270   1.182  -4.266  0.00  0.00    +0.178 C 
ATOM      5  C   UNL     1       0.055   1.753  -2.862  0.00  0.00    +0.190 C 
ATOM      6  O   UNL     1       1.191   1.453  -2.049  0.00  0.00    -0.339 OA
ENDROOT
BRANCH   4   7
ATOM      7  O   UNL     1       1.406   1.805  -4.868  0.00  0.00    -0.386 OA
ATOM      8  H   UNL     1       1.603   1.487  -5.760  0.00  0.00    +0.210 HD
ENDBRANCH   4   7
BRANCH   3   9
ATOM      9  O   UNL     1       0.781  -0.859  -5.463  0.00  0.00    -0.386 OA
ATOM     10  H   UNL     1       0.948  -1.811  -5.471  0.00  0.00    +0.210 HD
ENDBRANCH   3   9
BRANCH   2  11
ATOM     11  O   UNL     1       2.881  -0.008  -3.816  0.00  0.00    -0.384 OA
ATOM     12  H   UNL     1       3.678  -0.130  -3.282  0.00  0.00    +0.210 HD
ENDBRANCH   2  11
BRANCH   1  13
ATOM     13  O   UNL     1       0.290  -0.559  -1.284  0.00  0.00    -0.339 OA
BRANCH  13  15
ATOM     14  C   UNL     1       0.090   1.211   0.350  0.00  0.00    +0.045 C 
ATOM     15  C   UNL     1       0.153  -0.300   0.115  0.00  0.00    +0.104 C 
ATOM     16  C   UNL     1       1.354  -0.883   0.862  0.00  0.00    +0.045 C 
BRANCH  15  17
ATOM     17  C   UNL     1      -1.133  -0.950   0.631  0.00  0.00    +0.209 C 
ATOM     18  C   UNL     1      -2.341  -0.547  -0.247  0.00  0.00    +0.086 C 
ATOM     19  C   UNL     1      -3.164  -1.821  -0.252  0.00  0.00    -0.001 A 
ATOM     20  C   UNL     1      -4.457  -2.066  -0.600  0.00  0.00    +0.019 A 
ATOM     21  C   UNL     1      -4.971  -3.363  -0.497  0.00  0.00    +0.018 A 
ATOM     22  C   UNL     1      -6.357  -3.659  -0.863  0.00  0.00    +0.018 A 
ATOM     23  C   UNL     1      -6.793  -4.940  -0.739  0.00  0.00    +0.092 A 
ATOM     24  C   UNL     1      -5.915  -5.937  -0.268  0.00  0.00    +0.337 A 
ATOM     25  O   UNL     1      -6.318  -7.082  -0.163  0.00  0.00    -0.245 OA
ATOM     26  O   UNL     1      -4.645  -5.658   0.068  0.00  0.00    -0.422 OA
ATOM     27  C   UNL     1      -4.147  -4.407  -0.034  0.00  0.00    +0.143 A 
ATOM     28  C   UNL     1      -2.833  -4.138   0.311  0.00  0.00    +0.093 A 
ATOM     29  C   UNL     1      -2.331  -2.845   0.202  0.00  0.00    +0.128 A 
ATOM     30  O   UNL     1      -1.079  -2.378   0.473  0.00  0.00    -0.485 OA
ENDBRANCH  15  17
ENDBRANCH  13  15
ENDBRANCH   1  13
BRANCH   5  31
ATOM     31  C   UNL     1      -0.124   3.270  -2.950  0.00  0.00    +0.266 C 
BRANCH  31  32
ATOM     32  O   UNL     1      -0.440   3.788  -1.656  0.00  0.00    -0.462 OA
BRANCH  32  33
ATOM     33  C   UNL     1      -0.630   5.113  -1.560  0.00  0.00    +0.318 C 
ATOM     34  O   UNL     1      -0.531   5.810  -2.541  0.00  0.00    -0.250 OA
BRANCH  33  35
ATOM     35  C   UNL     1      -0.966   5.731  -0.227  0.00  0.00    +0.245 C 
BRANCH  35  36
ATOM     36  C   UNL     1      -1.127   7.221  -0.391  0.00  0.00    +0.367 C 
ATOM     37  O   UNL     1      -0.982   7.733  -1.488  0.00  0.00    -0.246 OA
ATOM     38  O   UNL     1      -1.402   7.914   0.574  0.00  0.00    -0.246 OA
ENDBRANCH  35  36
ENDBRANCH  33  35
ENDBRANCH  32  33
ENDBRANCH  31  32
ENDBRANCH   5  31
TORSDOF 11
