REMARK  Name = ZINC63384602
REMARK  10 active torsions:
REMARK  status: ('A' for Active; 'I' for Inactive)
REMARK    1  A    between atoms: C_1  and  C_2
REMARK    2  A    between atoms: C_12  and  C_13
REMARK    3  A    between atoms: C_13  and  C_14
REMARK    4  A    between atoms: N_16  and  C_17
REMARK    5  A    between atoms: C_17  and  C_18
REMARK    6  A    between atoms: C_18  and  C_19
REMARK    7  A    between atoms: C_22  and  O_28
REMARK    8  A    between atoms: O_28  and  C_29
REMARK    9  A    between atoms: C_31  and  C_39
REMARK   10  A    between atoms: C_32  and  C_33
REMARK                            x       y       z     vdW  Elec       q    Type
REMARK                         _______ _______ _______ _____ _____    ______ ____
ROOT
ATOM      1  C   UNL     1       0.011   1.491   0.253  0.00  0.00    +0.045 C 
ATOM      2  C   UNL     1       0.016  -0.009   0.116  0.00  0.00    -0.029 A 
ATOM      3  C   UNL     1      -1.227  -0.779   0.223  0.00  0.00    +0.022 A 
ATOM      4  C   UNL     1      -2.446  -0.139   0.453  0.00  0.00    +0.024 A 
ATOM      5  C   UNL     1      -3.603  -0.896   0.548  0.00  0.00    +0.029 A 
ATOM      6  C   UNL     1      -3.554  -2.297   0.415  0.00  0.00    +0.139 A 
ATOM      7  C   UNL     1      -2.339  -2.928   0.185  0.00  0.00    +0.093 A 
ATOM      8  C   UNL     1      -1.177  -2.182   0.089  0.00  0.00    +0.143 A 
ATOM      9  O   UNL     1       0.009  -2.791  -0.134  0.00  0.00    -0.422 OA
ATOM     10  C   UNL     1       1.149  -2.091  -0.233  0.00  0.00    +0.341 A 
ATOM     11  O   UNL     1       2.194  -2.684  -0.435  0.00  0.00    -0.245 OA
ATOM     12  C   UNL     1       1.171  -0.685  -0.114  0.00  0.00    +0.049 A 
ATOM     13  O   UNL     1      -4.815  -2.758   0.551  0.00  0.00    -0.459 OA
ATOM     14  C   UNL     1      -5.680  -1.753   0.764  0.00  0.00    +0.111 A 
ATOM     15  C   UNL     1      -5.024  -0.571   0.779  0.00  0.00    +0.031 A 
ATOM     16  C   UNL     1      -7.165  -1.919   0.959  0.00  0.00    +0.087 C 
ENDROOT
BRANCH  15  17
ATOM     17  C   UNL     1      -5.611   0.774   0.983  0.00  0.00    -0.014 A 
ATOM     18  C   UNL     1      -5.269   1.523   2.108  0.00  0.00    +0.008 A 
ATOM     19  C   UNL     1      -5.819   2.775   2.294  0.00  0.00    +0.001 A 
ATOM     20  C   UNL     1      -6.708   3.287   1.366  0.00  0.00    +0.000 A 
ATOM     21  C   UNL     1      -7.052   2.549   0.248  0.00  0.00    +0.001 A 
ATOM     22  C   UNL     1      -6.503   1.298   0.049  0.00  0.00    +0.008 A 
ENDBRANCH  15  17
BRANCH  12  23
ATOM     23  C   UNL     1       2.472   0.065  -0.238  0.00  0.00    +0.138 C 
BRANCH  23  24
ATOM     24  C   UNL     1       3.164   0.095   1.101  0.00  0.00    +0.218 C 
ATOM     25  O   UNL     1       2.650  -0.439   2.061  0.00  0.00    -0.275 OA
ATOM     26  N   UNL     1       4.353   0.716   1.231  0.00  0.00    -0.315 N 
ATOM     27  H   UNL     1       4.764   1.143   0.463  0.00  0.00    +0.149 HD
BRANCH  26  28
ATOM     28  C   UNL     1       5.025   0.745   2.532  0.00  0.00    +0.108 C 
BRANCH  28  29
ATOM     29  C   UNL     1       6.347   1.506   2.406  0.00  0.00    +0.052 C 
BRANCH  29  30
ATOM     30  C   UNL     1       7.038   1.536   3.745  0.00  0.00    -0.040 C 
ATOM     31  C   UNL     1       7.992   0.686   4.187  0.00  0.00    +0.002 A 
ATOM     32  C   UNL     1       8.647  -0.478   3.579  0.00  0.00    +0.055 A 
ATOM     33  C   UNL     1       9.590  -1.153   4.278  0.00  0.00    +0.121 A 
ATOM     34  C   UNL     1       9.972  -0.779   5.579  0.00  0.00    +0.047 A 
ATOM     35  C   UNL     1       9.426   0.276   6.221  0.00  0.00    +0.029 A 
ATOM     36  C   UNL     1       8.395   1.079   5.557  0.00  0.00    +0.043 A 
ATOM     37  N   UNL     1       7.717   2.129   5.946  0.00  0.00    -0.380 N 
ATOM     38  C   UNL     1       6.810   2.528   4.864  0.00  0.00    +0.144 C 
ATOM     39  H   UNL     1       7.803   2.572   6.805  0.00  0.00    +0.160 HD
BRANCH  33  40
ATOM     40  O   UNL     1      10.188  -2.230   3.703  0.00  0.00    -0.495 OA
ATOM     41  C   UNL     1      11.178  -2.912   4.476  0.00  0.00    +0.277 C 
ENDBRANCH  33  40
ENDBRANCH  29  30
ENDBRANCH  28  29
ENDBRANCH  26  28
ENDBRANCH  23  24
ENDBRANCH  12  23
TORSDOF 7
