REMARK  Name = ZINC15770724
REMARK  9 active torsions:
REMARK  status: ('A' for Active; 'I' for Inactive)
REMARK    1  A    between atoms: C_2  and  C_3
REMARK    2  A    between atoms: C_3  and  C_5
REMARK    3  A    between atoms: C_3  and  N_17
REMARK    4  A    between atoms: C_5  and  C_7
REMARK    5  A    between atoms: C_5  and  O_16
REMARK    6  A    between atoms: C_11  and  N_13
REMARK    7  A    between atoms: C_18  and  C_35
REMARK    8  A    between atoms: C_20  and  C_29
REMARK    9  A    between atoms: C_22  and  C_23
REMARK                            x       y       z     vdW  Elec       q    Type
REMARK                         _______ _______ _______ _____ _____    ______ ____
ROOT
ATOM      1  N   UNL     1       1.513  10.576   3.108  0.00  0.00    -0.330 N 
ATOM      2  C   UNL     1       0.223  10.688   3.394  0.00  0.00    +0.051 A 
ATOM      3  C   UNL     1      -0.502   9.592   3.853  0.00  0.00    +0.035 A 
ATOM      4  C   UNL     1       0.149   8.368   4.021  0.00  0.00    -0.014 A 
ATOM      5  C   UNL     1       1.510   8.293   3.715  0.00  0.00    +0.035 A 
ATOM      6  C   UNL     1       2.165   9.431   3.256  0.00  0.00    +0.051 A 
ENDROOT
BRANCH   6   7
ATOM      7  C   UNL     1       3.610   9.363   2.928  0.00  0.00    -0.001 A 
ATOM      8  C   UNL     1       4.024   9.311   1.598  0.00  0.00    +0.010 A 
ATOM      9  C   UNL     1       5.370   9.254   1.298  0.00  0.00    +0.001 A 
ATOM     10  C   UNL     1       6.307   9.236   2.315  0.00  0.00    +0.000 A 
ATOM     11  C   UNL     1       5.902   9.281   3.637  0.00  0.00    +0.001 A 
ATOM     12  C   UNL     1       4.559   9.345   3.948  0.00  0.00    +0.010 A 
ENDBRANCH   6   7
BRANCH   4  13
ATOM     13  C   UNL     1      -0.586   7.177   4.514  0.00  0.00    -0.018 A 
ATOM     14  C   UNL     1       0.077   5.962   4.671  0.00  0.00    +0.008 A 
ATOM     15  C   UNL     1      -0.611   4.859   5.135  0.00  0.00    +0.001 A 
ATOM     16  C   UNL     1      -1.958   4.955   5.433  0.00  0.00    +0.000 A 
ATOM     17  C   UNL     1      -2.623   6.158   5.273  0.00  0.00    +0.001 A 
ATOM     18  C   UNL     1      -1.943   7.269   4.815  0.00  0.00    +0.008 A 
ENDBRANCH   4  13
BRANCH   2  19
ATOM     19  C   UNL     1      -0.457  11.995   3.217  0.00  0.00    -0.001 A 
ATOM     20  C   UNL     1      -1.115  12.284   2.024  0.00  0.00    +0.010 A 
ATOM     21  C   UNL     1      -1.751  13.499   1.867  0.00  0.00    +0.001 A 
ATOM     22  C   UNL     1      -1.726  14.433   2.888  0.00  0.00    +0.000 A 
ATOM     23  C   UNL     1      -1.069  14.152   4.072  0.00  0.00    +0.001 A 
ATOM     24  C   UNL     1      -0.435  12.938   4.242  0.00  0.00    +0.010 A 
ENDBRANCH   2  19
BRANCH   1  25
ATOM     25  C   UNL     1       2.239  11.752   2.623  0.00  0.00    +0.143 C 
BRANCH  25  27
ATOM     26  C   UNL     1       4.499  12.434   3.248  0.00  0.00    +0.006 C 
ATOM     27  C   UNL     1       3.722  11.510   2.738  0.00  0.00    -0.007 C 
ENDBRANCH  25  27
BRANCH  25  28
ATOM     28  C   UNL     1       1.877  12.006   1.158  0.00  0.00    +0.171 C 
BRANCH  28  29
ATOM     29  C   UNL     1       3.118  12.386   0.392  0.00  0.00    -0.015 A 
ATOM     30  C   UNL     1       3.683  11.491  -0.497  0.00  0.00    +0.006 A 
ATOM     31  C   UNL     1       4.819  11.841  -1.203  0.00  0.00    +0.003 A 
ATOM     32  C   UNL     1       5.395  13.083  -1.012  0.00  0.00    +0.033 A 
ATOM     33  C   UNL     1       4.830  13.978  -0.124  0.00  0.00    +0.127 A 
ATOM     34  C   UNL     1       3.691  13.630   0.578  0.00  0.00    +0.039 A 
BRANCH  33  35
ATOM     35  N   UNL     1       5.444  15.310   0.076  0.00  0.00    +0.056 N 
ATOM     36  O   UNL     1       6.448  15.617  -0.543  0.00  0.00    -0.126 OA
ATOM     37  O   UNL     1       4.947  16.099   0.859  0.00  0.00    -0.126 OA
ENDBRANCH  33  35
ENDBRANCH  28  29
BRANCH  28  38
ATOM     38  O   UNL     1       1.314  10.820   0.594  0.00  0.00    -0.385 OA
ATOM     39  H   UNL     1       1.647  10.002   0.986  0.00  0.00    +0.210 HD
ENDBRANCH  28  38
ENDBRANCH  25  28
ENDBRANCH   1  25
TORSDOF 9
