REMARK  Name = ZINC40152619
REMARK  8 active torsions:
REMARK  status: ('A' for Active; 'I' for Inactive)
REMARK    1  A    between atoms: C_1  and  C_2
REMARK    2  A    between atoms: N_5  and  C_11
REMARK    3  A    between atoms: C_7  and  C_10
REMARK    4  A    between atoms: C_14  and  N_18
REMARK    5  A    between atoms: N_18  and  S_19
REMARK    6  A    between atoms: S_19  and  C_22
REMARK    7  A    between atoms: C_26  and  S_28
REMARK    8  A    between atoms: S_28  and  N_31
REMARK                            x       y       z     vdW  Elec       q    Type
REMARK                         _______ _______ _______ _____ _____    ______ ____
ROOT
ATOM      1  N   UNL     1      -4.199  -5.398  -3.206  0.00  0.00    -0.098 NA
ENDROOT
BRANCH   1   5
ATOM      2  C   UNL     1      -2.096  -2.851  -0.659  0.00  0.00    +0.066 A 
ATOM      3  C   UNL     1      -1.491  -3.339  -1.809  0.00  0.00    +0.028 A 
ATOM      4  C   UNL     1      -2.188  -4.183  -2.652  0.00  0.00    +0.028 A 
ATOM      5  C   UNL     1      -3.494  -4.543  -2.351  0.00  0.00    +0.077 A 
ATOM      6  C   UNL     1      -4.101  -4.056  -1.201  0.00  0.00    +0.067 A 
ATOM      7  C   UNL     1      -3.403  -3.216  -0.354  0.00  0.00    +0.146 A 
ATOM      8  F   UNL     1      -3.991  -2.745   0.768  0.00  0.00    -0.203 F 
BRANCH   2  12
ATOM      9  C   UNL     1      -0.019   1.526   0.010  0.00  0.00    +0.039 C 
ATOM     10  C   UNL     1       0.002  -0.004   0.002  0.00  0.00    +0.133 C 
ATOM     11  C   UNL     1      -1.436  -0.536   0.015  0.00  0.00    +0.136 C 
ATOM     12  N   UNL     1      -1.389  -1.995   0.196  0.00  0.00    -0.323 N 
ATOM     13  C   UNL     1      -0.578  -2.530   1.302  0.00  0.00    +0.136 C 
ATOM     14  C   UNL     1       0.818  -1.901   1.226  0.00  0.00    +0.133 C 
ATOM     15  O   UNL     1       0.691  -0.479   1.161  0.00  0.00    -0.371 OA
ATOM     16  C   UNL     1       1.621  -2.288   2.469  0.00  0.00    +0.039 C 
ENDBRANCH   2  12
ENDBRANCH   1   5
BRANCH   1  17
ATOM     17  S   UNL     1      -5.758  -5.829  -2.846  0.00  0.00    +0.092 S 
ATOM     18  O   UNL     1      -5.700  -6.612  -1.663  0.00  0.00    -0.148 OA
ATOM     19  O   UNL     1      -6.538  -4.644  -2.938  0.00  0.00    -0.148 OA
BRANCH  17  20
ATOM     20  C   UNL     1      -6.313  -6.898  -4.132  0.00  0.00    +0.112 A 
ATOM     21  C   UNL     1      -6.928  -6.371  -5.252  0.00  0.00    +0.029 A 
ATOM     22  C   UNL     1      -7.364  -7.210  -6.260  0.00  0.00    +0.004 A 
ATOM     23  C   UNL     1      -7.183  -8.577  -6.149  0.00  0.00    +0.028 A 
ATOM     24  C   UNL     1      -6.567  -9.103  -5.029  0.00  0.00    +0.107 A 
ATOM     25  C   UNL     1      -6.128  -8.264  -4.023  0.00  0.00    +0.057 A 
BRANCH  24  26
ATOM     26  S   UNL     1      -6.338 -10.845  -4.887  0.00  0.00    +0.056 S 
ATOM     27  O   UNL     1      -6.227 -11.127  -3.499  0.00  0.00    -0.153 OA
ATOM     28  O   UNL     1      -7.322 -11.453  -5.712  0.00  0.00    -0.153 OA
BRANCH  26  29
ATOM     29  N   UNL     1      -4.868 -11.201  -5.562  0.00  0.00    -0.204 NA
ATOM     30  H   UNL     1      -4.321 -10.493  -5.936  0.00  0.00    +0.144 HD
ATOM     31  H   UNL     1      -4.554 -12.119  -5.582  0.00  0.00    +0.144 HD
ENDBRANCH  26  29
ENDBRANCH  24  26
ENDBRANCH  17  20
ENDBRANCH   1  17
TORSDOF 6
