REMARK  Name = ZINC26343488
REMARK  8 active torsions:
REMARK  status: ('A' for Active; 'I' for Inactive)
REMARK    1  A    between atoms: C_1  and  C_2
REMARK    2  A    between atoms: C_2  and  C_3
REMARK    3  A    between atoms: C_2  and  C_4
REMARK    4  A    between atoms: C_4  and  C_5
REMARK    5  A    between atoms: C_4  and  C_6
REMARK    6  A    between atoms: C_4  and  N_8
REMARK    7  A    between atoms: C_9  and  C_11
REMARK    8  A    between atoms: C_11  and  N_12
REMARK                            x       y       z     vdW  Elec       q    Type
REMARK                         _______ _______ _______ _____ _____    ______ ____
ROOT
ATOM      1  C   UNL     1      -1.052   3.369  -0.728  0.00  0.00    +0.200 C 
ENDROOT
BRANCH   1   2
ATOM      2  N   UNL     1      -1.459   2.144  -0.027  0.00  0.00    -0.321 N 
ATOM      3  C   UNL     1      -2.691   1.597  -0.598  0.00  0.00    +0.106 C 
ATOM      4  C   UNL     1      -3.051   0.309   0.153  0.00  0.00    +0.024 C 
ATOM      5  C   UNL     1      -1.996  -0.746  -0.187  0.00  0.00    +0.038 C 
ATOM      6  C   UNL     1      -0.618  -0.148  -0.049  0.00  0.00    -0.023 A 
ATOM      7  C   UNL     1      -0.414   1.219   0.010  0.00  0.00    +0.036 A 
ATOM      8  C   UNL     1       0.885   1.715   0.121  0.00  0.00    +0.064 A 
ATOM      9  C   UNL     1       1.961   0.852   0.179  0.00  0.00    +0.160 A 
ATOM     10  C   UNL     1       1.751  -0.518   0.126  0.00  0.00    +0.159 A 
ATOM     11  C   UNL     1       0.465  -1.012   0.013  0.00  0.00    +0.046 A 
ATOM     12  F   UNL     1       2.800  -1.367   0.185  0.00  0.00    -0.202 F 
ATOM     13  F   UNL     1       3.216   1.340   0.286  0.00  0.00    -0.202 F 
ENDBRANCH   1   2
BRANCH   1  15
ATOM     14  N   UNL     1      -0.464   4.038  -3.035  0.00  0.00    -0.296 N 
ATOM     15  C   UNL     1      -0.740   3.046  -2.166  0.00  0.00    +0.231 C 
ATOM     16  O   UNL     1      -0.738   1.892  -2.541  0.00  0.00    -0.274 OA
ATOM     17  H   UNL     1      -0.466   5.084  -2.695  0.00  0.00    +0.150 HD
BRANCH  14  18
ATOM     18  C   UNL     1      -0.160   3.723  -4.434  0.00  0.00    +0.121 C 
ATOM     19  C   UNL     1      -1.353   3.001  -5.064  0.00  0.00    +0.048 C 
BRANCH  18  21
ATOM     20  C   UNL     1       1.380   5.678  -4.649  0.00  0.00    +0.010 C 
ATOM     21  C   UNL     1       0.114   5.019  -5.200  0.00  0.00    +0.020 C 
ATOM     22  C   UNL     1       0.308   4.702  -6.684  0.00  0.00    +0.010 C 
ENDBRANCH  18  21
BRANCH  18  23
ATOM     23  C   UNL     1       1.027   2.856  -4.495  0.00  0.00    +0.088 C 
ATOM     24  N   UNL     1       1.944   2.186  -4.542  0.00  0.00    -0.194 NA
ENDBRANCH  18  23
ENDBRANCH  14  18
ENDBRANCH   1  15
TORSDOF 5
