REMARK  Name = ZINC39966940
REMARK  10 active torsions:
REMARK  status: ('A' for Active; 'I' for Inactive)
REMARK    1  A    between atoms: C_1  and  C_2
REMARK    2  A    between atoms: C_2  and  C_3
REMARK    3  A    between atoms: C_2  and  C_4
REMARK    4  A    between atoms: C_2  and  C_5
REMARK    5  A    between atoms: C_11  and  C_13
REMARK    6  A    between atoms: C_13  and  S_14
REMARK    7  A    between atoms: S_14  and  C_15
REMARK    8  A    between atoms: C_18  and  C_27
REMARK    9  A    between atoms: N_19  and  C_20
REMARK   10  A    between atoms: C_20  and  C_21
REMARK                            x       y       z     vdW  Elec       q    Type
REMARK                         _______ _______ _______ _____ _____    ______ ____
ROOT
ATOM      1  C   UNL     1       0.825  -4.004  -9.328  0.00  0.00    +0.192 A 
ATOM      2  N   UNL     1      -0.471  -4.191  -9.418  0.00  0.00    -0.122 NA
ATOM      3  N   UNL     1      -0.762  -4.736 -10.545  0.00  0.00    -0.128 NA
ATOM      4  C   UNL     1       0.331  -4.930 -11.245  0.00  0.00    +0.166 A 
ATOM      5  N   UNL     1       1.382  -4.463 -10.490  0.00  0.00    -0.300 N 
ENDROOT
BRANCH   4   6
ATOM      6  C   UNL     1       0.417  -5.533 -12.592  0.00  0.00    +0.030 A 
ATOM      7  C   UNL     1       1.153  -4.928 -13.568  0.00  0.00    +0.057 A 
ATOM      8  S   UNL     1       0.921  -6.040 -14.945  0.00  0.00    -0.101 S 
ATOM      9  C   UNL     1      -0.123  -7.223 -14.132  0.00  0.00    -0.006 A 
ATOM     10  C   UNL     1      -0.258  -6.738 -12.873  0.00  0.00    -0.026 A 
ATOM     11  C   UNL     1      -1.107  -7.444 -11.820  0.00  0.00    +0.036 C 
ATOM     12  C   UNL     1      -1.179  -8.936 -12.125  0.00  0.00    +0.005 C 
ATOM     13  C   UNL     1      -2.366  -9.244 -13.036  0.00  0.00    +0.001 C 
ATOM     14  C   UNL     1      -2.193  -8.540 -14.378  0.00  0.00    +0.005 C 
ATOM     15  C   UNL     1      -0.703  -8.474 -14.707  0.00  0.00    +0.043 C 
ENDBRANCH   4   6
BRANCH   1  16
ATOM     16  S   UNL     1       1.686  -3.289  -7.967  0.00  0.00    -0.077 S 
BRANCH  16  17
ATOM     17  C   UNL     1       0.377  -2.904  -6.772  0.00  0.00    +0.173 C 
BRANCH  17  24
ATOM     18  C   UNL     1       0.834  -0.380  -1.295  0.00  0.00    +0.056 A 
ATOM     19  C   UNL     1       2.179  -0.289  -1.446  0.00  0.00    +0.072 A 
ATOM     20  S   UNL     1       2.380  -0.999  -3.071  0.00  0.00    -0.060 S 
ATOM     21  C   UNL     1       0.759  -1.331  -3.382  0.00  0.00    +0.165 A 
ATOM     22  N   UNL     1       0.153  -0.915  -2.291  0.00  0.00    -0.229 NA
ATOM     23  N   UNL     1       0.198  -1.908  -4.516  0.00  0.00    -0.264 N 
ATOM     24  C   UNL     1       0.986  -2.279  -5.544  0.00  0.00    +0.229 C 
ATOM     25  O   UNL     1       2.185  -2.109  -5.481  0.00  0.00    -0.275 OA
ATOM     26  H   UNL     1      -0.762  -2.043  -4.566  0.00  0.00    +0.157 HD
BRANCH  18  28
ATOM     27  C   UNL     1       0.092   1.632  -0.050  0.00  0.00    +0.017 C 
ATOM     28  C   UNL     1       0.148   0.103  -0.043  0.00  0.00    +0.005 C 
ATOM     29  C   UNL     1       0.931  -0.372   1.183  0.00  0.00    +0.017 C 
ATOM     30  C   UNL     1      -1.273  -0.460   0.009  0.00  0.00    +0.017 C 
ENDBRANCH  18  28
ENDBRANCH  17  24
ENDBRANCH  16  17
ENDBRANCH   1  16
BRANCH   5  31
ATOM     31  C   UNL     1       2.801  -4.460 -10.854  0.00  0.00    +0.157 C 
BRANCH  31  32
ATOM     32  C   UNL     1       3.418  -5.817 -10.509  0.00  0.00    +0.138 C 
ATOM     33  C   UNL     1       4.897  -5.867 -10.969  0.00  0.00    +0.035 C 
ATOM     34  C   UNL     1       5.469  -6.944 -10.007  0.00  0.00    +0.031 C 
ATOM     35  C   UNL     1       4.659  -6.693  -8.717  0.00  0.00    +0.160 C 
ATOM     36  O   UNL     1       3.460  -5.999  -9.085  0.00  0.00    -0.375 OA
ENDBRANCH  31  32
ENDBRANCH   5  31
TORSDOF 7
