REMARK  Name = ZINC48403331
REMARK  4 active torsions:
REMARK  status: ('A' for Active; 'I' for Inactive)
REMARK    1  A    between atoms: C_1  and  C_2
REMARK    2  A    between atoms: C_8  and  N_10
REMARK    3  A    between atoms: N_10  and  C_11
REMARK    4  A    between atoms: C_11  and  C_21
REMARK                            x       y       z     vdW  Elec       q    Type
REMARK                         _______ _______ _______ _____ _____    ______ ____
ROOT
ATOM      1  C   UNL     1       0.738   0.093   3.603  0.00  0.00    +0.018 C 
ATOM      2  C   UNL     1      -0.038   0.617   4.619  0.00  0.00    +0.115 C 
ATOM      3  C   UNL     1      -1.475   0.887   4.429  0.00  0.00    +0.256 C 
ATOM      4  O   UNL     1      -2.019   0.654   3.366  0.00  0.00    -0.270 OA
ATOM      5  N   UNL     1      -2.170   1.398   5.466  0.00  0.00    -0.263 N 
ATOM      6  C   UNL     1      -1.583   1.659   6.642  0.00  0.00    +0.143 C 
ATOM      7  S   UNL     1      -2.545   2.307   7.902  0.00  0.00    -0.018 S 
ATOM      8  N   UNL     1      -0.283   1.439   6.886  0.00  0.00    -0.263 N 
ATOM      9  C   UNL     1       0.533   0.924   5.943  0.00  0.00    +0.256 C 
ATOM     10  O   UNL     1       1.710   0.725   6.177  0.00  0.00    -0.270 OA
ATOM     11  C   UNL     1       2.166  -0.305   3.874  0.00  0.00    +0.061 C 
ATOM     12  H   UNL     1      -3.116   1.581   5.357  0.00  0.00    +0.157 HD
ATOM     13  H   UNL     1       0.077   1.650   7.761  0.00  0.00    +0.157 HD
ENDROOT
BRANCH   1  14
ATOM     14  N   UNL     1       0.218  -0.061   2.368  0.00  0.00    -0.343 N 
ATOM     15  H   UNL     1      -0.723   0.115   2.213  0.00  0.00    +0.146 HD
BRANCH  14  22
ATOM     16  C   UNL     1       0.389   1.514  -0.057  0.00  0.00    +0.009 C 
ATOM     17  C   UNL     1       0.479  -0.014  -0.063  0.00  0.00    +0.006 C 
ATOM     18  C   UNL     1       1.373  -0.467  -1.219  0.00  0.00    +0.005 C 
ATOM     19  C   UNL     1       1.463  -1.994  -1.225  0.00  0.00    +0.000 C 
ATOM     20  C   UNL     1       2.059  -2.475   0.099  0.00  0.00    +0.002 C 
ATOM     21  C   UNL     1       1.164  -2.022   1.255  0.00  0.00    +0.022 C 
ATOM     22  C   UNL     1       1.074  -0.495   1.262  0.00  0.00    +0.073 C 
ENDBRANCH  14  22
ENDBRANCH   1  14
TORSDOF 2
