REMARK  Name = ZINC04536310
REMARK  15 active torsions:
REMARK  status: ('A' for Active; 'I' for Inactive)
REMARK    1  A    between atoms: C_1  and  C_2
REMARK    2  A    between atoms: C_2  and  C_3
REMARK    3  A    between atoms: C_3  and  C_4
REMARK    4  A    between atoms: C_7  and  C_11
REMARK    5  A    between atoms: C_10  and  N_61
REMARK    6  A    between atoms: N_13  and  C_14
REMARK    7  A    between atoms: C_14  and  C_16
REMARK    8  A    between atoms: C_14  and  C_34
REMARK    9  A    between atoms: C_18  and  O_33
REMARK   10  A    between atoms: C_20  and  O_32
REMARK   11  A    between atoms: C_22  and  O_29
REMARK   12  A    between atoms: C_24  and  S_27
REMARK   13  A    between atoms: S_27  and  C_28
REMARK   14  A    between atoms: O_29  and  P_30
REMARK   15  A    between atoms: C_34  and  C_36
REMARK                            x       y       z     vdW  Elec       q    Type
REMARK                         _______ _______ _______ _____ _____    ______ ____
ROOT
ATOM      1  C   UNL     1      -0.753   1.593  -1.231  0.00  0.00    +0.122 C 
ENDROOT
BRANCH   1   2
ATOM      2  C   UNL     1      -0.013   1.086   0.008  0.00  0.00    +0.172 C 
ATOM      3  C   UNL     1      -0.728   1.580   1.268  0.00  0.00    +0.176 C 
ATOM      4  C   UNL     1       0.053   1.119   2.503  0.00  0.00    +0.178 C 
ATOM      5  C   UNL     1       1.490   1.639   2.408  0.00  0.00    +0.200 C 
ATOM      6  C   UNL     1       2.120   1.143   1.104  0.00  0.00    +0.208 C 
ATOM      7  O   UNL     1       1.328   1.581  -0.002  0.00  0.00    -0.356 OA
BRANCH   6   8
ATOM      8  S   UNL     1       3.798   1.813   0.949  0.00  0.00    -0.130 S 
ATOM      9  C   UNL     1       4.450   1.022  -0.547  0.00  0.00    +0.087 C 
ENDBRANCH   6   8
BRANCH   4  10
ATOM     10  O   UNL     1      -0.567   1.637   3.681  0.00  0.00    -0.386 OA
ATOM     11  H   UNL     1      -0.120   1.390   4.502  0.00  0.00    +0.210 HD
ENDBRANCH   4  10
BRANCH   3  12
ATOM     12  O   UNL     1      -0.795   3.007   1.251  0.00  0.00    -0.387 OA
ATOM     13  H   UNL     1      -1.236   3.389   2.022  0.00  0.00    +0.210 HD
ENDBRANCH   3  12
BRANCH   5  14
ATOM     14  O   UNL     1       1.483   3.068   2.422  0.00  0.00    -0.274 OA
BRANCH  14  15
ATOM     15  P   UNL     1       2.239   3.938   3.547  0.00  0.00    +0.532 P 
ATOM     16  O   UNL     1       1.774   3.521   4.888  0.00  0.00    -0.222 OA
ATOM     17  O   UNL     1       3.827   3.701   3.431  0.00  0.00    -0.115 OA
ATOM     18  O   UNL     1       1.912   5.499   3.327  0.00  0.00    -0.115 OA
ENDBRANCH  14  15
ENDBRANCH   5  14
ENDBRANCH   1   2
BRANCH   1  21
ATOM     19  C   UNL     1      -3.097   1.753  -1.877  0.00  0.00    +0.200 C 
ATOM     20  O   UNL     1      -2.832   2.774  -2.476  0.00  0.00    -0.278 OA
ATOM     21  N   UNL     1      -2.128   1.086  -1.220  0.00  0.00    -0.310 N 
ATOM     22  H   UNL     1      -2.340   0.270  -0.741  0.00  0.00    +0.149 HD
BRANCH  19  25
ATOM     23  C   UNL     1      -6.195   0.139  -3.186  0.00  0.00    -0.029 C 
ATOM     24  C   UNL     1      -4.672   0.088  -2.897  0.00  0.00    -0.005 C 
ATOM     25  C   UNL     1      -4.511   1.232  -1.865  0.00  0.00    +0.019 C 
ATOM     26  C   UNL     1      -6.511   1.648  -3.120  0.00  0.00    -0.075 C 
ATOM     27  C   UNL     1      -6.019   3.006  -1.171  0.00  0.00    -0.095 C 
ATOM     28  N   UNL     1      -5.439   2.279  -2.331  0.00  0.00    +0.386 N 
ATOM     29  H   UNL     1      -4.928   2.946  -2.922  0.00  0.00    -0.081 HD
BRANCH  23  30
ATOM     30  C   UNL     1      -6.500  -0.417  -4.579  0.00  0.00    +0.001 C 
BRANCH  30  32
ATOM     31  C   UNL     1      -8.320  -1.025  -6.179  0.00  0.00    +0.004 C 
ATOM     32  C   UNL     1      -8.015  -0.469  -4.787  0.00  0.00    -0.003 C 
ENDBRANCH  30  32
ENDBRANCH  23  30
ENDBRANCH  19  25
ENDBRANCH   1  21
BRANCH   1  33
ATOM     33  C   UNL     1      -0.038   1.100  -2.490  0.00  0.00    +0.100 C 
ATOM     34  C   UNL     1      -0.778   1.607  -3.729  0.00  0.00    +0.026 C 
ATOM     35 CL   UNL     1       1.654   1.724  -2.504  0.00  0.00    -0.120 Cl
ENDBRANCH   1  33
TORSDOF 11
