REMARK  Name = ZINC21273959
REMARK  9 active torsions:
REMARK  status: ('A' for Active; 'I' for Inactive)
REMARK    1  A    between atoms: C_1  and  C_2
REMARK    2  A    between atoms: C_3  and  C_7
REMARK    3  A    between atoms: C_10  and  S_15
REMARK    4  A    between atoms: N_11  and  C_12
REMARK    5  A    between atoms: C_12  and  C_13
REMARK    6  A    between atoms: S_15  and  C_16
REMARK    7  A    between atoms: C_16  and  C_18
REMARK    8  A    between atoms: C_16  and  C_19
REMARK    9  A    between atoms: N_24  and  C_25
REMARK                            x       y       z     vdW  Elec       q    Type
REMARK                         _______ _______ _______ _____ _____    ______ ____
ROOT
ATOM      1  C   UNL     1      -6.546   5.379  -1.007  0.00  0.00    +0.233 C 
ATOM      2  O   UNL     1      -7.449   4.588  -0.840  0.00  0.00    -0.274 OA
ATOM      3  N   UNL     1      -6.795   6.578  -1.570  0.00  0.00    -0.239 N 
ATOM      4  C   UNL     1      -8.049   6.897  -1.947  0.00  0.00    +0.306 C 
ATOM      5  O   UNL     1      -8.955   6.104  -1.780  0.00  0.00    -0.252 OA
ATOM      6  N   UNL     1      -8.299   8.096  -2.510  0.00  0.00    -0.294 N 
ATOM      7  H   UNL     1      -5.976   7.296  -1.722  0.00  0.00    +0.159 HD
ATOM      8  H   UNL     1      -7.480   8.814  -2.662  0.00  0.00    +0.151 HD
ENDROOT
BRANCH   6   9
ATOM      9  C   UNL     1      -9.662   8.443  -2.920  0.00  0.00    +0.037 C 
ATOM     10  C   UNL     1     -10.153   7.436  -3.962  0.00  0.00    +0.029 C 
ATOM     11  C   UNL     1     -11.577   7.798  -4.390  0.00  0.00    -0.008 C 
ATOM     12  C   UNL     1     -11.585   9.203  -4.995  0.00  0.00    +0.007 C 
ATOM     13  C   UNL     1     -11.094  10.210  -3.954  0.00  0.00    -0.008 C 
ATOM     14  C   UNL     1      -9.671   9.848  -3.525  0.00  0.00    +0.029 C 
ATOM     15  C   UNL     1     -12.018  10.174  -2.735  0.00  0.00    +0.007 C 
ATOM     16  C   UNL     1     -12.010   8.769  -2.129  0.00  0.00    -0.008 C 
ATOM     17  C   UNL     1     -12.501   7.762  -3.171  0.00  0.00    +0.007 C 
ATOM     18  C   UNL     1     -10.586   8.407  -1.701  0.00  0.00    +0.029 C 
ENDBRANCH   6   9
BRANCH   1  19
ATOM     19  C   UNL     1      -5.144   5.022  -0.585  0.00  0.00    +0.137 C 
ATOM     20  C   UNL     1      -4.877   5.572   0.817  0.00  0.00    +0.029 C 
BRANCH  19  21
ATOM     21  S   UNL     1      -4.957   3.222  -0.573  0.00  0.00    -0.073 S 
BRANCH  21  25
ATOM     22  C   UNL     1      -1.234   2.332   0.210  0.00  0.00    +0.168 A 
ATOM     23  N   UNL     1      -1.229   3.645   0.237  0.00  0.00    -0.128 NA
ATOM     24  N   UNL     1      -2.407   4.093  -0.014  0.00  0.00    -0.122 NA
ATOM     25  C   UNL     1      -3.238   3.095  -0.207  0.00  0.00    +0.193 A 
ATOM     26  N   UNL     1      -2.521   1.939  -0.071  0.00  0.00    -0.298 N 
BRANCH  22  29
ATOM     27  C   UNL     1       0.854   2.578   2.536  0.00  0.00    +0.087 C 
ATOM     28  C   UNL     1       0.842   1.537   1.447  0.00  0.00    +0.112 A 
ATOM     29  C   UNL     1      -0.074   1.444   0.445  0.00  0.00    +0.060 A 
ATOM     30  C   UNL     1       0.330   0.283  -0.357  0.00  0.00    +0.053 A 
ATOM     31  C   UNL     1       1.436  -0.205   0.228  0.00  0.00    +0.196 A 
ATOM     32  O   UNL     1       1.732   0.546   1.300  0.00  0.00    -0.467 OA
ENDBRANCH  22  29
BRANCH  26  33
ATOM     33  C   UNL     1      -3.020   0.567  -0.198  0.00  0.00    +0.152 C 
BRANCH  33  34
ATOM     34  C   UNL     1      -3.373   0.033   1.167  0.00  0.00    -0.013 C 
ATOM     35  C   UNL     1      -4.573  -0.440   1.394  0.00  0.00    +0.005 C 
ENDBRANCH  33  34
ENDBRANCH  26  33
ENDBRANCH  21  25
ENDBRANCH  19  21
ENDBRANCH   1  19
TORSDOF 7
