REMARK  Name = ZINC30977520
REMARK  12 active torsions:
REMARK  status: ('A' for Active; 'I' for Inactive)
REMARK    1  A    between atoms: C_1  and  C_2
REMARK    2  A    between atoms: C_2  and  C_3
REMARK    3  A    between atoms: C_2  and  C_4
REMARK    4  A    between atoms: C_2  and  C_5
REMARK    5  A    between atoms: C_8  and  C_11
REMARK    6  A    between atoms: C_13  and  C_16
REMARK    7  A    between atoms: C_16  and  N_17
REMARK    8  A    between atoms: C_20  and  C_23
REMARK    9  A    between atoms: N_25  and  C_26
REMARK   10  A    between atoms: C_26  and  C_27
REMARK   11  A    between atoms: C_27  and  C_28
REMARK   12  A    between atoms: C_28  and  N_29
REMARK                            x       y       z     vdW  Elec       q    Type
REMARK                         _______ _______ _______ _____ _____    ______ ____
ROOT
ATOM      1  N   UNL     1      -0.584   7.668   9.031  0.00  0.00    +0.386 N 
ATOM      2  C   UNL     1      -0.117   6.454   9.713  0.00  0.00    -0.077 C 
ATOM      3  C   UNL     1       0.596   5.545   8.709  0.00  0.00    -0.006 C 
ATOM      4  C   UNL     1      -0.374   5.179   7.582  0.00  0.00    +0.071 C 
ATOM      5  C   UNL     1      -0.883   6.462   6.920  0.00  0.00    -0.006 C 
ATOM      6  C   UNL     1      -1.553   7.344   7.976  0.00  0.00    -0.077 C 
ATOM      7  H   UNL     1       0.286   8.140   8.553  0.00  0.00    -0.081 HD
ENDROOT
BRANCH   4   8
ATOM      8  C   UNL     1       0.340   4.333   6.559  0.00  0.00    +0.216 C 
ATOM      9  O   UNL     1       1.509   4.051   6.714  0.00  0.00    -0.276 OA
ATOM     10  N   UNL     1      -0.321   3.891   5.471  0.00  0.00    -0.315 N 
ATOM     11  H   UNL     1      -1.382   4.147   5.329  0.00  0.00    +0.149 HD
BRANCH  10  12
ATOM     12  C   UNL     1       0.372   3.069   4.476  0.00  0.00    +0.105 C 
BRANCH  12  13
ATOM     13  C   UNL     1      -0.598   2.703   3.350  0.00  0.00    +0.037 C 
BRANCH  13  14
ATOM     14  C   UNL     1       0.127   1.845   2.312  0.00  0.00    +0.106 C 
BRANCH  14  15
ATOM     15  N   UNL     1      -0.771   1.586   1.178  0.00  0.00    -0.329 N 
ATOM     16  C   UNL     1      -1.059   2.831   0.435  0.00  0.00    +0.110 C 
ATOM     17  C   UNL     1      -2.489   2.588  -0.099  0.00  0.00    +0.056 C 
ATOM     18  C   UNL     1      -3.056   1.594   0.895  0.00  0.00    -0.025 A 
ATOM     19  C   UNL     1      -1.995   1.054   1.612  0.00  0.00    +0.033 A 
ATOM     20  C   UNL     1      -2.258   0.111   2.603  0.00  0.00    +0.023 A 
ATOM     21  C   UNL     1      -3.555  -0.281   2.861  0.00  0.00    +0.002 A 
ATOM     22  C   UNL     1      -4.603   0.258   2.139  0.00  0.00    +0.000 A 
ATOM     23  C   UNL     1      -4.350   1.197   1.155  0.00  0.00    +0.005 A 
ENDBRANCH  14  15
ENDBRANCH  13  14
ENDBRANCH  12  13
ENDBRANCH  10  12
ENDBRANCH   4   8
BRANCH   1  24
ATOM     24  C   UNL     1      -1.151   8.625   9.990  0.00  0.00    +0.022 C 
BRANCH  24  27
ATOM     25  C   UNL     1      -2.246  11.559   8.226  0.00  0.00    +0.202 A 
ATOM     26  N   UNL     1      -2.488  10.310   8.684  0.00  0.00    -0.193 NA
ATOM     27  C   UNL     1      -1.392   9.944   9.301  0.00  0.00    +0.211 A 
ATOM     28  O   UNL     1      -0.530  10.961   9.209  0.00  0.00    -0.340 OA
ATOM     29  N   UNL     1      -1.030  11.874   8.587  0.00  0.00    -0.056 NA
BRANCH  25  33
ATOM     30  C   UNL     1      -4.937  14.002   6.018  0.00  0.00    -0.042 A 
ATOM     31  C   UNL     1      -3.675  14.475   6.330  0.00  0.00    +0.005 A 
ATOM     32  C   UNL     1      -2.797  13.686   7.046  0.00  0.00    +0.012 A 
ATOM     33  C   UNL     1      -3.185  12.412   7.456  0.00  0.00    +0.022 A 
ATOM     34  C   UNL     1      -4.456  11.939   7.135  0.00  0.00    +0.012 A 
ATOM     35  C   UNL     1      -5.327  12.738   6.422  0.00  0.00    +0.005 A 
BRANCH  30  37
ATOM     36  C   UNL     1      -5.274  15.206   3.876  0.00  0.00    +0.015 C 
ATOM     37  C   UNL     1      -5.890  14.868   5.235  0.00  0.00    -0.013 C 
ATOM     38  C   UNL     1      -7.207  14.117   5.026  0.00  0.00    +0.015 C 
ATOM     39  C   UNL     1      -6.158  16.161   6.009  0.00  0.00    +0.015 C 
ENDBRANCH  30  37
ENDBRANCH  25  33
ENDBRANCH  24  27
ENDBRANCH   1  24
TORSDOF 9
