REMARK  Name = ZINC14832290
REMARK  9 active torsions:
REMARK  status: ('A' for Active; 'I' for Inactive)
REMARK    1  A    between atoms: C_1  and  C_2
REMARK    2  A    between atoms: C_2  and  C_3
REMARK    3  A    between atoms: C_3  and  C_5
REMARK    4  A    between atoms: C_3  and  C_6
REMARK    5  A    between atoms: C_9  and  O_13
REMARK    6  A    between atoms: O_13  and  C_14
REMARK    7  A    between atoms: C_14  and  C_15
REMARK    8  A    between atoms: N_17  and  N_18
REMARK    9  A    between atoms: C_19  and  C_21
REMARK                            x       y       z     vdW  Elec       q    Type
REMARK                         _______ _______ _______ _____ _____    ______ ____
ROOT
ATOM      1  C   UNL     1       0.789  -8.326  -0.678  0.00  0.00    +0.267 C 
ATOM      2  O   UNL     1       0.228  -8.711  -1.682  0.00  0.00    -0.271 OA
ATOM      3  N   UNL     1       1.253  -9.217   0.220  0.00  0.00    -0.232 N 
ATOM      4  H   UNL     1       1.702  -8.909   1.022  0.00  0.00    +0.173 HD
ENDROOT
BRANCH   3   5
ATOM      5  N   UNL     1       1.087 -10.590  -0.006  0.00  0.00    -0.234 N 
ATOM      6  C   UNL     1       1.551 -11.482   0.891  0.00  0.00    +0.232 C 
ATOM      7  O   UNL     1       2.112 -11.096   1.895  0.00  0.00    -0.274 OA
ATOM      8  H   UNL     1       0.638 -10.899  -0.809  0.00  0.00    +0.173 HD
BRANCH   6   9
ATOM      9  C   UNL     1       1.372 -12.958   0.648  0.00  0.00    +0.076 C 
ATOM     10  C   UNL     1      -0.120 -13.281   0.544  0.00  0.00    +0.013 C 
ATOM     11  C   UNL     1      -0.302 -14.780   0.297  0.00  0.00    +0.001 C 
ATOM     12  C   UNL     1       0.310 -15.566   1.459  0.00  0.00    +0.000 C 
ATOM     13  C   UNL     1       1.802 -15.243   1.563  0.00  0.00    +0.001 C 
ATOM     14  C   UNL     1       1.983 -13.744   1.810  0.00  0.00    +0.013 C 
ENDBRANCH   6   9
ENDBRANCH   3   5
BRANCH   1  15
ATOM     15  C   UNL     1       0.968  -6.849  -0.435  0.00  0.00    +0.326 C 
BRANCH  15  16
ATOM     16  O   UNL     1       0.397  -6.115  -1.520  0.00  0.00    -0.482 OA
BRANCH  16  20
ATOM     17  C   UNL     1       0.632  -2.000  -1.327  0.00  0.00    -0.043 A 
ATOM     18  C   UNL     1       1.164  -2.771  -0.310  0.00  0.00    +0.007 A 
ATOM     19  C   UNL     1       1.086  -4.149  -0.372  0.00  0.00    +0.047 A 
ATOM     20  C   UNL     1       0.474  -4.760  -1.457  0.00  0.00    +0.135 A 
ATOM     21  C   UNL     1      -0.060  -3.985  -2.477  0.00  0.00    +0.060 A 
ATOM     22  C   UNL     1       0.015  -2.606  -2.407  0.00  0.00    +0.022 A 
ATOM     23 BR   UNL     1      -0.896  -4.813  -3.957  0.00  0.00    -0.047 Br
BRANCH  17  24
ATOM     24  C   UNL     1       0.718  -0.497  -1.257  0.00  0.00    +0.016 C 
ATOM     25  C   UNL     1       2.187  -0.073  -1.207  0.00  0.00    +0.012 C 
BRANCH  24  27
ATOM     26  C   UNL     1      -0.019   1.526   0.010  0.00  0.00    +0.004 C 
ATOM     27  C   UNL     1       0.002  -0.004   0.002  0.00  0.00    +0.004 C 
ENDBRANCH  24  27
ENDBRANCH  17  24
ENDBRANCH  16  20
ENDBRANCH  15  16
ENDBRANCH   1  15
TORSDOF 7
