REMARK  Name = ZINC35636409
REMARK  9 active torsions:
REMARK  status: ('A' for Active; 'I' for Inactive)
REMARK    1  A    between atoms: C_1  and  C_2
REMARK    2  A    between atoms: N_4  and  C_5
REMARK    3  A    between atoms: C_7  and  O_35
REMARK    4  A    between atoms: C_15  and  C_18
REMARK    5  A    between atoms: C_25  and  O_27
REMARK    6  A    between atoms: O_27  and  C_28
REMARK    7  A    between atoms: C_28  and  C_29
REMARK    8  A    between atoms: O_35  and  C_36
REMARK    9  A    between atoms: C_36  and  C_37
REMARK                            x       y       z     vdW  Elec       q    Type
REMARK                         _______ _______ _______ _____ _____    ______ ____
ROOT
ATOM      1  C   UNL     1      -1.145  -2.101  -0.050  0.00  0.00    +0.160 C 
ATOM      2  C   UNL     1      -2.493  -2.692  -0.476  0.00  0.00    +0.175 C 
ATOM      3  C   UNL     1      -2.442  -4.214  -0.339  0.00  0.00    +0.183 C 
ATOM      4  C   UNL     1      -2.065  -4.589   1.098  0.00  0.00    +0.178 C 
ATOM      5  C   UNL     1      -1.904  -6.113   1.179  0.00  0.00    +0.197 C 
ATOM      6  O   UNL     1      -0.956  -6.529   0.190  0.00  0.00    -0.345 OA
ATOM      7  C   UNL     1      -1.317  -6.168  -1.145  0.00  0.00    +0.282 C 
ATOM      8  O   UNL     1      -1.463  -4.748  -1.233  0.00  0.00    -0.339 OA
ATOM      9  O   UNL     1      -0.832  -3.957   1.448  0.00  0.00    -0.341 OA
ATOM     10  C   UNL     1      -0.835  -2.545   1.382  0.00  0.00    +0.274 C 
ENDROOT
BRANCH   7  11
ATOM     11  C   UNL     1      -0.239  -6.621  -2.096  0.00  0.00    +0.008 A 
ATOM     12  C   UNL     1       0.432  -5.695  -2.872  0.00  0.00    +0.008 A 
ATOM     13  C   UNL     1       1.421  -6.111  -3.745  0.00  0.00    +0.000 A 
ATOM     14  C   UNL     1       1.738  -7.453  -3.841  0.00  0.00    +0.000 A 
ATOM     15  C   UNL     1       1.067  -8.379  -3.064  0.00  0.00    +0.000 A 
ATOM     16  C   UNL     1       0.082  -7.962  -2.188  0.00  0.00    +0.008 A 
ENDBRANCH   7  11
BRANCH   1  20
ATOM     17  C   UNL     1      -0.154   1.585  -0.347  0.00  0.00    +0.109 C 
ATOM     18  C   UNL     1      -0.086   0.080  -0.290  0.00  0.00    +0.210 C 
ATOM     19  O   UNL     1       0.981  -0.484  -0.409  0.00  0.00    -0.276 OA
ATOM     20  N   UNL     1      -1.211  -0.639  -0.106  0.00  0.00    -0.305 N 
ATOM     21  H   UNL     1      -2.065  -0.188  -0.011  0.00  0.00    +0.149 HD
ENDBRANCH   1  20
BRANCH  10  22
ATOM     22  O   UNL     1      -1.838  -2.042   2.266  0.00  0.00    -0.345 OA
BRANCH  22  23
ATOM     23  C   UNL     1      -1.528  -2.205   3.652  0.00  0.00    +0.198 C 
BRANCH  23  24
ATOM     24  C   UNL     1      -2.648  -1.643   4.487  0.00  0.00    -0.022 A 
ATOM     25  C   UNL     1      -2.625  -0.315   4.871  0.00  0.00    +0.006 A 
ATOM     26  C   UNL     1      -3.653   0.202   5.637  0.00  0.00    +0.000 A 
ATOM     27  C   UNL     1      -4.704  -0.610   6.020  0.00  0.00    +0.000 A 
ATOM     28  C   UNL     1      -4.728  -1.938   5.636  0.00  0.00    +0.000 A 
ATOM     29  C   UNL     1      -3.702  -2.453   4.866  0.00  0.00    +0.006 A 
ENDBRANCH  23  24
ENDBRANCH  22  23
ENDBRANCH  10  22
BRANCH   2  30
ATOM     30  O   UNL     1      -3.528  -2.171   0.360  0.00  0.00    -0.368 OA
BRANCH  30  31
ATOM     31  C   UNL     1      -4.808  -2.109  -0.271  0.00  0.00    +0.187 C 
BRANCH  31  32
ATOM     32  C   UNL     1      -5.792  -1.440   0.654  0.00  0.00    -0.007 C 
ATOM     33  C   UNL     1      -6.608  -0.525   0.192  0.00  0.00    +0.006 C 
ENDBRANCH  31  32
ENDBRANCH  30  31
ENDBRANCH   2  30
TORSDOF 8
