REMARK  Name = ZINC21529419
REMARK  7 active torsions:
REMARK  status: ('A' for Active; 'I' for Inactive)
REMARK    1  A    between atoms: C_4  and  C_7
REMARK    2  A    between atoms: C_7  and  C_8
REMARK    3  A    between atoms: C_8  and  C_10
REMARK    4  A    between atoms: C_8  and  N_29
REMARK    5  A    between atoms: N_19  and  C_22
REMARK    6  A    between atoms: C_22  and  C_23
REMARK    7  A    between atoms: C_30  and  C_32
REMARK                            x       y       z     vdW  Elec       q    Type
REMARK                         _______ _______ _______ _____ _____    ______ ____
ROOT
ATOM      1  C   UNL     1       5.422  -1.804   1.383  0.00  0.00    +0.239 C 
ATOM      2  O   UNL     1       6.446  -1.378   1.874  0.00  0.00    -0.273 OA
ATOM      3  N   UNL     1       5.402  -3.031   0.824  0.00  0.00    -0.263 N 
ATOM      4  C   UNL     1       6.555  -3.807   0.810  0.00  0.00    +0.165 A 
ATOM      5  N   UNL     1       7.743  -3.514   1.294  0.00  0.00    -0.229 NA
ATOM      6  C   UNL     1       8.761  -4.361   1.208  0.00  0.00    +0.050 A 
ATOM      7  C   UNL     1       8.480  -5.537   0.585  0.00  0.00    -0.002 A 
ATOM      8  S   UNL     1       6.769  -5.353   0.174  0.00  0.00    -0.059 S 
ATOM      9  C   UNL     1       9.419  -6.666   0.339  0.00  0.00    -0.033 C 
ATOM     10  N   UNL     1      10.796  -6.174   0.543  0.00  0.00    +0.386 N 
ATOM     11  C   UNL     1      10.880  -5.468   1.828  0.00  0.00    -0.072 C 
ATOM     12  C   UNL     1      10.166  -4.115   1.742  0.00  0.00    +0.038 C 
ATOM     13  H   UNL     1       4.583  -3.372   0.432  0.00  0.00    +0.157 HD
ATOM     14  H   UNL     1      11.041  -5.542  -0.204  0.00  0.00    -0.081 HD
ENDROOT
BRANCH   1  15
ATOM     15  C   UNL     1       4.171  -0.963   1.399  0.00  0.00    +0.164 C 
BRANCH  15  16
ATOM     16  N   UNL     1       4.451   0.315   2.057  0.00  0.00    -0.297 N 
ATOM     17  C   UNL     1       3.451   1.007   2.638  0.00  0.00    +0.280 C 
ATOM     18  O   UNL     1       2.316   0.570   2.616  0.00  0.00    -0.267 OA
ATOM     19  H   UNL     1       5.356   0.664   2.075  0.00  0.00    +0.150 HD
BRANCH  17  20
ATOM     20  C   UNL     1       3.731   2.287   3.297  0.00  0.00    +0.189 A 
ATOM     21  C   UNL     1       2.817   3.083   3.926  0.00  0.00    +0.054 A 
ATOM     22  C   UNL     1       3.518   4.198   4.410  0.00  0.00    +0.042 A 
ATOM     23  C   UNL     1       4.813   4.037   4.060  0.00  0.00    +0.196 A 
ATOM     24  O   UNL     1       4.938   2.881   3.394  0.00  0.00    -0.458 OA
ENDBRANCH  17  20
ENDBRANCH  15  16
BRANCH  15  25
ATOM     25  C   UNL     1       3.711  -0.707  -0.038  0.00  0.00    +0.067 C 
BRANCH  25  29
ATOM     26  C   UNL     1      -0.017   1.378   0.010  0.00  0.00    +0.000 A 
ATOM     27  C   UNL     1       1.171   2.086   0.002  0.00  0.00    +0.000 A 
ATOM     28  C   UNL     1       2.377   1.411  -0.013  0.00  0.00    +0.004 A 
ATOM     29  C   UNL     1       2.396   0.029  -0.020  0.00  0.00    -0.045 A 
ATOM     30  C   UNL     1       1.208  -0.679  -0.012  0.00  0.00    +0.004 A 
ATOM     31  C   UNL     1       0.002  -0.004   0.002  0.00  0.00    +0.000 A 
ENDBRANCH  25  29
ENDBRANCH  15  25
ENDBRANCH   1  15
BRANCH  10  32
ATOM     32  C   UNL     1      11.726  -7.311   0.548  0.00  0.00    -0.043 C 
BRANCH  32  33
ATOM     33  C   UNL     1      11.732  -7.960  -0.812  0.00  0.00    -0.064 A 
ATOM     34  C   UNL     1      10.843  -8.980  -1.095  0.00  0.00    +0.002 A 
ATOM     35  C   UNL     1      10.848  -9.576  -2.343  0.00  0.00    +0.000 A 
ATOM     36  C   UNL     1      11.743  -9.152  -3.307  0.00  0.00    +0.000 A 
ATOM     37  C   UNL     1      12.632  -8.131  -3.025  0.00  0.00    +0.000 A 
ATOM     38  C   UNL     1      12.623  -7.533  -1.778  0.00  0.00    +0.002 A 
ENDBRANCH  32  33
ENDBRANCH  10  32
TORSDOF 7
