REMARK  Name = ZINC13945021
REMARK  7 active torsions:
REMARK  status: ('A' for Active; 'I' for Inactive)
REMARK    1  A    between atoms: C_1  and  C_2
REMARK    2  A    between atoms: C_5  and  C_8
REMARK    3  A    between atoms: C_11  and  S_16
REMARK    4  A    between atoms: N_12  and  C_13
REMARK    5  A    between atoms: C_13  and  C_14
REMARK    6  A    between atoms: S_16  and  C_17
REMARK    7  A    between atoms: C_17  and  C_18
REMARK                            x       y       z     vdW  Elec       q    Type
REMARK                         _______ _______ _______ _____ _____    ______ ____
ROOT
ATOM      1  C   UNL     1       0.009  -0.005  -0.046  0.00  0.00    +0.165 A 
ATOM      2  N   UNL     1       1.058  -0.771   0.144  0.00  0.00    -0.128 NA
ATOM      3  N   UNL     1       0.706  -2.007   0.133  0.00  0.00    -0.122 NA
ATOM      4  C   UNL     1      -0.590  -2.105  -0.063  0.00  0.00    +0.193 A 
ATOM      5  N   UNL     1      -1.079  -0.836  -0.179  0.00  0.00    -0.298 N 
ENDROOT
BRANCH   1  10
ATOM      6  C   UNL     1      -0.032   5.746  -0.253  0.00  0.00    +0.044 C 
ATOM      7  C   UNL     1      -0.021   4.240  -0.199  0.00  0.00    -0.050 A 
ATOM      8  C   UNL     1       1.050   3.579   0.377  0.00  0.00    +0.004 A 
ATOM      9  C   UNL     1       1.065   2.201   0.430  0.00  0.00    +0.012 A 
ATOM     10  C   UNL     1      -0.001   1.473  -0.099  0.00  0.00    +0.019 A 
ATOM     11  C   UNL     1      -1.075   2.145  -0.684  0.00  0.00    +0.012 A 
ATOM     12  C   UNL     1      -1.081   3.524  -0.726  0.00  0.00    +0.004 A 
ENDBRANCH   1  10
BRANCH   5  13
ATOM     13  C   UNL     1      -2.472  -0.441  -0.401  0.00  0.00    +0.152 C 
BRANCH  13  14
ATOM     14  C   UNL     1      -2.757  -0.413  -1.880  0.00  0.00    -0.013 C 
ATOM     15  C   UNL     1      -3.752  -1.112  -2.368  0.00  0.00    +0.005 C 
ENDBRANCH  13  14
ENDBRANCH   5  13
BRANCH   4  16
ATOM     16  S   UNL     1      -1.523  -3.597  -0.154  0.00  0.00    -0.077 S 
BRANCH  16  17
ATOM     17  C   UNL     1      -0.202  -4.810   0.092  0.00  0.00    +0.173 C 
BRANCH  17  18
ATOM     18  C   UNL     1      -0.782  -6.200   0.052  0.00  0.00    +0.229 C 
ATOM     19  O   UNL     1      -1.971  -6.356  -0.126  0.00  0.00    -0.275 OA
ATOM     20  N   UNL     1       0.021  -7.270   0.214  0.00  0.00    -0.265 N 
ATOM     21  C   UNL     1      -0.511  -8.545   0.177  0.00  0.00    +0.156 C 
ATOM     22  N   UNL     1       0.130  -9.661   0.315  0.00  0.00    -0.262 NA
ATOM     23  C   UNL     1      -0.537 -10.942   0.258  0.00  0.00    +0.155 C 
ATOM     24  C   UNL     1      -2.058 -10.813   0.019  0.00  0.00    +0.100 C 
ATOM     25  S   UNL     1      -2.220  -8.988  -0.063  0.00  0.00    -0.089 S 
ATOM     26  H   UNL     1       0.972  -7.146   0.356  0.00  0.00    +0.157 HD
ENDBRANCH  17  18
ENDBRANCH  16  17
ENDBRANCH   4  16
TORSDOF 6
