REMARK  Name = ZINC39637059
REMARK  15 active torsions:
REMARK  status: ('A' for Active; 'I' for Inactive)
REMARK    1  A    between atoms: C_1  and  C_2
REMARK    2  A    between atoms: C_2  and  C_3
REMARK    3  A    between atoms: C_2  and  C_4
REMARK    4  A    between atoms: C_4  and  C_6
REMARK    5  A    between atoms: C_4  and  O_35
REMARK    6  A    between atoms: C_10  and  C_19
REMARK    7  A    between atoms: N_21  and  C_22
REMARK    8  A    between atoms: C_22  and  C_23
REMARK    9  A    between atoms: C_25  and  O_33
REMARK   10  A    between atoms: C_26  and  O_31
REMARK   11  A    between atoms: C_27  and  O_29
REMARK   12  A    between atoms: O_29  and  C_30
REMARK   13  A    between atoms: O_31  and  C_32
REMARK   14  A    between atoms: O_33  and  C_34
REMARK   15  A    between atoms: O_35  and  C_36
REMARK                            x       y       z     vdW  Elec       q    Type
REMARK                         _______ _______ _______ _____ _____    ______ ____
ROOT
ATOM      1  C   UNL     1      -2.249   0.026  -1.003  0.00  0.00    +0.257 C 
ATOM      2  O   UNL     1      -2.878  -0.648  -1.791  0.00  0.00    -0.272 OA
ATOM      3  N   UNL     1      -2.386   1.367  -1.003  0.00  0.00    -0.297 N 
ATOM      4  C   UNL     1      -1.647   2.356  -0.183  0.00  0.00    +0.121 C 
ATOM      5  C   UNL     1      -1.389   3.541  -1.139  0.00  0.00    +0.100 C 
ATOM      6  C   UNL     1      -2.485   3.426  -2.212  0.00  0.00    -0.004 C 
ATOM      7  C   UNL     1      -3.306   2.186  -1.828  0.00  0.00    +0.115 C 
ATOM      8  C   UNL     1      -1.857   3.229  -3.589  0.00  0.00    -0.010 C 
ATOM      9  C   UNL     1      -2.964   3.174  -4.646  0.00  0.00    -0.082 C 
ATOM     10  N   UNL     1      -3.738   4.421  -4.612  0.00  0.00    +0.379 N 
ATOM     11  C   UNL     1      -4.413   4.556  -3.316  0.00  0.00    -0.082 C 
ATOM     12  C   UNL     1      -3.368   4.670  -2.203  0.00  0.00    -0.010 C 
ATOM     13  H   UNL     1      -3.117   5.204  -4.750  0.00  0.00    -0.086 HD
ATOM     14  H   UNL     1      -4.427   4.407  -5.349  0.00  0.00    -0.086 HD
ENDROOT
BRANCH   5  15
ATOM     15  C   UNL     1      -1.512   4.849  -0.399  0.00  0.00    +0.218 C 
ATOM     16  O   UNL     1      -2.202   4.920   0.596  0.00  0.00    -0.275 OA
ATOM     17  N   UNL     1      -0.855   5.939  -0.843  0.00  0.00    -0.311 N 
ATOM     18  H   UNL     1      -0.304   5.882  -1.639  0.00  0.00    +0.149 HD
BRANCH  17  19
ATOM     19  C   UNL     1      -0.975   7.209  -0.124  0.00  0.00    +0.139 C 
BRANCH  19  20
ATOM     20  C   UNL     1      -0.150   8.260  -0.821  0.00  0.00    -0.023 A 
ATOM     21  C   UNL     1       1.174   8.444  -0.468  0.00  0.00    +0.054 A 
ATOM     22  C   UNL     1       1.937   9.410  -1.106  0.00  0.00    +0.165 A 
ATOM     23  C   UNL     1       1.369  10.194  -2.102  0.00  0.00    +0.204 A 
ATOM     24  C   UNL     1       0.037  10.007  -2.455  0.00  0.00    +0.165 A 
ATOM     25  C   UNL     1      -0.717   9.035  -1.815  0.00  0.00    +0.054 A 
BRANCH  24  26
ATOM     26  O   UNL     1      -0.523  10.772  -3.429  0.00  0.00    -0.491 OA
ATOM     27  C   UNL     1      -1.896  10.524  -3.740  0.00  0.00    +0.277 C 
ENDBRANCH  24  26
BRANCH  23  28
ATOM     28  O   UNL     1       2.114  11.144  -2.731  0.00  0.00    -0.488 OA
ATOM     29  C   UNL     1       2.821  10.742  -3.905  0.00  0.00    +0.277 C 
ENDBRANCH  23  28
BRANCH  22  30
ATOM     30  O   UNL     1       3.239   9.590  -0.757  0.00  0.00    -0.491 OA
ATOM     31  C   UNL     1       3.756   8.748   0.276  0.00  0.00    +0.277 C 
ENDBRANCH  22  30
ENDBRANCH  19  20
ENDBRANCH  17  19
ENDBRANCH   5  15
BRANCH   1  32
ATOM     32  C   UNL     1      -1.313  -0.636  -0.024  0.00  0.00    +0.261 C 
BRANCH  32  34
ATOM     33  C   UNL     1       0.659   0.559  -0.985  0.00  0.00    +0.011 C 
ATOM     34  C   UNL     1       0.061  -0.814  -0.672  0.00  0.00    +0.033 C 
ATOM     35  C   UNL     1       0.984  -1.565   0.288  0.00  0.00    +0.011 C 
ENDBRANCH  32  34
BRANCH  32  36
ATOM     36  O   UNL     1      -1.836  -1.914   0.344  0.00  0.00    -0.479 OA
BRANCH  36  37
ATOM     37  C   UNL     1      -1.590  -2.339   1.611  0.00  0.00    +0.122 A 
ATOM     38  C   UNL     1      -0.939  -1.506   2.510  0.00  0.00    +0.045 A 
ATOM     39  C   UNL     1      -0.691  -1.940   3.797  0.00  0.00    +0.004 A 
ATOM     40  C   UNL     1      -1.090  -3.204   4.191  0.00  0.00    +0.000 A 
ATOM     41  C   UNL     1      -1.739  -4.036   3.297  0.00  0.00    +0.004 A 
ATOM     42  C   UNL     1      -1.995  -3.604   2.010  0.00  0.00    +0.045 A 
ENDBRANCH  36  37
ENDBRANCH  32  36
ENDBRANCH   1  32
TORSDOF 10
