REMARK  Name = ZINC39639142
REMARK  11 active torsions:
REMARK  status: ('A' for Active; 'I' for Inactive)
REMARK    1  A    between atoms: C_1  and  C_2
REMARK    2  A    between atoms: C_7  and  C_8
REMARK    3  A    between atoms: C_12  and  C_21
REMARK    4  A    between atoms: N_23  and  C_24
REMARK    5  A    between atoms: C_24  and  C_25
REMARK    6  A    between atoms: C_26  and  O_35
REMARK    7  A    between atoms: C_28  and  O_33
REMARK    8  A    between atoms: C_30  and  O_31
REMARK    9  A    between atoms: O_31  and  C_32
REMARK   10  A    between atoms: O_33  and  C_34
REMARK   11  A    between atoms: O_35  and  C_36
REMARK                            x       y       z     vdW  Elec       q    Type
REMARK                         _______ _______ _______ _____ _____    ______ ____
ROOT
ATOM      1  C   UNL     1       0.116  -0.224   2.515  0.00  0.00    +0.247 C 
ATOM      2  O   UNL     1      -0.021   0.982   2.580  0.00  0.00    -0.270 OA
ATOM      3  N   UNL     1       0.322  -0.941   3.637  0.00  0.00    -0.296 N 
ATOM      4  C   UNL     1       0.621  -2.388   3.749  0.00  0.00    +0.121 C 
ATOM      5  C   UNL     1       1.670  -2.484   4.879  0.00  0.00    +0.100 C 
ATOM      6  C   UNL     1       1.454  -1.217   5.723  0.00  0.00    -0.004 C 
ATOM      7  C   UNL     1       0.308  -0.458   5.039  0.00  0.00    +0.115 C 
ATOM      8  C   UNL     1       1.063  -1.593   7.150  0.00  0.00    -0.010 C 
ATOM      9  C   UNL     1       0.911  -0.318   7.985  0.00  0.00    -0.082 C 
ATOM     10  N   UNL     1       2.177   0.424   7.983  0.00  0.00    +0.379 N 
ATOM     11  C   UNL     1       2.498   0.862   6.619  0.00  0.00    -0.082 C 
ATOM     12  C   UNL     1       2.718  -0.362   5.726  0.00  0.00    -0.010 C 
ATOM     13  H   UNL     1       2.093   1.232   8.582  0.00  0.00    -0.086 HD
ATOM     14  H   UNL     1       2.915  -0.171   8.326  0.00  0.00    -0.086 HD
ENDROOT
BRANCH   1  21
ATOM     15  C   UNL     1       1.419   0.969   0.224  0.00  0.00    +0.044 C 
ATOM     16  C   UNL     1       0.680  -0.339   0.091  0.00  0.00    -0.038 A 
ATOM     17  C   UNL     1       0.626  -0.981  -1.129  0.00  0.00    +0.007 A 
ATOM     18  C   UNL     1      -0.050  -2.180  -1.254  0.00  0.00    +0.038 A 
ATOM     19  C   UNL     1      -0.678  -2.746  -0.155  0.00  0.00    +0.124 A 
ATOM     20  C   UNL     1      -0.631  -2.112   1.072  0.00  0.00    +0.051 A 
ATOM     21  C   UNL     1       0.056  -0.904   1.204  0.00  0.00    +0.043 A 
ATOM     22  F   UNL     1      -1.337  -3.918  -0.284  0.00  0.00    -0.205 F 
ENDBRANCH   1  21
BRANCH   5  23
ATOM     23  C   UNL     1       3.062  -2.502   4.302  0.00  0.00    +0.218 C 
ATOM     24  O   UNL     1       3.281  -1.981   3.229  0.00  0.00    -0.275 OA
ATOM     25  N   UNL     1       4.064  -3.098   4.979  0.00  0.00    -0.311 N 
ATOM     26  H   UNL     1       3.889  -3.514   5.838  0.00  0.00    +0.149 HD
BRANCH  25  27
ATOM     27  C   UNL     1       5.418  -3.115   4.419  0.00  0.00    +0.147 C 
BRANCH  27  28
ATOM     28  C   UNL     1       6.343  -3.836   5.364  0.00  0.00    +0.053 A 
ATOM     29  C   UNL     1       7.008  -3.131   6.356  0.00  0.00    +0.132 A 
ATOM     30  C   UNL     1       7.860  -3.794   7.227  0.00  0.00    +0.091 A 
ATOM     31  C   UNL     1       8.047  -5.163   7.105  0.00  0.00    +0.127 A 
ATOM     32  C   UNL     1       7.382  -5.868   6.113  0.00  0.00    +0.091 A 
ATOM     33  C   UNL     1       6.527  -5.206   5.246  0.00  0.00    +0.132 A 
BRANCH  33  34
ATOM     34  O   UNL     1       5.871  -5.898   4.277  0.00  0.00    -0.495 OA
ATOM     35  C   UNL     1       6.107  -7.306   4.213  0.00  0.00    +0.277 C 
ENDBRANCH  33  34
BRANCH  31  36
ATOM     36  O   UNL     1       8.883  -5.813   7.957  0.00  0.00    -0.495 OA
ATOM     37  C   UNL     1       9.028  -7.223   7.774  0.00  0.00    +0.277 C 
ENDBRANCH  31  36
BRANCH  29  38
ATOM     38  O   UNL     1       6.824  -1.790   6.476  0.00  0.00    -0.495 OA
ATOM     39  C   UNL     1       7.540  -1.127   7.520  0.00  0.00    +0.277 C 
ENDBRANCH  29  38
ENDBRANCH  27  28
ENDBRANCH  25  27
ENDBRANCH   5  23
TORSDOF 7
