REMARK  Name = ZINC20885348
REMARK  6 active torsions:
REMARK  status: ('A' for Active; 'I' for Inactive)
REMARK    1  A    between atoms: C_1  and  N_2
REMARK    2  A    between atoms: C_9  and  C_17
REMARK    3  A    between atoms: C_10  and  C_11
REMARK    4  A    between atoms: N_18  and  N_19
REMARK    5  A    between atoms: C_20  and  C_22
REMARK    6  A    between atoms: C_24  and  N_30
REMARK                            x       y       z     vdW  Elec       q    Type
REMARK                         _______ _______ _______ _____ _____    ______ ____
ROOT
ATOM      1  C   UNL     1       4.883   0.800   1.757  0.00  0.00    +0.141 C 
ATOM      2  N   UNL     1       5.987   0.660   2.430  0.00  0.00    -0.187 NA
ENDROOT
BRANCH   1  11
ATOM      3  C   UNL     1       3.000   3.840  -1.772  0.00  0.00    +0.149 C 
ATOM      4  N   UNL     1       3.930   3.248  -0.808  0.00  0.00    -0.342 N 
ATOM      5  C   UNL     1       5.208   3.705  -0.561  0.00  0.00    +0.050 A 
ATOM      6  C   UNL     1       5.952   4.759  -1.084  0.00  0.00    +0.026 A 
ATOM      7  C   UNL     1       7.235   4.984  -0.638  0.00  0.00    +0.002 A 
ATOM      8  C   UNL     1       7.800   4.168   0.333  0.00  0.00    +0.001 A 
ATOM      9  C   UNL     1       7.081   3.121   0.864  0.00  0.00    +0.010 A 
ATOM     10  C   UNL     1       5.780   2.881   0.422  0.00  0.00    +0.009 A 
ATOM     11  C   UNL     1       4.758   1.880   0.770  0.00  0.00    +0.028 A 
ATOM     12  C   UNL     1       3.655   2.158  -0.021  0.00  0.00    +0.059 A 
BRANCH  12  13
ATOM     13  C   UNL     1       2.385   1.407  -0.013  0.00  0.00    -0.001 A 
ATOM     14  C   UNL     1       1.166   2.089   0.002  0.00  0.00    +0.010 A 
ATOM     15  C   UNL     1      -0.017   1.380   0.010  0.00  0.00    +0.001 A 
ATOM     16  C   UNL     1       0.002  -0.004   0.002  0.00  0.00    +0.000 A 
ATOM     17  C   UNL     1       1.206  -0.686  -0.013  0.00  0.00    +0.001 A 
ATOM     18  C   UNL     1       2.397   0.009  -0.021  0.00  0.00    +0.010 A 
ENDBRANCH  12  13
ENDBRANCH   1  11
BRANCH   2  19
ATOM     19  N   UNL     1       6.107  -0.370   3.372  0.00  0.00    -0.202 N 
ATOM     20  C   UNL     1       7.250  -0.516   4.070  0.00  0.00    +0.283 C 
ATOM     21  O   UNL     1       8.179   0.246   3.882  0.00  0.00    -0.267 OA
ATOM     22  H   UNL     1       5.267  -1.060   3.542  0.00  0.00    +0.178 HD
BRANCH  20  23
ATOM     23  C   UNL     1       7.377  -1.604   5.064  0.00  0.00    +0.149 A 
ATOM     24  C   UNL     1       8.563  -1.752   5.778  0.00  0.00    +0.094 A 
ATOM     25  C   UNL     1       8.664  -2.781   6.715  0.00  0.00    +0.067 A 
ATOM     26  C   UNL     1       7.570  -3.626   6.891  0.00  0.00    +0.100 A 
ATOM     27  C   UNL     1       6.425  -3.417   6.139  0.00  0.00    +0.150 A 
ATOM     28  N   UNL     1       6.358  -2.435   5.265  0.00  0.00    -0.228 NA
ATOM     29 CL   UNL     1       5.058  -4.466   6.353  0.00  0.00    -0.060 Cl
ATOM     30 CL   UNL     1       7.641  -4.927   8.038  0.00  0.00    -0.078 Cl
ATOM     31 CL   UNL     1       9.894  -0.670   5.509  0.00  0.00    -0.079 Cl
BRANCH  25  32
ATOM     32  N   UNL     1       9.832  -2.961   7.454  0.00  0.00    -0.356 N 
ATOM     33  H   UNL     1       9.897  -3.776   8.190  0.00  0.00    +0.142 HD
ATOM     34  H   UNL     1      10.689  -2.288   7.301  0.00  0.00    +0.142 HD
ENDBRANCH  25  32
ENDBRANCH  20  23
ENDBRANCH   2  19
TORSDOF 5
