REMARK  Name = ZINC40127499
REMARK  7 active torsions:
REMARK  status: ('A' for Active; 'I' for Inactive)
REMARK    1  A    between atoms: C_1  and  C_2
REMARK    2  A    between atoms: C_5  and  C_8
REMARK    3  A    between atoms: C_8  and  O_9
REMARK    4  A    between atoms: O_9  and  C_10
REMARK    5  A    between atoms: C_13  and  C_16
REMARK    6  A    between atoms: C_16  and  C_18
REMARK    7  A    between atoms: C_23  and  C_25
REMARK                            x       y       z     vdW  Elec       q    Type
REMARK                         _______ _______ _______ _____ _____    ______ ____
ROOT
ATOM      1  C   UNL     1       3.856 -10.761  -0.099  0.00  0.00    +0.076 C 
ATOM      2  C   UNL     1       4.876 -11.030   0.748  0.00  0.00    +0.249 C 
ATOM      3  C   UNL     1       5.919 -11.789   0.027  0.00  0.00    +0.285 C 
ATOM      4  O   UNL     1       6.962 -12.178   0.515  0.00  0.00    -0.267 OA
ATOM      5  N   UNL     1       5.544 -11.984  -1.250  0.00  0.00    -0.298 N 
ATOM      6  C   UNL     1       4.225 -11.366  -1.433  0.00  0.00    +0.142 C 
ATOM      7  O   UNL     1       4.933 -10.663   2.049  0.00  0.00    -0.282 OA
ATOM      8  H   UNL     1       6.053 -12.454  -1.929  0.00  0.00    +0.150 HD
ENDROOT
BRANCH   6   9
ATOM      9  C   UNL     1       4.301 -10.291  -2.486  0.00  0.00    -0.015 A 
ATOM     10  C   UNL     1       5.490  -9.690  -2.766  0.00  0.00    +0.006 A 
ATOM     11  C   UNL     1       5.580  -8.694  -3.736  0.00  0.00    +0.001 A 
ATOM     12  C   UNL     1       4.481  -8.293  -4.432  0.00  0.00    +0.008 A 
ATOM     13  C   UNL     1       3.237  -8.891  -4.171  0.00  0.00    -0.018 A 
ATOM     14  C   UNL     1       3.147  -9.908  -3.189  0.00  0.00    -0.013 A 
ATOM     15  C   UNL     1       1.903 -10.510  -2.932  0.00  0.00    +0.009 A 
ATOM     16  C   UNL     1       0.805 -10.113  -3.632  0.00  0.00    +0.001 A 
ATOM     17  C   UNL     1       0.895  -9.117  -4.604  0.00  0.00    +0.001 A 
ATOM     18  C   UNL     1       2.080  -8.503  -4.870  0.00  0.00    +0.008 A 
ENDBRANCH   6   9
BRANCH   1  19
ATOM     19  C   UNL     1       2.625 -10.029   0.219  0.00  0.00    +0.195 C 
ATOM     20  O   UNL     1       1.583 -10.635   0.386  0.00  0.00    -0.287 OA
BRANCH  19  24
ATOM     21  C   UNL     1       2.700  -5.797   0.558  0.00  0.00    +0.121 A 
ATOM     22  C   UNL     1       1.490  -6.477   0.637  0.00  0.00    +0.046 A 
ATOM     23  C   UNL     1       1.461  -7.849   0.528  0.00  0.00    +0.015 A 
ATOM     24  C   UNL     1       2.651  -8.558   0.336  0.00  0.00    +0.022 A 
ATOM     25  C   UNL     1       3.865  -7.870   0.257  0.00  0.00    +0.015 A 
ATOM     26  C   UNL     1       3.884  -6.497   0.362  0.00  0.00    +0.046 A 
BRANCH  21  27
ATOM     27  O   UNL     1       2.723  -4.444   0.666  0.00  0.00    -0.487 OA
BRANCH  27  28
ATOM     28  C   UNL     1       1.470  -3.787   0.866  0.00  0.00    +0.264 C 
BRANCH  28  33
ATOM     29  C   UNL     1       2.319   1.917   1.235  0.00  0.00    +0.044 C 
ATOM     30  C   UNL     1       2.098   0.429   1.139  0.00  0.00    -0.050 A 
ATOM     31  C   UNL     1       1.859  -0.156  -0.091  0.00  0.00    +0.004 A 
ATOM     32  C   UNL     1       1.656  -1.520  -0.179  0.00  0.00    +0.007 A 
ATOM     33  C   UNL     1       1.692  -2.300   0.962  0.00  0.00    -0.010 A 
ATOM     34  C   UNL     1       1.932  -1.715   2.191  0.00  0.00    +0.007 A 
ATOM     35  C   UNL     1       2.139  -0.351   2.279  0.00  0.00    +0.004 A 
ENDBRANCH  28  33
ENDBRANCH  27  28
ENDBRANCH  21  27
ENDBRANCH  19  24
ENDBRANCH   1  19
TORSDOF 6
