REMARK  Name = ZINC02211951
REMARK  7 active torsions:
REMARK  status: ('A' for Active; 'I' for Inactive)
REMARK    1  A    between atoms: C_4  and  C_7
REMARK    2  A    between atoms: C_7  and  C_8
REMARK    3  A    between atoms: C_8  and  C_9
REMARK    4  A    between atoms: C_9  and  N_10
REMARK    5  A    between atoms: C_11  and  N_31
REMARK    6  A    between atoms: C_12  and  S_23
REMARK    7  A    between atoms: S_23  and  C_26
REMARK                            x       y       z     vdW  Elec       q    Type
REMARK                         _______ _______ _______ _____ _____    ______ ____
ROOT
ATOM      1  N   UNL     1      -0.721   1.571  -1.179  0.00  0.00    -0.311 N 
ATOM      2  C   UNL     1      -1.736   0.911  -1.826  0.00  0.00    +0.126 A 
ATOM      3  C   UNL     1      -2.176   1.631  -2.884  0.00  0.00    +0.161 A 
ATOM      4  C   UNL     1      -1.415   2.822  -2.951  0.00  0.00    +0.135 A 
ATOM      5  C   UNL     1      -0.472   2.761  -1.828  0.00  0.00    +0.163 A 
ATOM      6  N   UNL     1       0.376   3.747  -1.636  0.00  0.00    -0.226 NA
ATOM      7  C   UNL     1       0.374   4.799  -2.465  0.00  0.00    +0.092 A 
ATOM      8  C   UNL     1       1.278   5.859  -2.266  0.00  0.00    +0.030 A 
ATOM      9  C   UNL     1       1.269   6.925  -3.112  0.00  0.00    +0.002 A 
ATOM     10  C   UNL     1       0.374   6.985  -4.179  0.00  0.00    +0.002 A 
ATOM     11  C   UNL     1      -0.515   5.981  -4.404  0.00  0.00    +0.030 A 
ATOM     12  C   UNL     1      -0.536   4.861  -3.550  0.00  0.00    +0.090 A 
ATOM     13  N   UNL     1      -1.407   3.869  -3.762  0.00  0.00    -0.240 NA
ENDROOT
BRANCH   3  14
ATOM     14  S   UNL     1      -3.467   1.163  -3.989  0.00  0.00    +0.037 S 
ATOM     15  O   UNL     1      -4.297   0.252  -3.281  0.00  0.00    -0.164 OA
ATOM     16  O   UNL     1      -3.967   2.364  -4.561  0.00  0.00    -0.164 OA
BRANCH  14  17
ATOM     17  C   UNL     1      -2.724   0.252  -5.301  0.00  0.00    +0.131 A 
ATOM     18  C   UNL     1      -2.499  -1.081  -5.394  0.00  0.00    +0.035 A 
ATOM     19  C   UNL     1      -1.897  -1.582  -6.534  0.00  0.00    +0.009 A 
ATOM     20  C   UNL     1      -1.542  -0.723  -7.521  0.00  0.00    +0.047 A 
ATOM     21  S   UNL     1      -2.066   0.846  -6.851  0.00  0.00    -0.078 S 
ENDBRANCH  14  17
ENDBRANCH   3  14
BRANCH   2  22
ATOM     22  N   UNL     1      -2.240  -0.320  -1.447  0.00  0.00    -0.343 N 
ATOM     23  H   UNL     1      -1.874  -0.777  -0.673  0.00  0.00    +0.144 HD
ATOM     24  H   UNL     1      -2.960  -0.726  -1.955  0.00  0.00    +0.144 HD
ENDBRANCH   2  22
BRANCH   1  25
ATOM     25  C   UNL     1      -0.013   1.086   0.008  0.00  0.00    +0.125 C 
BRANCH  25  26
ATOM     26  C   UNL     1      -0.729   1.579   1.267  0.00  0.00    +0.026 C 
BRANCH  26  27
ATOM     27  C   UNL     1       0.011   1.072   2.506  0.00  0.00    +0.037 C 
BRANCH  27  31
ATOM     28  C   UNL     1      -1.988   2.450   6.021  0.00  0.00    +0.000 A 
ATOM     29  C   UNL     1      -2.342   1.240   5.454  0.00  0.00    +0.000 A 
ATOM     30  C   UNL     1      -1.696   0.794   4.316  0.00  0.00    +0.003 A 
ATOM     31  C   UNL     1      -0.694   1.558   3.746  0.00  0.00    -0.047 A 
ATOM     32  C   UNL     1      -0.336   2.765   4.317  0.00  0.00    +0.003 A 
ATOM     33  C   UNL     1      -0.986   3.213   5.452  0.00  0.00    +0.000 A 
ENDBRANCH  27  31
ENDBRANCH  26  27
ENDBRANCH  25  26
ENDBRANCH   1  25
TORSDOF 7
