REMARK  Name = ZINC64939103
REMARK  10 active torsions:
REMARK  status: ('A' for Active; 'I' for Inactive)
REMARK    1  A    between atoms: C_1  and  C_2
REMARK    2  A    between atoms: C_6  and  S_14
REMARK    3  A    between atoms: C_11  and  C_13
REMARK    4  A    between atoms: S_14  and  N_17
REMARK    5  A    between atoms: N_17  and  N_18
REMARK    6  A    between atoms: N_21  and  C_22
REMARK    7  A    between atoms: C_22  and  C_23
REMARK    8  A    between atoms: C_23  and  C_24
REMARK    9  A    between atoms: C_24  and  C_25
REMARK   10  A    between atoms: C_24  and  C_26
REMARK                            x       y       z     vdW  Elec       q    Type
REMARK                         _______ _______ _______ _____ _____    ______ ____
ROOT
ATOM      1  S   UNL     1       5.038  -3.596  -1.715  0.00  0.00    +0.074 S 
ATOM      2  O   UNL     1       5.530  -4.596  -0.832  0.00  0.00    -0.152 OA
ATOM      3  O   UNL     1       4.468  -3.909  -2.978  0.00  0.00    -0.152 OA
ENDROOT
BRANCH   1   9
ATOM      4  C   UNL     1       0.057   1.575   0.030  0.00  0.00    +0.029 C 
ATOM      5  C   UNL     1       0.034   0.046   0.001  0.00  0.00    +0.083 C 
ATOM      6  C   UNL     1       0.698  -0.473  -1.285  0.00  0.00    +0.059 C 
ATOM      7  C   UNL     1       1.871  -1.297  -0.802  0.00  0.00    -0.022 A 
ATOM      8  C   UNL     1       2.829  -2.006  -1.501  0.00  0.00    +0.034 A 
ATOM      9  C   UNL     1       3.818  -2.692  -0.822  0.00  0.00    +0.107 A 
ATOM     10  C   UNL     1       3.848  -2.666   0.561  0.00  0.00    +0.030 A 
ATOM     11  C   UNL     1       2.894  -1.960   1.262  0.00  0.00    +0.026 A 
ATOM     12  C   UNL     1       1.891  -1.265   0.583  0.00  0.00    +0.040 A 
ATOM     13  N   UNL     1       0.842  -0.496   1.096  0.00  0.00    -0.268 N 
ATOM     14  C   UNL     1       0.609  -0.284   2.406  0.00  0.00    +0.217 C 
ATOM     15  O   UNL     1       1.402  -0.677   3.235  0.00  0.00    -0.276 OA
ATOM     16  C   UNL     1      -0.638   0.442   2.842  0.00  0.00    +0.109 C 
ENDBRANCH   1   9
BRANCH   1  17
ATOM     17  N   UNL     1       6.298  -2.562  -2.007  0.00  0.00    -0.107 NA
ATOM     18  H   UNL     1       6.563  -2.366  -2.919  0.00  0.00    +0.172 HD
BRANCH  17  19
ATOM     19  N   UNL     1       6.982  -1.971  -0.936  0.00  0.00    -0.216 N 
ATOM     20  C   UNL     1       8.319  -2.104  -0.835  0.00  0.00    +0.315 C 
ATOM     21  O   UNL     1       8.913  -1.591   0.094  0.00  0.00    -0.251 OA
ATOM     22  N   UNL     1       8.999  -2.805  -1.764  0.00  0.00    -0.298 N 
ATOM     23  H   UNL     1       6.493  -1.466  -0.268  0.00  0.00    +0.172 HD
ATOM     24  H   UNL     1       8.526  -3.215  -2.505  0.00  0.00    +0.150 HD
BRANCH  22  25
ATOM     25  C   UNL     1      10.453  -2.950  -1.654  0.00  0.00    +0.106 C 
BRANCH  25  26
ATOM     26  C   UNL     1      10.973  -3.785  -2.826  0.00  0.00    +0.022 C 
BRANCH  26  27
ATOM     27  C   UNL     1      12.491  -3.936  -2.711  0.00  0.00    -0.016 C 
ATOM     28  C   UNL     1      12.830  -4.743  -1.457  0.00  0.00    +0.007 C 
ATOM     29  C   UNL     1      13.026  -4.663  -3.946  0.00  0.00    +0.007 C 
ENDBRANCH  26  27
ENDBRANCH  25  26
ENDBRANCH  22  25
ENDBRANCH  17  19
ENDBRANCH   1  17
TORSDOF 6
