REMARK  Name = ZINC67295002
REMARK  5 active torsions:
REMARK  status: ('A' for Active; 'I' for Inactive)
REMARK    1  A    between atoms: C_1  and  C_2
REMARK    2  A    between atoms: C_2  and  C_3
REMARK    3  A    between atoms: C_2  and  C_4
REMARK    4  A    between atoms: C_7  and  N_10
REMARK    5  A    between atoms: C_12  and  C_22
REMARK                            x       y       z     vdW  Elec       q    Type
REMARK                         _______ _______ _______ _____ _____    ______ ____
ROOT
ATOM      1  N   UNL     1       3.396  -1.376   4.916  0.00  0.00    -0.325 N 
ATOM      2  C   UNL     1       2.416  -1.606   5.762  0.00  0.00    +0.212 A 
ATOM      3  C   UNL     1       2.578  -2.568   6.870  0.00  0.00    +0.098 A 
ATOM      4  C   UNL     1       1.800  -2.365   8.003  0.00  0.00    +0.030 A 
ATOM      5  C   UNL     1       0.891  -1.216   7.998  0.00  0.00    +0.019 A 
ATOM      6  C   UNL     1       0.277  -0.784   9.180  0.00  0.00    +0.026 A 
ATOM      7  C   UNL     1      -0.572   0.300   9.148  0.00  0.00    +0.019 A 
ATOM      8  C   UNL     1      -0.817   0.965   7.954  0.00  0.00    +0.019 A 
ATOM      9  C   UNL     1      -0.219   0.549   6.782  0.00  0.00    +0.048 A 
ATOM     10  C   UNL     1       0.636  -0.542   6.789  0.00  0.00    +0.137 A 
ATOM     11  O   UNL     1       1.226  -0.962   5.647  0.00  0.00    -0.439 OA
ATOM     12 BR   UNL     1      -1.405   0.888  10.740  0.00  0.00    -0.050 Br
ATOM     13  H   UNL     1       4.272  -1.762   5.071  0.00  0.00    +0.169 HD
ENDROOT
BRANCH   3  14
ATOM     14  C   UNL     1       3.521  -3.695   6.778  0.00  0.00    +0.254 C 
ATOM     15  O   UNL     1       3.725  -4.398   7.749  0.00  0.00    -0.270 OA
ATOM     16  N   UNL     1       4.159  -3.946   5.618  0.00  0.00    -0.266 N 
ATOM     17  C   UNL     1       4.998  -5.053   5.509  0.00  0.00    +0.125 A 
ATOM     18  C   UNL     1       5.509  -5.645   6.659  0.00  0.00    +0.044 A 
ATOM     19  C   UNL     1       6.340  -6.745   6.537  0.00  0.00    +0.005 A 
ATOM     20  C   UNL     1       6.633  -7.216   5.264  0.00  0.00    +0.020 A 
ATOM     21  C   UNL     1       6.090  -6.579   4.166  0.00  0.00    +0.113 A 
ATOM     22  N   UNL     1       5.296  -5.535   4.313  0.00  0.00    -0.240 NA
ATOM     23  H   UNL     1       4.035  -3.356   4.858  0.00  0.00    +0.157 HD
ENDBRANCH   3  14
BRANCH   1  27
ATOM     24  C   UNL     1       2.744   0.996   1.590  0.00  0.00    -0.045 A 
ATOM     25  C   UNL     1       3.884   1.179   2.353  0.00  0.00    +0.006 A 
ATOM     26  C   UNL     1       4.108   0.392   3.463  0.00  0.00    +0.026 A 
ATOM     27  C   UNL     1       3.180  -0.592   3.817  0.00  0.00    +0.042 A 
ATOM     28  C   UNL     1       2.031  -0.770   3.042  0.00  0.00    +0.026 A 
ATOM     29  C   UNL     1       1.818   0.028   1.937  0.00  0.00    +0.006 A 
BRANCH  24  31
ATOM     30  C   UNL     1       2.444   3.329   0.803  0.00  0.00    +0.012 C 
ATOM     31  C   UNL     1       2.506   1.860   0.378  0.00  0.00    +0.013 C 
ATOM     32  C   UNL     1       3.650   1.666  -0.619  0.00  0.00    +0.012 C 
ENDBRANCH  24  31
ENDBRANCH   1  27
TORSDOF 3
