REMARK  Name = ZINC54529318
REMARK  9 active torsions:
REMARK  status: ('A' for Active; 'I' for Inactive)
REMARK    1  A    between atoms: C_1  and  C_2
REMARK    2  A    between atoms: C_2  and  O_3
REMARK    3  A    between atoms: O_3  and  C_4
REMARK    4  A    between atoms: N_6  and  C_7
REMARK    5  A    between atoms: N_6  and  C_8
REMARK    6  A    between atoms: C_11  and  N_14
REMARK    7  A    between atoms: N_17  and  C_18
REMARK    8  A    between atoms: C_18  and  C_19
REMARK    9  A    between atoms: C_19  and  C_20
REMARK                            x       y       z     vdW  Elec       q    Type
REMARK                         _______ _______ _______ _____ _____    ______ ____
ROOT
ATOM      1  N   UNL     1       1.666  -7.886   2.616  0.00  0.00    -0.269 N 
ATOM      2  C   UNL     1       1.243  -8.624   1.571  0.00  0.00    +0.304 C 
ATOM      3  O   UNL     1       0.728  -8.081   0.612  0.00  0.00    -0.253 OA
ATOM      4  N   UNL     1       1.390  -9.964   1.588  0.00  0.00    -0.299 N 
ATOM      5  H   UNL     1       2.016  -8.323   3.409  0.00  0.00    +0.156 HD
ATOM      6  H   UNL     1       1.800 -10.397   2.353  0.00  0.00    +0.150 HD
ENDROOT
BRANCH   1  10
ATOM      7  C   UNL     1       1.470  -3.724   2.446  0.00  0.00    +0.039 A 
ATOM      8  C   UNL     1       2.522  -4.343   3.108  0.00  0.00    +0.025 A 
ATOM      9  C   UNL     1       2.586  -5.721   3.165  0.00  0.00    +0.025 A 
ATOM     10  C   UNL     1       1.600  -6.488   2.560  0.00  0.00    +0.035 A 
ATOM     11  C   UNL     1       0.548  -5.869   1.898  0.00  0.00    +0.025 A 
ATOM     12  C   UNL     1       0.480  -4.491   1.846  0.00  0.00    +0.025 A 
BRANCH   7  15
ATOM     13  C   UNL     1       2.343  -1.633   1.715  0.00  0.00    +0.407 C 
ATOM     14  O   UNL     1       3.297  -2.213   1.234  0.00  0.00    -0.226 OA
ATOM     15  N   UNL     1       1.404  -2.325   2.389  0.00  0.00    -0.240 N 
ATOM     16  C   UNL     1       0.313  -1.615   3.063  0.00  0.00    +0.142 C 
BRANCH  13  17
ATOM     17  O   UNL     1       2.226  -0.299   1.575  0.00  0.00    -0.450 OA
BRANCH  17  19
ATOM     18  C   UNL     1       2.954   1.869   0.794  0.00  0.00    +0.048 C 
ATOM     19  C   UNL     1       3.258   0.370   0.848  0.00  0.00    +0.230 C 
ENDBRANCH  17  19
ENDBRANCH  13  17
ENDBRANCH   7  15
ENDBRANCH   1  10
BRANCH   4  20
ATOM     20  C   UNL     1       0.930 -10.765   0.451  0.00  0.00    +0.110 C 
BRANCH  20  21
ATOM     21  C   UNL     1       1.214 -12.244   0.723  0.00  0.00    +0.049 C 
BRANCH  21  22
ATOM     22  C   UNL     1       0.741 -13.069  -0.447  0.00  0.00    -0.072 C 
ATOM     23  C   UNL     1       1.605 -13.382  -1.358  0.00  0.00    -0.028 C 
ATOM     24  C   UNL     1       1.282 -14.187  -2.582  0.00  0.00    +0.027 C 
ATOM     25  C   UNL     1      -0.046 -14.924  -2.393  0.00  0.00    +0.004 C 
ATOM     26  C   UNL     1      -1.092 -13.918  -1.895  0.00  0.00    +0.005 C 
ATOM     27  C   UNL     1      -0.702 -13.482  -0.479  0.00  0.00    +0.030 C 
ENDBRANCH  21  22
ENDBRANCH  20  21
ENDBRANCH   4  20
TORSDOF 7
