REMARK  Name = ZINC13499336
REMARK  12 active torsions:
REMARK  status: ('A' for Active; 'I' for Inactive)
REMARK    1  A    between atoms: C_1  and  C_2
REMARK    2  A    between atoms: C_2  and  C_3
REMARK    3  A    between atoms: C_3  and  C_4
REMARK    4  A    between atoms: C_4  and  C_6
REMARK    5  A    between atoms: C_4  and  N_75
REMARK    6  A    between atoms: N_10  and  C_11
REMARK    7  A    between atoms: C_11  and  C_12
REMARK    8  A    between atoms: C_12  and  C_13
REMARK    9  A    between atoms: C_19  and  C_20
REMARK   10  A    between atoms: C_19  and  N_75
REMARK   11  A    between atoms: C_25  and  C_32
REMARK   12  A    between atoms: C_33  and  N_75
REMARK                            x       y       z     vdW  Elec       q    Type
REMARK                         _______ _______ _______ _____ _____    ______ ____
ROOT
ATOM      1  N   UNL     1       7.598   0.747  -0.294  0.00  0.00    +0.391 N 
ATOM      2  H   UNL     1       8.576   0.845  -0.590  0.00  0.00    -0.080 HD
ENDROOT
BRANCH   1   3
ATOM      3  C   UNL     1       7.558   0.052   1.010  0.00  0.00    -0.067 C 
ATOM      4  C   UNL     1       8.867   0.335   1.751  0.00  0.00    -0.015 C 
ATOM      5  C   UNL     1       8.854  -0.387   3.100  0.00  0.00    -0.002 C 
ATOM      6  C   UNL     1       8.712  -1.893   2.873  0.00  0.00    -0.000 C 
ATOM      7  C   UNL     1       7.404  -2.175   2.131  0.00  0.00    -0.002 C 
ATOM      8  C   UNL     1       7.416  -1.454   0.782  0.00  0.00    -0.015 C 
ENDBRANCH   1   3
BRANCH   1   9
ATOM      9  C   UNL     1       6.866  -0.041  -1.309  0.00  0.00    +0.003 C 
BRANCH   9  10
ATOM     10  C   UNL     1       7.399   0.318  -2.672  0.00  0.00    +0.138 A 
ATOM     11  N   UNL     1       7.708   1.517  -3.101  0.00  0.00    -0.115 NA
ATOM     12  N   UNL     1       8.121   1.411  -4.317  0.00  0.00    -0.023 NA
ATOM     13  N   UNL     1       8.089   0.174  -4.673  0.00  0.00    -0.044 NA
ATOM     14  N   UNL     1       7.652  -0.532  -3.685  0.00  0.00    -0.231 N 
BRANCH  14  15
ATOM     15  C   UNL     1       7.461  -1.984  -3.671  0.00  0.00    +0.152 C 
BRANCH  15  16
ATOM     16  C   UNL     1       8.711  -2.657  -3.099  0.00  0.00    +0.058 C 
BRANCH  16  17
ATOM     17  C   UNL     1       8.474  -4.140  -2.982  0.00  0.00    -0.046 A 
ATOM     18  C   UNL     1       8.789  -4.976  -4.037  0.00  0.00    +0.004 A 
ATOM     19  C   UNL     1       8.571  -6.337  -3.930  0.00  0.00    +0.000 A 
ATOM     20  C   UNL     1       8.038  -6.862  -2.768  0.00  0.00    +0.000 A 
ATOM     21  C   UNL     1       7.723  -6.027  -1.713  0.00  0.00    +0.000 A 
ATOM     22  C   UNL     1       7.941  -4.666  -1.820  0.00  0.00    +0.004 A 
ENDBRANCH  16  17
ENDBRANCH  15  16
ENDBRANCH  14  15
ENDBRANCH   9  10
BRANCH   9  23
ATOM     23  C   UNL     1       5.369   0.269  -1.248  0.00  0.00    -0.008 C 
BRANCH  23  25
ATOM     24  C   UNL     1       3.312   0.121   0.162  0.00  0.00    +0.004 C 
ATOM     25  C   UNL     1       4.796  -0.240   0.076  0.00  0.00    -0.005 C 
ENDBRANCH  23  25
ENDBRANCH   9  23
ENDBRANCH   1   9
BRANCH   1  26
ATOM     26  C   UNL     1       6.997   2.091  -0.169  0.00  0.00    -0.036 C 
BRANCH  26  27
ATOM     27  C   UNL     1       7.856   2.925   0.746  0.00  0.00    +0.001 A 
ATOM     28  C   UNL     1       8.851   3.688   0.230  0.00  0.00    +0.017 A 
ATOM     29  C   UNL     1       9.664   4.491   1.145  0.00  0.00    -0.001 A 
ATOM     30  C   UNL     1      10.701   5.301   0.670  0.00  0.00    +0.010 A 
ATOM     31  C   UNL     1      11.445   6.034   1.551  0.00  0.00    +0.004 A 
ATOM     32  C   UNL     1      11.181   5.981   2.913  0.00  0.00    -0.048 A 
ATOM     33  C   UNL     1      10.164   5.191   3.403  0.00  0.00    +0.029 A 
ATOM     34  C   UNL     1       9.393   4.436   2.525  0.00  0.00    +0.049 A 
ATOM     35  N   UNL     1       8.371   3.635   2.987  0.00  0.00    -0.322 N 
ATOM     36  H   UNL     1       8.186   3.598   3.939  0.00  0.00    +0.169 HD
ATOM     37  C   UNL     1       7.626   2.905   2.139  0.00  0.00    +0.251 A 
ATOM     38  O   UNL     1       6.730   2.208   2.583  0.00  0.00    -0.268 OA
ATOM     39  C   UNL     1      12.016   6.798   3.866  0.00  0.00    +0.044 C 
ENDBRANCH  26  27
ENDBRANCH   1  26
TORSDOF 10
