REMARK  Name = ZINC05079212
REMARK  9 active torsions:
REMARK  status: ('A' for Active; 'I' for Inactive)
REMARK    1  A    between atoms: C_1  and  C_2
REMARK    2  A    between atoms: C_2  and  C_3
REMARK    3  A    between atoms: C_2  and  C_4
REMARK    4  A    between atoms: C_2  and  N_5
REMARK    5  A    between atoms: C_9  and  C_11
REMARK    6  A    between atoms: C_11  and  O_12
REMARK    7  A    between atoms: O_12  and  C_13
REMARK    8  A    between atoms: C_13  and  C_15
REMARK    9  A    between atoms: C_24  and  O_25
REMARK                            x       y       z     vdW  Elec       q    Type
REMARK                         _______ _______ _______ _____ _____    ______ ____
ROOT
ATOM      1  O   UNL     1      -3.754   3.416   0.058  0.00  0.00    -0.452 OA
ENDROOT
BRANCH   1   2
ATOM      2  C   UNL     1      -3.720   2.069   0.050  0.00  0.00    +0.343 C 
ATOM      3  O   UNL     1      -4.757   1.435   0.057  0.00  0.00    -0.245 OA
BRANCH   2   4
ATOM      4  C   UNL     1      -2.425   1.364   0.034  0.00  0.00    +0.101 A 
ATOM      5  C   UNL     1      -1.245   2.091   0.031  0.00  0.00    +0.027 A 
ATOM      6  C   UNL     1      -0.017   1.415   0.010  0.00  0.00    -0.017 A 
ATOM      7  C   UNL     1       1.200   2.121   0.002  0.00  0.00    +0.008 A 
ATOM      8  C   UNL     1       2.376   1.436  -0.013  0.00  0.00    +0.001 A 
ATOM      9  C   UNL     1       2.394   0.043  -0.021  0.00  0.00    +0.001 A 
ATOM     10  C   UNL     1       1.238  -0.674  -0.013  0.00  0.00    +0.008 A 
ATOM     11  C   UNL     1       0.002  -0.004   0.002  0.00  0.00    -0.014 A 
ATOM     12  C   UNL     1      -1.208  -0.718   0.010  0.00  0.00    +0.054 A 
ATOM     13  C   UNL     1      -2.395  -0.047   0.026  0.00  0.00    +0.131 A 
BRANCH  13  14
ATOM     14  O   UNL     1      -3.560  -0.744   0.033  0.00  0.00    -0.506 OA
ATOM     15  H   UNL     1      -3.889  -0.951   0.918  0.00  0.00    +0.292 HD
ENDBRANCH  13  14
ENDBRANCH   2   4
ENDBRANCH   1   2
BRANCH   1  16
ATOM     16  C   UNL     1      -5.063   4.043   0.074  0.00  0.00    +0.328 C 
BRANCH  16  21
ATOM     17  N   UNL     1      -6.938   8.470   0.116  0.00  0.00    -0.294 N 
ATOM     18  C   UNL     1      -5.849   7.675   0.101  0.00  0.00    +0.306 C 
ATOM     19  O   UNL     1      -4.738   8.168   0.093  0.00  0.00    -0.252 OA
ATOM     20  N   UNL     1      -5.992   6.335   0.096  0.00  0.00    -0.237 N 
ATOM     21  C   UNL     1      -4.903   5.541   0.081  0.00  0.00    +0.258 C 
ATOM     22  O   UNL     1      -3.795   6.032   0.072  0.00  0.00    -0.272 OA
ATOM     23  H   UNL     1      -7.824   8.076   0.123  0.00  0.00    +0.151 HD
ATOM     24  H   UNL     1      -6.879   5.942   0.102  0.00  0.00    +0.159 HD
BRANCH  17  26
ATOM     25  C   UNL     1      -6.023  10.363  -1.132  0.00  0.00    +0.031 C 
ATOM     26  C   UNL     1      -6.782   9.926   0.123  0.00  0.00    +0.028 C 
ATOM     27  C   UNL     1      -8.162  10.586   0.140  0.00  0.00    +0.031 C 
ATOM     28  C   UNL     1      -5.998  10.350   1.367  0.00  0.00    +0.031 C 
ENDBRANCH  17  26
ENDBRANCH  16  21
ENDBRANCH   1  16
TORSDOF 6
