REMARK  Name = ZINC38700084
REMARK  4 active torsions:
REMARK  status: ('A' for Active; 'I' for Inactive)
REMARK    1  A    between atoms: C_4  and  C_7
REMARK    2  A    between atoms: C_17  and  N_19
REMARK    3  A    between atoms: N_19  and  S_20
REMARK    4  A    between atoms: S_20  and  C_23
REMARK                            x       y       z     vdW  Elec       q    Type
REMARK                         _______ _______ _______ _____ _____    ______ ____
ROOT
ATOM      1  C   UNL     1       3.695  -0.684  -0.038  0.00  0.00    +0.251 C 
ATOM      2  O   UNL     1       2.634  -0.093   0.013  0.00  0.00    -0.270 OA
ATOM      3  N   UNL     1       3.714  -2.028  -0.147  0.00  0.00    -0.267 N 
ATOM      4  C   UNL     1       4.988  -2.759  -0.160  0.00  0.00    +0.114 C 
ATOM      5  C   UNL     1       4.916  -3.807  -1.278  0.00  0.00    +0.024 C 
ATOM      6  C   UNL     1       3.807  -4.805  -0.949  0.00  0.00    +0.038 C 
ATOM      7  C   UNL     1       2.523  -4.084  -0.635  0.00  0.00    -0.024 A 
ATOM      8  C   UNL     1       2.516  -2.752  -0.245  0.00  0.00    +0.040 A 
ATOM      9  C   UNL     1       1.315  -2.115   0.048  0.00  0.00    +0.025 A 
ATOM     10  C   UNL     1       0.124  -2.806  -0.045  0.00  0.00    +0.026 A 
ATOM     11  C   UNL     1       0.127  -4.139  -0.431  0.00  0.00    +0.048 A 
ATOM     12  C   UNL     1       1.327  -4.774  -0.734  0.00  0.00    +0.030 A 
ENDROOT
BRANCH   1  16
ATOM     13  C   UNL     1       7.344   1.484   0.128  0.00  0.00    +0.000 A 
ATOM     14  C   UNL     1       6.314   1.930  -0.681  0.00  0.00    +0.001 A 
ATOM     15  C   UNL     1       5.126   1.231  -0.739  0.00  0.00    +0.013 A 
ATOM     16  C   UNL     1       4.965   0.070   0.019  0.00  0.00    +0.037 A 
ATOM     17  C   UNL     1       6.009  -0.375   0.832  0.00  0.00    +0.013 A 
ATOM     18  C   UNL     1       7.191   0.334   0.882  0.00  0.00    +0.001 A 
ENDBRANCH   1  16
BRANCH  11  19
ATOM     19  N   UNL     1      -1.079  -4.843  -0.527  0.00  0.00    -0.216 N 
ATOM     20  H   UNL     1      -1.149  -5.737  -0.159  0.00  0.00    +0.174 HD
BRANCH  19  21
ATOM     21  S   UNL     1      -2.386  -4.147  -1.268  0.00  0.00    +0.072 S 
ATOM     22  O   UNL     1      -3.433  -5.107  -1.229  0.00  0.00    -0.150 OA
ATOM     23  O   UNL     1      -2.524  -2.847  -0.712  0.00  0.00    -0.150 OA
BRANCH  21  24
ATOM     24  C   UNL     1      -1.967  -3.927  -2.965  0.00  0.00    +0.109 A 
ATOM     25  C   UNL     1      -1.361  -2.758  -3.384  0.00  0.00    +0.029 A 
ATOM     26  C   UNL     1      -1.038  -2.592  -4.715  0.00  0.00    +0.006 A 
ATOM     27  C   UNL     1      -1.317  -3.591  -5.639  0.00  0.00    -0.044 A 
ATOM     28  C   UNL     1      -1.916  -4.758  -5.221  0.00  0.00    -0.042 A 
ATOM     29  C   UNL     1      -2.238  -4.924  -3.880  0.00  0.00    +0.032 A 
ATOM     30  C   UNL     1      -2.233  -5.890  -6.163  0.00  0.00    +0.035 C 
ATOM     31  C   UNL     1      -2.219  -5.403  -7.611  0.00  0.00    +0.005 C 
ATOM     32  C   UNL     1      -0.905  -4.653  -7.857  0.00  0.00    +0.005 C 
ATOM     33  C   UNL     1      -0.945  -3.341  -7.077  0.00  0.00    +0.035 C 
ENDBRANCH  21  24
ENDBRANCH  19  21
ENDBRANCH  11  19
TORSDOF 4
