REMARK  Name = ZINC34946985
REMARK  8 active torsions:
REMARK  status: ('A' for Active; 'I' for Inactive)
REMARK    1  A    between atoms: C_1  and  C_2
REMARK    2  A    between atoms: C_2  and  N_3
REMARK    3  A    between atoms: C_11  and  C_13
REMARK    4  A    between atoms: C_14  and  C_16
REMARK    5  A    between atoms: C_16  and  C_18
REMARK    6  A    between atoms: C_16  and  N_29
REMARK    7  A    between atoms: C_18  and  C_19
REMARK    8  A    between atoms: C_30  and  C_32
REMARK                            x       y       z     vdW  Elec       q    Type
REMARK                         _______ _______ _______ _____ _____    ______ ____
ROOT
ATOM      1  C   UNL     1      -7.713  -2.782   1.576  0.00  0.00    +0.163 C 
ENDROOT
BRANCH   1  12
ATOM      2  N   UNL     1      -2.047   0.365  -0.015  0.00  0.00    -0.299 N 
ATOM      3  C   UNL     1      -2.003  -0.978   0.100  0.00  0.00    +0.303 C 
ATOM      4  O   UNL     1      -0.932  -1.552   0.103  0.00  0.00    -0.253 OA
ATOM      5  N   UNL     1      -3.146  -1.683   0.210  0.00  0.00    -0.280 N 
ATOM      6  C   UNL     1      -4.451  -1.016   0.092  0.00  0.00    +0.128 C 
ATOM      7  C   UNL     1      -5.274  -1.325   1.348  0.00  0.00    +0.127 C 
ATOM      8  N   UNL     1      -5.239  -2.775   1.588  0.00  0.00    -0.297 N 
ATOM      9  C   UNL     1      -3.935  -3.442   1.706  0.00  0.00    +0.130 C 
ATOM     10  C   UNL     1      -3.111  -3.133   0.444  0.00  0.00    +0.092 C 
ATOM     11  C   UNL     1      -3.714  -3.862  -0.758  0.00  0.00    +0.030 C 
ATOM     12  C   UNL     1      -6.382  -3.480   1.698  0.00  0.00    +0.236 C 
ATOM     13  O   UNL     1      -6.340  -4.676   1.896  0.00  0.00    -0.274 OA
ATOM     14  H   UNL     1      -2.902   0.817  -0.090  0.00  0.00    +0.150 HD
BRANCH   2  16
ATOM     15  C   UNL     1      -1.134   2.628  -0.166  0.00  0.00    +0.024 C 
ATOM     16  C   UNL     1      -0.805   1.140  -0.026  0.00  0.00    +0.102 C 
ENDBRANCH   2  16
ENDBRANCH   1  12
BRANCH   1  17
ATOM     17  N   UNL     1      -8.751  -3.764   1.254  0.00  0.00    -0.303 N 
ATOM     18  C   UNL     1      -9.021  -4.062  -0.033  0.00  0.00    +0.217 C 
ATOM     19  O   UNL     1      -8.345  -3.586  -0.920  0.00  0.00    -0.275 OA
ATOM     20  H   UNL     1      -9.244  -4.200   1.966  0.00  0.00    +0.149 HD
BRANCH  18  21
ATOM     21  C   UNL     1     -10.164  -4.986  -0.369  0.00  0.00    +0.075 C 
ATOM     22  C   UNL     1      -9.938  -6.364   0.286  0.00  0.00    +0.013 C 
ATOM     23  C   UNL     1     -10.470  -7.374  -0.762  0.00  0.00    +0.001 C 
ATOM     24  C   UNL     1     -10.026  -6.739  -2.103  0.00  0.00    +0.001 C 
ATOM     25  C   UNL     1     -10.219  -5.224  -1.888  0.00  0.00    +0.013 C 
ENDBRANCH  18  21
ENDBRANCH   1  17
BRANCH   1  26
ATOM     26  C   UNL     1      -8.053  -2.097   2.901  0.00  0.00    +0.069 C 
BRANCH  26  27
ATOM     27  C   UNL     1      -9.313  -1.286   2.737  0.00  0.00    -0.020 A 
ATOM     28  C   UNL     1      -9.388   0.020   2.437  0.00  0.00    +0.087 A 
ATOM     29  N   UNL     1     -10.699   0.409   2.373  0.00  0.00    -0.360 N 
ATOM     30  H   UNL     1     -11.004   1.307   2.171  0.00  0.00    +0.165 HD
ATOM     31  C   UNL     1     -11.519  -0.665   2.637  0.00  0.00    +0.047 A 
ATOM     32  C   UNL     1     -10.687  -1.775   2.870  0.00  0.00    +0.003 A 
ATOM     33  C   UNL     1     -11.250  -3.019   3.161  0.00  0.00    +0.010 A 
ATOM     34  C   UNL     1     -12.609  -3.153   3.214  0.00  0.00    +0.001 A 
ATOM     35  C   UNL     1     -13.434  -2.062   2.980  0.00  0.00    +0.002 A 
ATOM     36  C   UNL     1     -12.899  -0.823   2.700  0.00  0.00    +0.026 A 
ENDBRANCH  26  27
ENDBRANCH   1  26
TORSDOF 6
