REMARK  Name = ZINC00315048
REMARK  6 active torsions:
REMARK  status: ('A' for Active; 'I' for Inactive)
REMARK    1  A    between atoms: C_1  and  C_2
REMARK    2  A    between atoms: C_5  and  N_8
REMARK    3  A    between atoms: N_8  and  C_9
REMARK    4  A    between atoms: C_12  and  C_25
REMARK    5  A    between atoms: C_18  and  C_21
REMARK    6  A    between atoms: C_22  and  C_24
REMARK                            x       y       z     vdW  Elec       q    Type
REMARK                         _______ _______ _______ _____ _____    ______ ____
ROOT
ATOM      1  C   UNL     1       3.751   3.371   0.308  0.00  0.00    +0.104 C 
ATOM      2  C   UNL     1       3.654   1.874   0.014  0.00  0.00    +0.049 C 
ATOM      3  C   UNL     1       2.325   1.345   0.578  0.00  0.00    +0.081 C 
ATOM      4  N   UNL     1       1.237   2.016  -0.145  0.00  0.00    -0.268 N 
ATOM      5  C   UNL     1       1.317   3.399  -0.358  0.00  0.00    +0.041 A 
ATOM      6  C   UNL     1       2.507   4.081  -0.156  0.00  0.00    -0.006 A 
ATOM      7  C   UNL     1       2.558   5.446  -0.380  0.00  0.00    +0.010 A 
ATOM      8  C   UNL     1       1.432   6.127  -0.799  0.00  0.00    -0.050 A 
ATOM      9  C   UNL     1       0.244   5.448  -0.998  0.00  0.00    +0.005 A 
ATOM     10  C   UNL     1       0.184   4.086  -0.778  0.00  0.00    +0.024 A 
ATOM     11  C   UNL     1       1.498   7.613  -1.040  0.00  0.00    +0.044 C 
ATOM     12  C   UNL     1       0.176   1.314  -0.591  0.00  0.00    +0.217 C 
ATOM     13  O   UNL     1      -0.644   1.846  -1.309  0.00  0.00    -0.276 OA
ATOM     14  C   UNL     1       0.006  -0.129  -0.194  0.00  0.00    +0.109 C 
ATOM     15  C   UNL     1       2.235  -0.168   0.363  0.00  0.00    +0.028 C 
ENDROOT
BRANCH   1  16
ATOM     16  N   UNL     1       4.914   3.927  -0.389  0.00  0.00    -0.337 N 
ATOM     17  H   UNL     1       5.248   3.499  -1.193  0.00  0.00    +0.147 HD
BRANCH  16  22
ATOM     18  C   UNL     1       7.463   8.578   1.617  0.00  0.00    +0.044 C 
ATOM     19  C   UNL     1       6.786   7.342   1.084  0.00  0.00    -0.050 A 
ATOM     20  C   UNL     1       7.263   6.734  -0.062  0.00  0.00    +0.005 A 
ATOM     21  C   UNL     1       6.645   5.601  -0.553  0.00  0.00    +0.023 A 
ATOM     22  C   UNL     1       5.542   5.072   0.106  0.00  0.00    +0.028 A 
ATOM     23  C   UNL     1       5.062   5.689   1.254  0.00  0.00    +0.023 A 
ATOM     24  C   UNL     1       5.688   6.819   1.743  0.00  0.00    +0.005 A 
ENDBRANCH  16  22
ENDBRANCH   1  16
TORSDOF 2
