REMARK  Name = ZINC00267253
REMARK  4 active torsions:
REMARK  status: ('A' for Active; 'I' for Inactive)
REMARK    1  A    between atoms: C_9  and  C_25
REMARK    2  A    between atoms: C_10  and  C_18
REMARK    3  A    between atoms: C_12  and  C_16
REMARK    4  A    between atoms: C_13  and  N_15
REMARK                            x       y       z     vdW  Elec       q    Type
REMARK                         _______ _______ _______ _____ _____    ______ ____
ROOT
ATOM      1  C   UNL     1      -8.835   3.492  -0.951  0.00  0.00    +0.002 A 
ATOM      2  C   UNL     1      -8.615   3.379   0.410  0.00  0.00    +0.002 A 
ATOM      3  C   UNL     1      -7.408   2.903   0.883  0.00  0.00    +0.026 A 
ATOM      4  C   UNL     1      -6.413   2.537  -0.012  0.00  0.00    +0.062 A 
ATOM      5  C   UNL     1      -6.633   2.650  -1.383  0.00  0.00    +0.054 A 
ATOM      6  C   UNL     1      -7.850   3.130  -1.849  0.00  0.00    +0.025 A 
ATOM      7  N   UNL     1      -5.479   2.217  -2.026  0.00  0.00    -0.300 N 
ATOM      8  C   UNL     1      -4.564   1.845  -1.069  0.00  0.00    +0.115 C 
ATOM      9  C   UNL     1      -3.293   1.356  -1.221  0.00  0.00    +0.078 C 
ATOM     10  C   UNL     1      -2.496   1.022   0.021  0.00  0.00    +0.106 C 
ATOM     11  C   UNL     1      -3.179   1.259   1.352  0.00  0.00    +0.078 C 
ATOM     12  C   UNL     1      -4.447   1.750   1.341  0.00  0.00    +0.108 C 
ATOM     13  N   UNL     1      -5.118   2.033   0.170  0.00  0.00    -0.242 N 
ATOM     14  H   UNL     1      -5.342   2.184  -2.986  0.00  0.00    +0.153 HD
ENDROOT
BRANCH  10  15
ATOM     15  C   UNL     1      -1.229   1.839  -0.004  0.00  0.00    -0.034 A 
ATOM     16  C   UNL     1       0.000   1.207  -0.009  0.00  0.00    +0.007 A 
ATOM     17  C   UNL     1       1.162   1.954  -0.038  0.00  0.00    +0.038 A 
ATOM     18  C   UNL     1       1.094   3.337  -0.057  0.00  0.00    +0.123 A 
ATOM     19  C   UNL     1      -0.138   3.969  -0.046  0.00  0.00    +0.038 A 
ATOM     20  C   UNL     1      -1.298   3.219  -0.017  0.00  0.00    +0.007 A 
ATOM     21  F   UNL     1       2.229   4.069  -0.085  0.00  0.00    -0.205 F 
ENDBRANCH  10  15
BRANCH  12  22
ATOM     22  N   UNL     1      -5.083   1.971   2.539  0.00  0.00    -0.345 N 
ATOM     23  H   UNL     1      -6.052   1.997   2.576  0.00  0.00    +0.144 HD
ATOM     24  H   UNL     1      -4.563   2.101   3.348  0.00  0.00    +0.144 HD
ENDBRANCH  12  22
BRANCH  11  25
ATOM     25  C   UNL     1      -2.510   0.975   2.586  0.00  0.00    +0.099 C 
ATOM     26  N   UNL     1      -1.978   0.749   3.564  0.00  0.00    -0.191 NA
ENDBRANCH  11  25
BRANCH   9  27
ATOM     27  C   UNL     1      -2.732   1.165  -2.525  0.00  0.00    +0.099 C 
ATOM     28  N   UNL     1      -2.287   1.014  -3.559  0.00  0.00    -0.191 NA
ENDBRANCH   9  27
TORSDOF 4
