REMARK  Name = ZINC39726885
REMARK  6 active torsions:
REMARK  status: ('A' for Active; 'I' for Inactive)
REMARK    1  A    between atoms: C_3  and  C_6
REMARK    2  A    between atoms: C_6  and  N_7
REMARK    3  A    between atoms: N_7  and  C_8
REMARK    4  A    between atoms: N_7  and  C_14
REMARK    5  A    between atoms: C_8  and  C_9
REMARK    6  A    between atoms: C_14  and  C_15
REMARK                            x       y       z     vdW  Elec       q    Type
REMARK                         _______ _______ _______ _____ _____    ______ ____
ROOT
ATOM      1  C   UNL     1       5.556   0.546   1.544  0.00  0.00    +0.020 C 
ENDROOT
BRANCH   1   2
ATOM      2  C   UNL     1       5.942   0.396   2.993  0.00  0.00    +0.201 C 
ATOM      3  O   UNL     1       5.090   0.441   3.855  0.00  0.00    -0.278 OA
ATOM      4  N   UNL     1       7.234   0.212   3.330  0.00  0.00    -0.286 N 
ATOM      5  C   UNL     1       7.585  -0.838   4.046  0.00  0.00    +0.050 C 
ATOM      6  C   UNL     1       6.589  -1.882   4.366  0.00  0.00    +0.054 C 
ATOM      7  C   UNL     1       6.961  -2.959   5.103  0.00  0.00    +0.097 C 
ATOM      8  N   UNL     1       6.320  -4.071   5.566  0.00  0.00    -0.190 NA
ATOM      9  C   UNL     1       7.186  -4.792   6.240  0.00  0.00    +0.369 C 
ATOM     10  O   UNL     1       6.894  -5.968   6.842  0.00  0.00    -0.243 OA
ATOM     11  N   UNL     1       8.400  -4.214   6.257  0.00  0.00    -0.190 NA
ATOM     12  C   UNL     1       8.352  -3.082   5.581  0.00  0.00    +0.096 C 
ATOM     13  C   UNL     1       9.333  -2.041   5.261  0.00  0.00    +0.047 C 
ATOM     14  C   UNL     1       8.969  -0.974   4.523  0.00  0.00    +0.041 C 
ATOM     15 BR   UNL     1      10.243   0.361   4.106  0.00  0.00    -0.048 Br
ATOM     16  H   UNL     1       7.906   0.851   3.046  0.00  0.00    +0.155 HD
ENDBRANCH   1   2
BRANCH   1  17
ATOM     17  N   UNL     1       4.102   0.734   1.441  0.00  0.00    +0.393 N 
ATOM     18  H   UNL     1       3.631  -0.028   1.907  0.00  0.00    -0.080 HD
BRANCH  17  19
ATOM     19  C   UNL     1       3.711   0.760   0.026  0.00  0.00    -0.002 C 
BRANCH  19  22
ATOM     20  C   UNL     1       3.770  -2.694  -1.257  0.00  0.00    +0.041 A 
ATOM     21  C   UNL     1       3.133  -1.643  -0.557  0.00  0.00    +0.042 A 
ATOM     22  C   UNL     1       3.969  -0.590  -0.592  0.00  0.00    +0.089 A 
ATOM     23  O   UNL     1       5.071  -0.944  -1.272  0.00  0.00    -0.470 OA
ATOM     24  C   UNL     1       4.956  -2.220  -1.677  0.00  0.00    +0.195 A 
ENDBRANCH  19  22
ENDBRANCH  17  19
BRANCH  17  25
ATOM     25  C   UNL     1       3.727   2.004   2.078  0.00  0.00    -0.034 C 
BRANCH  25  26
ATOM     26  C   UNL     1       2.225   2.130   2.099  0.00  0.00    -0.027 A 
ATOM     27  C   UNL     1       1.340   1.644   3.003  0.00  0.00    +0.009 A 
ATOM     28  C   UNL     1      -0.008   1.886   2.819  0.00  0.00    +0.008 A 
ATOM     29  C   UNL     1      -0.406   2.602   1.739  0.00  0.00    +0.045 A 
ATOM     30  S   UNL     1       1.151   2.965   0.943  0.00  0.00    -0.103 S 
ENDBRANCH  25  26
ENDBRANCH  17  25
ENDBRANCH   1  17
TORSDOF 6
