REMARK  Name = ZINC63229113
REMARK  8 active torsions:
REMARK  status: ('A' for Active; 'I' for Inactive)
REMARK    1  A    between atoms: C_4  and  S_7
REMARK    2  A    between atoms: S_7  and  N_10
REMARK    3  A    between atoms: N_10  and  C_11
REMARK    4  A    between atoms: N_10  and  C_22
REMARK    5  A    between atoms: C_11  and  C_12
REMARK    6  A    between atoms: C_12  and  C_13
REMARK    7  A    between atoms: C_22  and  C_23
REMARK    8  A    between atoms: N_25  and  C_26
REMARK                            x       y       z     vdW  Elec       q    Type
REMARK                         _______ _______ _______ _____ _____    ______ ____
ROOT
ATOM      1  N   UNL     1       4.672  -1.264   1.975  0.00  0.00    -0.167 NA
ENDROOT
BRANCH   1   2
ATOM      2  S   UNL     1       3.931  -1.328   0.495  0.00  0.00    +0.061 S 
ATOM      3  O   UNL     1       4.019  -2.676   0.055  0.00  0.00    -0.153 OA
ATOM      4  O   UNL     1       4.446  -0.243  -0.264  0.00  0.00    -0.153 OA
BRANCH   2   8
ATOM      5  C   UNL     1      -0.464  -0.470   1.160  0.00  0.00    +0.000 A 
ATOM      6  C   UNL     1       0.405   0.563   0.864  0.00  0.00    +0.002 A 
ATOM      7  C   UNL     1       1.747   0.301   0.661  0.00  0.00    +0.028 A 
ATOM      8  C   UNL     1       2.220  -0.994   0.755  0.00  0.00    +0.105 A 
ATOM      9  C   UNL     1       1.352  -2.027   1.053  0.00  0.00    +0.028 A 
ATOM     10  C   UNL     1       0.010  -1.766   1.254  0.00  0.00    +0.002 A 
ENDBRANCH   2   8
ENDBRANCH   1   2
BRANCH   1  11
ATOM     11  C   UNL     1       4.672  -2.442   2.846  0.00  0.00    +0.114 C 
BRANCH  11  12
ATOM     12  C   UNL     1       5.966  -3.231   2.638  0.00  0.00    +0.050 C 
BRANCH  12  13
ATOM     13  C   UNL     1       5.965  -4.442   3.534  0.00  0.00    -0.040 C 
ATOM     14  C   UNL     1       5.580  -5.696   3.206  0.00  0.00    -0.001 A 
ATOM     15  C   UNL     1       5.065  -6.285   1.964  0.00  0.00    +0.010 A 
ATOM     16  C   UNL     1       4.758  -7.602   1.940  0.00  0.00    +0.001 A 
ATOM     17  C   UNL     1       4.919  -8.417   3.069  0.00  0.00    +0.002 A 
ATOM     18  C   UNL     1       5.387  -7.949   4.246  0.00  0.00    +0.026 A 
ATOM     19  C   UNL     1       5.741  -6.578   4.384  0.00  0.00    +0.043 A 
ATOM     20  N   UNL     1       6.208  -5.896   5.401  0.00  0.00    -0.380 N 
ATOM     21  C   UNL     1       6.402  -4.503   4.981  0.00  0.00    +0.144 C 
ATOM     22  H   UNL     1       6.397  -6.252   6.283  0.00  0.00    +0.160 HD
ENDBRANCH  12  13
ENDBRANCH  11  12
ENDBRANCH   1  11
BRANCH   1  23
ATOM     23  C   UNL     1       5.329  -0.030   2.412  0.00  0.00    +0.205 C 
BRANCH  23  24
ATOM     24  C   UNL     1       4.374   0.776   3.254  0.00  0.00    +0.229 C 
ATOM     25  O   UNL     1       3.260   0.352   3.482  0.00  0.00    -0.274 OA
ATOM     26  N   UNL     1       4.757   1.968   3.754  0.00  0.00    -0.307 N 
ATOM     27  H   UNL     1       5.616   2.344   3.507  0.00  0.00    +0.149 HD
BRANCH  26  28
ATOM     28  C   UNL     1       3.875   2.695   4.671  0.00  0.00    +0.103 C 
ATOM     29  C   UNL     1       4.721   3.395   5.733  0.00  0.00    +0.027 C 
ATOM     30  C   UNL     1       3.807   4.321   6.545  0.00  0.00    +0.007 C 
ATOM     31  C   UNL     1       3.385   5.486   5.652  0.00  0.00    +0.035 C 
ATOM     32  C   UNL     1       2.838   4.979   4.344  0.00  0.00    -0.042 A 
ATOM     33  C   UNL     1       3.067   3.699   3.891  0.00  0.00    -0.024 A 
ATOM     34  C   UNL     1       2.539   3.297   2.671  0.00  0.00    +0.006 A 
ATOM     35  C   UNL     1       1.785   4.168   1.912  0.00  0.00    +0.000 A 
ATOM     36  C   UNL     1       1.553   5.452   2.369  0.00  0.00    +0.000 A 
ATOM     37  C   UNL     1       2.077   5.853   3.579  0.00  0.00    +0.004 A 
ENDBRANCH  26  28
ENDBRANCH  23  24
ENDBRANCH   1  23
TORSDOF 8
