REMARK  Name = ZINC35938778
REMARK  6 active torsions:
REMARK  status: ('A' for Active; 'I' for Inactive)
REMARK    1  A    between atoms: C_1  and  C_2
REMARK    2  A    between atoms: C_7  and  C_8
REMARK    3  A    between atoms: N_17  and  C_18
REMARK    4  A    between atoms: C_18  and  C_20
REMARK    5  A    between atoms: C_18  and  C_21
REMARK    6  A    between atoms: C_29  and  C_31
REMARK                            x       y       z     vdW  Elec       q    Type
REMARK                         _______ _______ _______ _____ _____    ______ ____
ROOT
ATOM      1  C   UNL     1       1.887  -1.522   1.680  0.00  0.00    +0.202 C 
ATOM      2  O   UNL     1       0.897  -2.084   1.261  0.00  0.00    -0.277 OA
ATOM      3  N   UNL     1       2.963  -1.367   0.883  0.00  0.00    -0.300 N 
ATOM      4  C   UNL     1       4.208  -0.793   1.411  0.00  0.00    +0.126 C 
ATOM      5  C   UNL     1       5.354  -1.776   1.140  0.00  0.00    +0.127 C 
ATOM      6  N   UNL     1       5.303  -2.179  -0.273  0.00  0.00    -0.295 N 
ATOM      7  C   UNL     1       4.057  -2.752  -0.801  0.00  0.00    +0.127 C 
ATOM      8  C   UNL     1       2.913  -1.775  -0.528  0.00  0.00    +0.126 C 
ATOM      9  C   UNL     1       6.379  -2.024  -1.069  0.00  0.00    +0.247 C 
ATOM     10  O   UNL     1       7.426  -1.615  -0.605  0.00  0.00    -0.270 OA
ENDROOT
BRANCH   9  11
ATOM     11  C   UNL     1       6.287  -2.351  -2.504  0.00  0.00    +0.045 A 
ATOM     12  C   UNL     1       5.864  -3.607  -2.912  0.00  0.00    +0.014 A 
ATOM     13  C   UNL     1       5.775  -3.921  -4.262  0.00  0.00    +0.001 A 
ATOM     14  C   UNL     1       6.098  -3.008  -5.221  0.00  0.00    +0.008 A 
ATOM     15  C   UNL     1       6.532  -1.723  -4.854  0.00  0.00    -0.017 A 
ATOM     16  C   UNL     1       6.623  -1.382  -3.483  0.00  0.00    -0.006 A 
ATOM     17  C   UNL     1       7.051  -0.098  -3.118  0.00  0.00    +0.009 A 
ATOM     18  C   UNL     1       7.367   0.808  -4.085  0.00  0.00    +0.001 A 
ATOM     19  C   UNL     1       7.272   0.477  -5.435  0.00  0.00    +0.001 A 
ATOM     20  C   UNL     1       6.872  -0.765  -5.825  0.00  0.00    +0.008 A 
ENDBRANCH   9  11
BRANCH   1  21
ATOM     21  C   UNL     1       1.913  -0.995   3.092  0.00  0.00    +0.018 C 
ATOM     22  C   UNL     1       2.592  -2.018   4.005  0.00  0.00    -0.004 C 
BRANCH  21  31
ATOM     23  C   UNL     1       0.572  -0.053   4.837  0.00  0.00    -0.005 C 
ATOM     24  C   UNL     1      -0.853   0.092   5.360  0.00  0.00    -0.047 A 
ATOM     25  C   UNL     1      -1.241   1.023   6.320  0.00  0.00    +0.010 A 
ATOM     26  C   UNL     1      -2.532   1.082   6.724  0.00  0.00    +0.045 A 
ATOM     27  S   UNL     1      -3.285  -0.208   5.742  0.00  0.00    -0.101 S 
ATOM     28  C   UNL     1      -1.831  -0.726   4.876  0.00  0.00    -0.010 A 
ATOM     29  C   UNL     1      -1.662  -1.799   3.851  0.00  0.00    +0.024 C 
ATOM     30  C   UNL     1      -0.153  -2.054   3.690  0.00  0.00    -0.071 C 
ATOM     31  N   UNL     1       0.538  -0.764   3.554  0.00  0.00    +0.395 N 
ATOM     32  H   UNL     1       0.051  -0.199   2.874  0.00  0.00    -0.079 HD
BRANCH  23  39
ATOM     33  C   UNL     1       1.980   1.226   7.013  0.00  0.00    +0.044 C 
ATOM     34  C   UNL     1       1.853   1.924   5.683  0.00  0.00    -0.049 A 
ATOM     35  C   UNL     1       2.416   3.174   5.503  0.00  0.00    +0.003 A 
ATOM     36  C   UNL     1       2.300   3.814   4.283  0.00  0.00    +0.000 A 
ATOM     37  C   UNL     1       1.622   3.205   3.244  0.00  0.00    +0.000 A 
ATOM     38  C   UNL     1       1.061   1.955   3.424  0.00  0.00    +0.002 A 
ATOM     39  C   UNL     1       1.180   1.312   4.642  0.00  0.00    -0.054 A 
ENDBRANCH  23  39
ENDBRANCH  21  31
ENDBRANCH   1  21
TORSDOF 4
