REMARK  Name = ZINC43321901
REMARK  5 active torsions:
REMARK  status: ('A' for Active; 'I' for Inactive)
REMARK    1  A    between atoms: C_1  and  C_2
REMARK    2  A    between atoms: C_3  and  C_9
REMARK    3  A    between atoms: C_7  and  N_8
REMARK    4  A    between atoms: N_13  and  C_14
REMARK    5  A    between atoms: C_19  and  C_20
REMARK                            x       y       z     vdW  Elec       q    Type
REMARK                         _______ _______ _______ _____ _____    ______ ____
ROOT
ATOM      1  C   UNL     1      -0.085   0.010  -2.445  0.00  0.00    +0.187 A 
ATOM      2  N   UNL     1      -0.120   1.320  -2.566  0.00  0.00    -0.108 NA
ATOM      3  N   UNL     1       0.045   1.663  -3.792  0.00  0.00    -0.022 NA
ATOM      4  N   UNL     1       0.197   0.623  -4.537  0.00  0.00    -0.039 NA
ATOM      5  N   UNL     1       0.124  -0.499  -3.693  0.00  0.00    -0.192 N 
ENDROOT
BRANCH   5   6
ATOM      6  C   UNL     1       0.239  -1.847  -4.056  0.00  0.00    +0.075 A 
ATOM      7  C   UNL     1      -0.628  -2.789  -3.516  0.00  0.00    +0.028 A 
ATOM      8  C   UNL     1      -0.513  -4.118  -3.875  0.00  0.00    +0.005 A 
ATOM      9  C   UNL     1       0.463  -4.513  -4.770  0.00  0.00    +0.039 A 
ATOM     10  C   UNL     1       1.329  -3.577  -5.311  0.00  0.00    +0.128 A 
ATOM     11  C   UNL     1       1.215  -2.244  -4.960  0.00  0.00    +0.010 A 
ATOM     12  C   UNL     1       2.152  -1.224  -5.553  0.00  0.00    +0.049 C 
ATOM     13  F   UNL     1       2.283  -3.966  -6.186  0.00  0.00    -0.205 F 
ENDBRANCH   5   6
BRANCH   1  16
ATOM     14  C   UNL     1      -1.970   0.893  -0.437  0.00  0.00    +0.046 C 
ATOM     15  C   UNL     1      -1.142  -0.346  -0.218  0.00  0.00    -0.019 A 
ATOM     16  C   UNL     1      -0.236  -0.764  -1.192  0.00  0.00    +0.026 A 
ATOM     17  C   UNL     1       0.527  -1.913  -0.983  0.00  0.00    +0.012 A 
ATOM     18  C   UNL     1       0.384  -2.633   0.186  0.00  0.00    +0.002 A 
ATOM     19  C   UNL     1      -0.514  -2.220   1.152  0.00  0.00    +0.023 A 
ATOM     20  C   UNL     1      -1.274  -1.073   0.956  0.00  0.00    +0.028 A 
BRANCH  20  21
ATOM     21  N   UNL     1      -2.176  -0.656   1.938  0.00  0.00    -0.358 N 
ATOM     22  H   UNL     1      -2.710   0.142   1.799  0.00  0.00    +0.142 HD
ATOM     23  H   UNL     1      -2.269  -1.164   2.758  0.00  0.00    +0.142 HD
ENDBRANCH  20  21
ENDBRANCH   1  16
TORSDOF 3
