REMARK  Name = ZINC49909452
REMARK  5 active torsions:
REMARK  status: ('A' for Active; 'I' for Inactive)
REMARK    1  A    between atoms: C_1  and  C_2
REMARK    2  A    between atoms: C_2  and  C_23
REMARK    3  A    between atoms: N_5  and  C_9
REMARK    4  A    between atoms: C_9  and  C_10
REMARK    5  A    between atoms: N_12  and  C_13
REMARK                            x       y       z     vdW  Elec       q    Type
REMARK                         _______ _______ _______ _____ _____    ______ ____
ROOT
ATOM      1  C   UNL     1      -0.018   1.518   0.023  0.00  0.00    +0.047 C 
ATOM      2  C   UNL     1       0.008  -0.012   0.020  0.00  0.00    +0.135 C 
ATOM      3  C   UNL     1       0.817  -0.530  -1.153  0.00  0.00    +0.251 C 
ATOM      4  O   UNL     1       0.591  -0.357  -2.331  0.00  0.00    -0.272 OA
ATOM      5  N   UNL     1       1.840  -1.222  -0.613  0.00  0.00    -0.215 N 
ATOM      6  C   UNL     1       1.790  -1.213   0.724  0.00  0.00    +0.310 C 
ATOM      7  O   UNL     1       2.605  -1.770   1.434  0.00  0.00    -0.252 OA
ATOM      8  N   UNL     1       0.738  -0.520   1.195  0.00  0.00    -0.281 N 
ATOM      9  H   UNL     1       0.505  -0.381   2.126  0.00  0.00    +0.152 HD
ENDROOT
BRANCH   2  10
ATOM     10  C   UNL     1      -1.393  -0.565  -0.013  0.00  0.00    -0.016 A 
ATOM     11  C   UNL     1      -2.001  -0.835  -1.225  0.00  0.00    +0.006 A 
ATOM     12  C   UNL     1      -3.287  -1.341  -1.255  0.00  0.00    +0.000 A 
ATOM     13  C   UNL     1      -3.965  -1.579  -0.074  0.00  0.00    +0.000 A 
ATOM     14  C   UNL     1      -3.356  -1.310   1.138  0.00  0.00    +0.000 A 
ATOM     15  C   UNL     1      -2.069  -0.807   1.168  0.00  0.00    +0.006 A 
ENDBRANCH   2  10
BRANCH   5  16
ATOM     16  C   UNL     1       2.877  -1.900  -1.393  0.00  0.00    +0.214 C 
BRANCH  16  17
ATOM     17  C   UNL     1       4.022  -0.951  -1.640  0.00  0.00    +0.235 C 
ATOM     18  O   UNL     1       3.975   0.181  -1.207  0.00  0.00    -0.274 OA
ATOM     19  N   UNL     1       5.097  -1.360  -2.343  0.00  0.00    -0.284 N 
ATOM     20  H   UNL     1       5.164  -2.283  -2.633  0.00  0.00    +0.155 HD
BRANCH  19  21
ATOM     21  C   UNL     1       6.116  -0.452  -2.654  0.00  0.00    +0.037 A 
ATOM     22  C   UNL     1       6.444   0.549  -1.754  0.00  0.00    +0.023 A 
ATOM     23  C   UNL     1       7.449   1.444  -2.063  0.00  0.00    +0.002 A 
ATOM     24  C   UNL     1       8.118   1.338  -3.266  0.00  0.00    +0.004 A 
ATOM     25  C   UNL     1       7.792   0.336  -4.172  0.00  0.00    -0.042 A 
ATOM     26  C   UNL     1       6.799  -0.565  -3.865  0.00  0.00    -0.023 A 
ATOM     27  C   UNL     1       6.408  -1.688  -4.789  0.00  0.00    +0.037 C 
ATOM     28  C   UNL     1       6.919  -1.423  -6.203  0.00  0.00    +0.005 C 
ATOM     29  C   UNL     1       8.414  -1.089  -6.123  0.00  0.00    +0.005 C 
ATOM     30  C   UNL     1       8.558   0.287  -5.468  0.00  0.00    +0.035 C 
ENDBRANCH  19  21
ENDBRANCH  16  17
ENDBRANCH   5  16
TORSDOF 4
