REMARK  Name = ZINC05622429
REMARK  10 active torsions:
REMARK  status: ('A' for Active; 'I' for Inactive)
REMARK    1  A    between atoms: C_1  and  C_2
REMARK    2  A    between atoms: C_7  and  N_12
REMARK    3  A    between atoms: C_9  and  C_11
REMARK    4  A    between atoms: C_13  and  C_15
REMARK    5  A    between atoms: C_15  and  O_16
REMARK    6  A    between atoms: O_16  and  C_17
REMARK    7  A    between atoms: C_17  and  C_19
REMARK    8  A    between atoms: C_22  and  C_25
REMARK    9  A    between atoms: C_25  and  S_26
REMARK   10  A    between atoms: S_26  and  C_29
REMARK                            x       y       z     vdW  Elec       q    Type
REMARK                         _______ _______ _______ _____ _____    ______ ____
ROOT
ATOM      1  O   UNL     1      -3.681   3.185   0.054  0.00  0.00    -0.452 OA
ENDROOT
BRANCH   1   2
ATOM      2  C   UNL     1      -2.521   3.870   0.046  0.00  0.00    +0.340 C 
ATOM      3  O   UNL     1      -2.532   5.085   0.053  0.00  0.00    -0.245 OA
BRANCH   2   4
ATOM      4  C   UNL     1      -1.234   3.144   0.030  0.00  0.00    +0.059 A 
ATOM      5  C   UNL     1      -1.217   1.748   0.017  0.00  0.00    +0.015 A 
ATOM      6  C   UNL     1      -0.013   1.076   0.008  0.00  0.00    +0.006 A 
ATOM      7  C   UNL     1       1.177   1.782   0.000  0.00  0.00    -0.027 A 
ATOM      8  C   UNL     1       1.167   3.166   0.008  0.00  0.00    +0.006 A 
ATOM      9  C   UNL     1      -0.030   3.850   0.023  0.00  0.00    +0.015 A 
BRANCH   7  10
ATOM     10  C   UNL     1       2.489   1.042  -0.016  0.00  0.00    +0.200 C 
BRANCH  10  11
ATOM     11  S   UNL     1       3.000   0.753  -1.732  0.00  0.00    -0.030 S 
ATOM     12  O   UNL     1       2.060  -0.124  -2.339  0.00  0.00    -0.174 OA
ATOM     13  O   UNL     1       3.265   2.010  -2.340  0.00  0.00    -0.174 OA
ATOM     14  C   UNL     1       4.571  -0.134  -1.539  0.00  0.00    +0.194 C 
ENDBRANCH  10  11
ENDBRANCH   7  10
ENDBRANCH   2   4
ENDBRANCH   1   2
BRANCH   1  15
ATOM     15  C   UNL     1      -4.906   3.964   0.070  0.00  0.00    +0.328 C 
BRANCH  15  17
ATOM     16  N   UNL     1      -7.342   3.538   0.091  0.00  0.00    -0.309 N 
ATOM     17  C   UNL     1      -6.092   3.035   0.076  0.00  0.00    +0.251 C 
ATOM     18  O   UNL     1      -5.922   1.834   0.068  0.00  0.00    -0.272 OA
ATOM     19  H   UNL     1      -7.479   4.498   0.097  0.00  0.00    +0.149 HD
BRANCH  16  25
ATOM     20  C   UNL     1     -12.104   3.113   1.353  0.00  0.00    +0.008 C 
ATOM     21  C   UNL     1     -10.902   2.402   0.728  0.00  0.00    -0.009 C 
ATOM     22  C   UNL     1     -11.239   1.996  -0.708  0.00  0.00    +0.003 C 
ATOM     23  C   UNL     1     -10.037   1.285  -1.333  0.00  0.00    +0.002 C 
ATOM     24  C   UNL     1      -8.833   2.228  -1.339  0.00  0.00    +0.022 C 
ATOM     25  C   UNL     1      -8.495   2.634   0.097  0.00  0.00    +0.076 C 
ATOM     26  C   UNL     1      -9.697   3.345   0.722  0.00  0.00    +0.009 C 
ATOM     27  C   UNL     1      -9.360   3.751   2.158  0.00  0.00    +0.009 C 
ENDBRANCH  16  25
ENDBRANCH  15  17
ENDBRANCH   1  15
TORSDOF 7
