REMARK  Name = ZINC39577479
REMARK  5 active torsions:
REMARK  status: ('A' for Active; 'I' for Inactive)
REMARK    1  A    between atoms: C_4  and  C_7
REMARK    2  A    between atoms: C_10  and  C_13
REMARK    3  A    between atoms: C_15  and  C_19
REMARK    4  A    between atoms: N_21  and  N_22
REMARK    5  A    between atoms: C_23  and  C_24
REMARK                            x       y       z     vdW  Elec       q    Type
REMARK                         _______ _______ _______ _____ _____    ______ ____
ROOT
ATOM      1  C   UNL     1       7.416  -2.757  -0.087  0.00  0.00    +0.092 C 
ATOM      2  C   UNL     1       7.550  -4.098  -0.106  0.00  0.00    +0.041 C 
ATOM      3  C   UNL     1       9.053  -4.313  -0.118  0.00  0.00    +0.240 C 
ATOM      4  N   UNL     1       9.588  -2.942  -0.102  0.00  0.00    -0.170 NA
ATOM      5  N   UNL     1       8.636  -2.159  -0.092  0.00  0.00    -0.153 NA
ENDROOT
BRANCH   1   9
ATOM      6  C   UNL     1       3.698  -0.688  -0.037  0.00  0.00    -0.018 A 
ATOM      7  C   UNL     1       4.895   0.028  -0.040  0.00  0.00    +0.009 A 
ATOM      8  C   UNL     1       6.098  -0.642  -0.056  0.00  0.00    +0.010 A 
ATOM      9  C   UNL     1       6.120  -2.036  -0.069  0.00  0.00    +0.002 A 
ATOM     10  C   UNL     1       4.924  -2.752  -0.066  0.00  0.00    +0.010 A 
ATOM     11  C   UNL     1       3.720  -2.083  -0.045  0.00  0.00    +0.009 A 
BRANCH   6  15
ATOM     12  C   UNL     1      -0.017   1.379   0.010  0.00  0.00    +0.000 A 
ATOM     13  C   UNL     1       1.169   2.092   0.002  0.00  0.00    +0.001 A 
ATOM     14  C   UNL     1       2.377   1.427  -0.013  0.00  0.00    +0.008 A 
ATOM     15  C   UNL     1       2.402   0.033  -0.021  0.00  0.00    -0.018 A 
ATOM     16  C   UNL     1       1.205  -0.680  -0.013  0.00  0.00    +0.008 A 
ATOM     17  C   UNL     1       0.002  -0.004   0.002  0.00  0.00    +0.001 A 
ENDBRANCH   6  15
ENDBRANCH   1   9
BRANCH   3  18
ATOM     18  C   UNL     1       9.476  -5.040  -1.368  0.00  0.00    +0.263 C 
ATOM     19  O   UNL     1       9.946  -4.420  -2.300  0.00  0.00    -0.271 OA
ATOM     20  N   UNL     1       9.333  -6.377  -1.452  0.00  0.00    -0.205 N 
ATOM     21  H   UNL     1       8.957  -6.872  -0.708  0.00  0.00    +0.177 HD
BRANCH  20  22
ATOM     22  N   UNL     1       9.726  -7.052  -2.615  0.00  0.00    -0.188 NA
ATOM     23  C   UNL     1       9.588  -8.340  -2.696  0.00  0.00    +0.138 C 
BRANCH  23  24
ATOM     24  C   UNL     1      10.003  -9.051  -3.919  0.00  0.00    -0.005 A 
ATOM     25  C   UNL     1      10.550  -8.342  -4.991  0.00  0.00    +0.010 A 
ATOM     26  C   UNL     1      10.936  -9.013  -6.133  0.00  0.00    +0.016 A 
ATOM     27  C   UNL     1      10.782 -10.386  -6.218  0.00  0.00    +0.018 A 
ATOM     28  C   UNL     1      10.240 -11.095  -5.159  0.00  0.00    +0.016 A 
ATOM     29  C   UNL     1       9.855 -10.437  -4.010  0.00  0.00    +0.010 A 
ATOM     30 BR   UNL     1      11.313 -11.298  -7.787  0.00  0.00    -0.050 Br
ENDBRANCH  23  24
ENDBRANCH  20  22
ENDBRANCH   3  18
TORSDOF 5
