REMARK  Name = ZINC12009794
REMARK  5 active torsions:
REMARK  status: ('A' for Active; 'I' for Inactive)
REMARK    1  A    between atoms: C_3  and  C_6
REMARK    2  A    between atoms: C_8  and  N_22
REMARK    3  A    between atoms: C_23  and  C_25
REMARK    4  A    between atoms: C_25  and  O_26
REMARK    5  A    between atoms: O_26  and  C_27
REMARK                            x       y       z     vdW  Elec       q    Type
REMARK                         _______ _______ _______ _____ _____    ______ ____
ROOT
ATOM      1  C   UNL     1       1.643   5.529   0.015  0.00  0.00    +0.130 A 
ATOM      2  C   UNL     1       0.234   5.467   0.028  0.00  0.00    +0.077 A 
ATOM      3  C   UNL     1      -0.125   4.159   0.025  0.00  0.00    +0.132 A 
ATOM      4  N   UNL     1       1.021   3.415   0.010  0.00  0.00    -0.184 N 
ATOM      5  N   UNL     1       2.109   4.296   0.011  0.00  0.00    -0.159 NA
ATOM      6  C   UNL     1       1.094   2.035   0.003  0.00  0.00    +0.234 A 
ATOM      7  N   UNL     1       2.312   1.431  -0.012  0.00  0.00    -0.291 N 
ATOM      8  H   UNL     1       3.121   1.966  -0.017  0.00  0.00    +0.172 HD
ATOM      9  C   UNL     1       2.388   0.084  -0.020  0.00  0.00    +0.256 A 
ATOM     10  O   UNL     1       3.472  -0.477  -0.033  0.00  0.00    -0.267 OA
ATOM     11  C   UNL     1       1.194  -0.664  -0.013  0.00  0.00    +0.038 A 
ATOM     12  C   UNL     1       0.002  -0.004   0.002  0.00  0.00    +0.053 A 
ATOM     13  N   UNL     1      -0.016   1.331   0.009  0.00  0.00    -0.217 NA
ATOM     14  C   UNL     1      -1.139  -1.000   0.008  0.00  0.00    +0.056 C 
ATOM     15  C   UNL     1      -0.509  -2.336  -0.442  0.00  0.00    +0.011 C 
ATOM     16  C   UNL     1       0.966  -2.158  -0.019  0.00  0.00    +0.043 C 
ENDROOT
BRANCH   1  19
ATOM     17  C   UNL     1       4.161   8.189   0.005  0.00  0.00    +0.042 A 
ATOM     18  C   UNL     1       3.815   6.823   0.007  0.00  0.00    +0.051 A 
ATOM     19  C   UNL     1       2.457   6.763   0.013  0.00  0.00    +0.155 A 
ATOM     20  O   UNL     1       1.981   8.023   0.025  0.00  0.00    -0.461 OA
ATOM     21  C   UNL     1       3.009   8.888   0.020  0.00  0.00    +0.196 A 
ENDBRANCH   1  19
BRANCH   3  22
ATOM     22  N   UNL     1      -1.427   3.663   0.035  0.00  0.00    -0.267 N 
ATOM     23  C   UNL     1      -2.472   4.514   0.049  0.00  0.00    +0.256 C 
ATOM     24  O   UNL     1      -2.279   5.711   0.052  0.00  0.00    -0.272 OA
ATOM     25  H   UNL     1      -1.581   2.705   0.032  0.00  0.00    +0.156 HD
BRANCH  23  26
ATOM     26  C   UNL     1      -3.880   3.978   0.060  0.00  0.00    +0.325 C 
BRANCH  26  27
ATOM     27  O   UNL     1      -4.804   5.067   0.074  0.00  0.00    -0.481 OA
BRANCH  27  28
ATOM     28  C   UNL     1      -6.127   4.754   0.085  0.00  0.00    +0.140 A 
ATOM     29  C   UNL     1      -6.527   3.426   0.083  0.00  0.00    +0.048 A 
ATOM     30  C   UNL     1      -7.871   3.109   0.095  0.00  0.00    +0.023 A 
ATOM     31  C   UNL     1      -8.820   4.116   0.108  0.00  0.00    +0.043 A 
ATOM     32  C   UNL     1      -8.425   5.442   0.110  0.00  0.00    +0.043 A 
ATOM     33  C   UNL     1      -7.080   5.763   0.105  0.00  0.00    +0.084 A 
ATOM     34 CL   UNL     1      -6.584   7.427   0.115  0.00  0.00    -0.080 Cl
ATOM     35 CL   UNL     1     -10.509   3.716   0.123  0.00  0.00    -0.083 Cl
ENDBRANCH  27  28
ENDBRANCH  26  27
ENDBRANCH  23  26
ENDBRANCH   3  22
TORSDOF 5
