REMARK  Name = ZINC40988020
REMARK  6 active torsions:
REMARK  status: ('A' for Active; 'I' for Inactive)
REMARK    1  A    between atoms: C_6  and  C_7
REMARK    2  A    between atoms: C_7  and  C_9
REMARK    3  A    between atoms: C_7  and  N_30
REMARK    4  A    between atoms: C_9  and  N_10
REMARK    5  A    between atoms: C_11  and  C_13
REMARK    6  A    between atoms: N_16  and  C_18
REMARK                            x       y       z     vdW  Elec       q    Type
REMARK                         _______ _______ _______ _____ _____    ______ ____
ROOT
ATOM      1  N   UNL     1      -2.848  -2.046  -1.359  0.00  0.00    -0.311 N 
ATOM      2  C   UNL     1      -3.334  -2.558  -2.507  0.00  0.00    +0.264 C 
ATOM      3  O   UNL     1      -2.844  -2.235  -3.572  0.00  0.00    -0.268 OA
ATOM      4  H   UNL     1      -3.238  -2.304  -0.509  0.00  0.00    +0.149 HD
ENDROOT
BRANCH   2   5
ATOM      5  C   UNL     1      -4.461  -3.512  -2.471  0.00  0.00    +0.150 A 
ATOM      6  C   UNL     1      -5.070  -4.133  -3.575  0.00  0.00    +0.006 A 
ATOM      7  C   UNL     1      -6.052  -4.917  -3.066  0.00  0.00    +0.044 A 
ATOM      8  N   UNL     1      -6.025  -4.772  -1.731  0.00  0.00    -0.263 N 
ATOM      9  N   UNL     1      -5.088  -3.953  -1.395  0.00  0.00    -0.166 NA
ATOM     10  C   UNL     1      -6.969  -5.768  -3.907  0.00  0.00    +0.055 C 
ATOM     11  C   UNL     1      -6.883  -5.279  -5.359  0.00  0.00    +0.006 C 
ATOM     12  C   UNL     1      -5.415  -5.173  -5.780  0.00  0.00    +0.005 C 
ATOM     13  C   UNL     1      -4.752  -4.004  -5.039  0.00  0.00    +0.039 C 
BRANCH   8  14
ATOM     14  C   UNL     1      -6.924  -5.450  -0.794  0.00  0.00    +0.130 C 
ATOM     15  C   UNL     1      -6.096  -6.301   0.183  0.00  0.00    +0.051 C 
ATOM     16  C   UNL     1      -7.029  -6.751   1.344  0.00  0.00    +0.168 C 
ATOM     17  S   UNL     1      -7.993  -5.205   1.620  0.00  0.00    -0.029 S 
ATOM     18  O   UNL     1      -7.351  -4.432   2.624  0.00  0.00    -0.174 OA
ATOM     19  O   UNL     1      -9.367  -5.537   1.765  0.00  0.00    -0.174 OA
ATOM     20  C   UNL     1      -7.741  -4.394  -0.010  0.00  0.00    +0.192 C 
ENDBRANCH   8  14
ENDBRANCH   2   5
BRANCH   1  21
ATOM     21  C   UNL     1      -1.730  -1.100  -1.394  0.00  0.00    +0.094 C 
BRANCH  21  22
ATOM     22  C   UNL     1      -1.461  -0.575   0.018  0.00  0.00    -0.020 C 
BRANCH  22  28
ATOM     23  C   UNL     1      -3.565  -0.411   1.364  0.00  0.00    +0.003 A 
ATOM     24  C   UNL     1      -4.668   0.291   1.812  0.00  0.00    +0.020 A 
ATOM     25  C   UNL     1      -4.869   1.597   1.403  0.00  0.00    +0.041 A 
ATOM     26  C   UNL     1      -3.966   2.200   0.545  0.00  0.00    +0.020 A 
ATOM     27  C   UNL     1      -2.864   1.496   0.097  0.00  0.00    +0.003 A 
ATOM     28  C   UNL     1      -2.664   0.191   0.506  0.00  0.00    -0.059 A 
ATOM     29 CL   UNL     1      -6.254   2.480   1.965  0.00  0.00    -0.084 Cl
ENDBRANCH  22  28
BRANCH  22  30
ATOM     30  N   UNL     1      -0.291   0.312  -0.004  0.00  0.00    +0.385 N 
ATOM     31  C   UNL     1       0.889  -0.447  -0.434  0.00  0.00    -0.078 C 
ATOM     32  C   UNL     1       2.094   0.490  -0.537  0.00  0.00    -0.019 C 
ATOM     33  C   UNL     1       2.362   1.120   0.833  0.00  0.00    -0.004 C 
ATOM     34  C   UNL     1       1.100   1.847   1.305  0.00  0.00    -0.019 C 
ATOM     35  C   UNL     1      -0.068   0.860   1.340  0.00  0.00    -0.078 C 
ATOM     36  H   UNL     1      -0.456   1.069  -0.651  0.00  0.00    -0.081 HD
ENDBRANCH  22  30
ENDBRANCH  21  22
ENDBRANCH   1  21
TORSDOF 6
