REMARK  Name = ZINC40034904
REMARK  8 active torsions:
REMARK  status: ('A' for Active; 'I' for Inactive)
REMARK    1  A    between atoms: C_1  and  C_2
REMARK    2  A    between atoms: C_2  and  O_3
REMARK    3  A    between atoms: O_3  and  C_4
REMARK    4  A    between atoms: C_7  and  N_10
REMARK    5  A    between atoms: N_17  and  N_18
REMARK    6  A    between atoms: C_19  and  C_20
REMARK    7  A    between atoms: C_37  and  C_38
REMARK    8  A    between atoms: C_37  and  C_39
REMARK                            x       y       z     vdW  Elec       q    Type
REMARK                         _______ _______ _______ _____ _____    ______ ____
ROOT
ATOM      1  N   UNL     1      -1.857  -6.332  -0.786  0.00  0.00    -0.248 N 
ATOM      2  C   UNL     1      -3.087  -6.713  -0.381  0.00  0.00    +0.264 A 
ATOM      3  O   UNL     1      -3.941  -5.882  -0.116  0.00  0.00    -0.267 OA
ATOM      4  C   UNL     1      -3.363  -8.082  -0.271  0.00  0.00    +0.049 A 
ATOM      5  C   UNL     1      -2.364  -8.993  -0.584  0.00  0.00    +0.084 A 
ATOM      6  N   UNL     1      -1.162  -8.558  -0.973  0.00  0.00    -0.214 NA
ATOM      7  C   UNL     1      -0.909  -7.269  -1.079  0.00  0.00    +0.223 A 
ATOM      8  N   UNL     1       0.333  -6.861  -1.488  0.00  0.00    -0.206 N 
ATOM      9  C   UNL     1      -2.659 -10.441  -0.483  0.00  0.00    +0.004 A 
ATOM     10  C   UNL     1      -1.632 -11.377  -0.412  0.00  0.00    +0.010 A 
ATOM     11  C   UNL     1      -1.936 -12.720  -0.314  0.00  0.00    +0.001 A 
ATOM     12  C   UNL     1      -3.256 -13.132  -0.286  0.00  0.00    +0.000 A 
ATOM     13  C   UNL     1      -4.281 -12.205  -0.358  0.00  0.00    +0.004 A 
ATOM     14  C   UNL     1      -3.990 -10.860  -0.459  0.00  0.00    -0.037 A 
ATOM     15  C   UNL     1      -5.099  -9.846  -0.551  0.00  0.00    +0.047 C 
ATOM     16  C   UNL     1      -4.714  -8.562   0.179  0.00  0.00    +0.001 C 
ATOM     17  C   UNL     1      -4.677  -8.831   1.685  0.00  0.00    +0.016 C 
ATOM     18  C   UNL     1      -5.757  -7.483  -0.114  0.00  0.00    +0.016 C 
ATOM     19  H   UNL     1       0.517  -5.917  -1.612  0.00  0.00    +0.177 HD
ENDROOT
BRANCH   1  23
ATOM     20  C   UNL     1      -0.953  -2.278  -1.159  0.00  0.00    +0.121 A 
ATOM     21  C   UNL     1      -0.750  -2.925   0.052  0.00  0.00    +0.047 A 
ATOM     22  C   UNL     1      -1.050  -4.268   0.176  0.00  0.00    +0.030 A 
ATOM     23  C   UNL     1      -1.553  -4.970  -0.911  0.00  0.00    +0.053 A 
ATOM     24  C   UNL     1      -1.755  -4.322  -2.122  0.00  0.00    +0.030 A 
ATOM     25  C   UNL     1      -1.461  -2.978  -2.244  0.00  0.00    +0.047 A 
BRANCH  20  26
ATOM     26  O   UNL     1      -0.658  -0.957  -1.280  0.00  0.00    -0.492 OA
BRANCH  26  28
ATOM     27  C   UNL     1       0.131   1.171  -0.450  0.00  0.00    +0.048 C 
ATOM     28  C   UNL     1      -0.138  -0.299  -0.123  0.00  0.00    +0.225 C 
ENDBRANCH  26  28
ENDBRANCH  20  26
ENDBRANCH   1  23
BRANCH   8  29
ATOM     29  N   UNL     1       1.338  -7.808  -1.728  0.00  0.00    -0.188 NA
ATOM     30  C   UNL     1       2.519  -7.419  -2.117  0.00  0.00    +0.137 C 
BRANCH  30  31
ATOM     31  C   UNL     1       3.536  -8.377  -2.359  0.00  0.00    +0.010 C 
ATOM     32  C   UNL     1       3.280  -9.698  -2.193  0.00  0.00    +0.020 C 
ATOM     33  C   UNL     1       4.378 -10.648  -2.439  0.00  0.00    +0.017 A 
ATOM     34  C   UNL     1       4.137 -12.008  -2.618  0.00  0.00    +0.011 A 
ATOM     35  C   UNL     1       5.197 -12.863  -2.847  0.00  0.00    +0.001 A 
ATOM     36  C   UNL     1       6.491 -12.373  -2.897  0.00  0.00    +0.004 A 
ATOM     37  C   UNL     1       6.742 -11.024  -2.720  0.00  0.00    +0.046 A 
ATOM     38  C   UNL     1       5.692 -10.153  -2.491  0.00  0.00    +0.128 A 
ATOM     39  O   UNL     1       5.904  -8.825  -2.313  0.00  0.00    -0.487 OA
ATOM     40  C   UNL     1       4.903  -7.932  -2.809  0.00  0.00    +0.266 C 
ENDBRANCH  30  31
ENDBRANCH   8  29
TORSDOF 5
