REMARK  Name = ZINC12332796
REMARK  7 active torsions:
REMARK  status: ('A' for Active; 'I' for Inactive)
REMARK    1  A    between atoms: C_1  and  O_2
REMARK    2  A    between atoms: O_2  and  C_3
REMARK    3  A    between atoms: C_6  and  C_9
REMARK    4  A    between atoms: C_10  and  C_11
REMARK    5  A    between atoms: C_11  and  N_56
REMARK    6  A    between atoms: C_18  and  C_22
REMARK    7  A    between atoms: C_20  and  O_21
REMARK                            x       y       z     vdW  Elec       q    Type
REMARK                         _______ _______ _______ _____ _____    ______ ____
ROOT
ATOM      1  C   UNL     1       0.111  -0.529  -1.414  0.00  0.00    -0.036 C 
ATOM      2  C   UNL     1       0.002  -0.004   0.002  0.00  0.00    +0.211 C 
ATOM      3  O   UNL     1      -0.017   1.429   0.010  0.00  0.00    -0.490 OA
ATOM      4  C   UNL     1       1.204   2.028   0.002  0.00  0.00    +0.163 A 
ATOM      5  C   UNL     1       2.003   1.960  -1.125  0.00  0.00    -0.018 A 
ATOM      6  C   UNL     1       3.256   2.530  -1.135  0.00  0.00    +0.016 A 
ATOM      7  C   UNL     1       3.719   3.202   0.000  0.00  0.00    +0.011 A 
ATOM      8  C   UNL     1       2.907   3.291   1.133  0.00  0.00    +0.059 A 
ATOM      9  C   UNL     1       1.654   2.706   1.134  0.00  0.00    +0.159 A 
ATOM     10  C   UNL     1       1.479   1.250  -2.360  0.00  0.00    -0.039 C 
ATOM     11  N   UNL     1       1.403  -0.198  -2.053  0.00  0.00    +0.387 N 
ATOM     12  H   UNL     1       2.162  -0.437  -1.405  0.00  0.00    -0.081 HD
ENDROOT
BRANCH   7  13
ATOM     13  C   UNL     1       5.063   3.816   0.002  0.00  0.00    +0.110 A 
ATOM     14  N   UNL     1       5.964   3.831  -0.956  0.00  0.00    -0.239 NA
ATOM     15  C   UNL     1       7.159   4.438  -0.817  0.00  0.00    +0.079 A 
ATOM     16  C   UNL     1       8.208   4.532  -1.763  0.00  0.00    +0.029 A 
ATOM     17  C   UNL     1       9.363   5.183  -1.460  0.00  0.00    +0.002 A 
ATOM     18  C   UNL     1       9.562   5.776  -0.222  0.00  0.00    +0.001 A 
ATOM     19  C   UNL     1       8.563   5.708   0.731  0.00  0.00    +0.017 A 
ATOM     20  C   UNL     1       7.392   5.053   0.436  0.00  0.00    +0.040 A 
ATOM     21  S   UNL     1       5.881   4.719   1.309  0.00  0.00    -0.067 S 
ENDBRANCH   7  13
BRANCH   9  22
ATOM     22  O   UNL     1       0.863   2.791   2.237  0.00  0.00    -0.503 OA
ATOM     23  H   UNL     1       0.284   3.566   2.247  0.00  0.00    +0.292 HD
ENDBRANCH   9  22
BRANCH  11  24
ATOM     24  C   UNL     1       1.564  -0.983  -3.287  0.00  0.00    -0.050 C 
BRANCH  24  26
ATOM     25  C   UNL     1       0.956  -3.356  -3.448  0.00  0.00    +0.002 C 
ATOM     26  C   UNL     1       1.741  -2.432  -2.912  0.00  0.00    -0.045 C 
BRANCH  25  30
ATOM     27  C   UNL     1       1.454  -7.441  -2.393  0.00  0.00    +0.120 A 
ATOM     28  C   UNL     1       0.468  -7.075  -3.299  0.00  0.00    +0.046 A 
ATOM     29  C   UNL     1       0.303  -5.751  -3.644  0.00  0.00    +0.011 A 
ATOM     30  C   UNL     1       1.129  -4.777  -3.081  0.00  0.00    -0.025 A 
ATOM     31  C   UNL     1       2.123  -5.149  -2.175  0.00  0.00    +0.011 A 
ATOM     32  C   UNL     1       2.278  -6.475  -1.830  0.00  0.00    +0.046 A 
BRANCH  27  34
ATOM     33  C   UNL     1       2.647  -9.053  -1.117  0.00  0.00    +0.277 C 
ATOM     34  O   UNL     1       1.614  -8.747  -2.055  0.00  0.00    -0.495 OA
ENDBRANCH  27  34
ENDBRANCH  25  30
ENDBRANCH  24  26
ENDBRANCH  11  24
TORSDOF 6
