REMARK  Name = ZINC36122160
REMARK  13 active torsions:
REMARK  status: ('A' for Active; 'I' for Inactive)
REMARK    1  A    between atoms: C_1  and  C_2
REMARK    2  A    between atoms: C_2  and  N_3
REMARK    3  A    between atoms: N_6  and  C_7
REMARK    4  A    between atoms: N_6  and  C_14
REMARK    5  A    between atoms: C_7  and  C_8
REMARK    6  A    between atoms: C_8  and  N_9
REMARK    7  A    between atoms: C_14  and  C_15
REMARK    8  A    between atoms: C_25  and  C_27
REMARK    9  A    between atoms: C_27  and  O_28
REMARK   10  A    between atoms: O_28  and  C_29
REMARK   11  A    between atoms: C_32  and  C_35
REMARK   12  A    between atoms: C_35  and  C_36
REMARK   13  A    between atoms: C_35  and  C_37
REMARK                            x       y       z     vdW  Elec       q    Type
REMARK                         _______ _______ _______ _____ _____    ______ ____
ROOT
ATOM      1  C   UNL     1       3.413  -0.925  -3.130  0.00  0.00    +0.234 C 
ATOM      2  O   UNL     1       3.928  -1.435  -2.158  0.00  0.00    -0.274 OA
ATOM      3  N   UNL     1       4.111  -0.050  -3.881  0.00  0.00    -0.289 N 
ATOM      4  C   UNL     1       3.494   0.580  -5.059  0.00  0.00    +0.114 C 
ATOM      5  C   UNL     1       3.388   2.090  -4.798  0.00  0.00    +0.061 C 
ATOM      6  C   UNL     1       4.664   2.559  -4.178  0.00  0.00    -0.004 A 
ATOM      7  C   UNL     1       5.638   1.808  -3.596  0.00  0.00    -0.014 A 
ATOM      8  C   UNL     1       6.735   2.495  -3.081  0.00  0.00    +0.013 A 
ATOM      9  C   UNL     1       6.796   3.843  -3.179  0.00  0.00    +0.046 A 
ATOM     10  S   UNL     1       5.269   4.220  -4.025  0.00  0.00    -0.101 S 
ATOM     11  C   UNL     1       5.496   0.292  -3.532  0.00  0.00    +0.144 C 
ENDROOT
BRANCH   1  12
ATOM     12  C   UNL     1       1.992  -1.269  -3.498  0.00  0.00    +0.205 C 
BRANCH  12  16
ATOM     13  N   UNL     1       0.688  -0.476  -1.203  0.00  0.00    -0.299 N 
ATOM     14  C   UNL     1       0.827  -1.799  -1.425  0.00  0.00    +0.303 C 
ATOM     15  O   UNL     1       0.383  -2.599  -0.625  0.00  0.00    -0.253 OA
ATOM     16  N   UNL     1       1.458  -2.233  -2.534  0.00  0.00    -0.279 N 
ATOM     17  H   UNL     1       1.042   0.162  -1.842  0.00  0.00    +0.150 HD
BRANCH  13  19
ATOM     18  C   UNL     1      -0.019   1.526   0.010  0.00  0.00    +0.024 C 
ATOM     19  C   UNL     1       0.002  -0.004   0.002  0.00  0.00    +0.102 C 
ENDBRANCH  13  19
BRANCH  16  20
ATOM     20  C   UNL     1       1.609  -3.670  -2.775  0.00  0.00    +0.091 C 
BRANCH  20  21
ATOM     21  C   UNL     1       0.406  -4.184  -3.568  0.00  0.00    -0.060 C 
BRANCH  21  22
ATOM     22  N   UNL     1       0.557  -5.625  -3.810  0.00  0.00    +0.381 N 
ATOM     23  C   UNL     1       0.428  -6.375  -2.534  0.00  0.00    -0.079 C 
ATOM     24  C   UNL     1       0.046  -7.802  -2.999  0.00  0.00    -0.020 C 
ATOM     25  C   UNL     1      -0.889  -7.535  -4.201  0.00  0.00    -0.020 C 
ATOM     26  C   UNL     1      -0.536  -6.114  -4.677  0.00  0.00    -0.079 C 
ATOM     27  H   UNL     1       1.451  -5.814  -4.237  0.00  0.00    -0.082 HD
ENDBRANCH  21  22
ENDBRANCH  20  21
ENDBRANCH  16  20
ENDBRANCH  12  16
ENDBRANCH   1  12
BRANCH  11  28
ATOM     28  C   UNL     1       6.457  -0.356  -4.530  0.00  0.00    +0.256 C 
BRANCH  28  29
ATOM     29  O   UNL     1       6.248   0.206  -5.827  0.00  0.00    -0.490 OA
BRANCH  29  30
ATOM     30  C   UNL     1       7.028  -0.264  -6.836  0.00  0.00    +0.121 A 
ATOM     31  C   UNL     1       7.971  -1.251  -6.584  0.00  0.00    +0.046 A 
ATOM     32  C   UNL     1       8.761  -1.727  -7.611  0.00  0.00    +0.007 A 
ATOM     33  C   UNL     1       8.615  -1.222  -8.890  0.00  0.00    -0.045 A 
ATOM     34  C   UNL     1       7.676  -0.238  -9.143  0.00  0.00    +0.007 A 
ATOM     35  C   UNL     1       6.879   0.237  -8.121  0.00  0.00    +0.046 A 
BRANCH  33  36
ATOM     36  C   UNL     1       9.479  -1.743 -10.009  0.00  0.00    +0.013 C 
ATOM     37  C   UNL     1       8.592  -2.350 -11.098  0.00  0.00    +0.012 C 
ATOM     38  C   UNL     1      10.297  -0.593 -10.599  0.00  0.00    +0.012 C 
ENDBRANCH  33  36
ENDBRANCH  29  30
ENDBRANCH  28  29
ENDBRANCH  11  28
TORSDOF 10
