REMARK  Name = ZINC02944437
REMARK  12 active torsions:
REMARK  status: ('A' for Active; 'I' for Inactive)
REMARK    1  A    between atoms: C_1  and  N_56
REMARK    2  A    between atoms: C_2  and  N_56
REMARK    3  A    between atoms: C_8  and  O_28
REMARK    4  A    between atoms: C_9  and  O_26
REMARK    5  A    between atoms: C_10  and  O_24
REMARK    6  A    between atoms: C_17  and  N_20
REMARK    7  A    between atoms: N_20  and  C_21
REMARK    8  A    between atoms: C_21  and  C_22
REMARK    9  A    between atoms: C_22  and  O_23
REMARK   10  A    between atoms: O_24  and  C_25
REMARK   11  A    between atoms: O_26  and  C_27
REMARK   12  A    between atoms: O_28  and  C_29
REMARK                            x       y       z     vdW  Elec       q    Type
REMARK                         _______ _______ _______ _____ _____    ______ ____
ROOT
ATOM      1  C   UNL     1      -2.916   7.179  -4.958  0.00  0.00    -0.040 C 
ATOM      2  C   UNL     1      -2.092   7.551  -6.174  0.00  0.00    -0.007 C 
ATOM      3  C   UNL     1      -1.834   6.333  -7.056  0.00  0.00    +0.035 C 
ATOM      4  C   UNL     1      -3.105   5.537  -7.207  0.00  0.00    -0.033 A 
ATOM      5  C   UNL     1      -3.822   5.593  -8.384  0.00  0.00    +0.054 A 
ATOM      6  C   UNL     1      -4.980   4.840  -8.529  0.00  0.00    +0.165 A 
ATOM      7  C   UNL     1      -5.424   4.027  -7.492  0.00  0.00    +0.204 A 
ATOM      8  C   UNL     1      -4.710   3.970  -6.302  0.00  0.00    +0.173 A 
ATOM      9  C   UNL     1      -3.547   4.733  -6.162  0.00  0.00    +0.031 A 
ATOM     10  C   UNL     1      -2.780   4.683  -4.880  0.00  0.00    -0.012 A 
ATOM     11  C   UNL     1      -2.416   5.903  -4.311  0.00  0.00    -0.050 A 
ATOM     12  C   UNL     1      -1.651   6.051  -3.215  0.00  0.00    +0.055 A 
ATOM     13  C   UNL     1      -1.074   5.160  -2.358  0.00  0.00    +0.200 A 
ATOM     14  O   UNL     1      -0.386   5.646  -1.470  0.00  0.00    -0.286 OA
ATOM     15  C   UNL     1      -1.159   3.770  -2.364  0.00  0.00    +0.075 A 
ATOM     16  C   UNL     1      -1.817   3.023  -3.295  0.00  0.00    +0.027 A 
ATOM     17  C   UNL     1      -2.497   3.438  -4.379  0.00  0.00    +0.011 A 
ENDROOT
BRANCH   1  19
ATOM     18  C   UNL     1      -3.737   9.375  -4.353  0.00  0.00    -0.100 C 
ATOM     19  N   UNL     1      -2.837   8.271  -3.969  0.00  0.00    +0.382 N 
ATOM     20  H   UNL     1      -3.114   7.914  -3.047  0.00  0.00    -0.085 HD
ATOM     21  H   UNL     1      -1.872   8.620  -3.926  0.00  0.00    -0.085 HD
ENDBRANCH   1  19
BRANCH  15  22
ATOM     22  N   UNL     1      -0.526   3.090  -1.337  0.00  0.00    -0.339 N 
ATOM     23  H   UNL     1      -0.046   3.583  -0.653  0.00  0.00    +0.146 HD
BRANCH  22  24
ATOM     24  C   UNL     1      -0.583   1.627  -1.283  0.00  0.00    +0.129 C 
BRANCH  24  25
ATOM     25  C   UNL     1       0.190   1.132  -0.059  0.00  0.00    +0.174 C 
BRANCH  25  26
ATOM     26  O   UNL     1      -0.464   1.580   1.131  0.00  0.00    -0.393 OA
ATOM     27  H   UNL     1      -0.027   1.302   1.948  0.00  0.00    +0.209 HD
ENDBRANCH  25  26
ENDBRANCH  24  25
ENDBRANCH  22  24
ENDBRANCH  15  22
BRANCH   8  28
ATOM     28  O   UNL     1      -5.137   3.178  -5.283  0.00  0.00    -0.491 OA
ATOM     29  C   UNL     1      -6.031   3.766  -4.336  0.00  0.00    +0.277 C 
ENDBRANCH   8  28
BRANCH   7  30
ATOM     30  O   UNL     1      -6.556   3.287  -7.643  0.00  0.00    -0.488 OA
ATOM     31  C   UNL     1      -6.405   1.970  -8.175  0.00  0.00    +0.277 C 
ENDBRANCH   7  30
BRANCH   6  32
ATOM     32  O   UNL     1      -5.683   4.898  -9.691  0.00  0.00    -0.491 OA
ATOM     33  C   UNL     1      -5.173   5.753 -10.716  0.00  0.00    +0.277 C 
ENDBRANCH   6  32
TORSDOF 8
