REMARK  Name = ZINC35671334
REMARK  13 active torsions:
REMARK  status: ('A' for Active; 'I' for Inactive)
REMARK    1  A    between atoms: C_1  and  C_2
REMARK    2  A    between atoms: C_2  and  C_3
REMARK    3  A    between atoms: C_2  and  C_4
REMARK    4  A    between atoms: C_2  and  C_5
REMARK    5  A    between atoms: C_8  and  C_11
REMARK    6  A    between atoms: C_11  and  C_13
REMARK    7  A    between atoms: C_11  and  N_31
REMARK    8  A    between atoms: C_13  and  N_14
REMARK    9  A    between atoms: N_14  and  C_15
REMARK   10  A    between atoms: C_16  and  C_29
REMARK   11  A    between atoms: C_18  and  C_20
REMARK   12  A    between atoms: C_20  and  O_21
REMARK   13  A    between atoms: O_21  and  C_22
REMARK                            x       y       z     vdW  Elec       q    Type
REMARK                         _______ _______ _______ _____ _____    ______ ____
ROOT
ATOM      1  C   UNL     1       2.683  -0.640  -5.646  0.00  0.00    +0.094 C 
ENDROOT
BRANCH   1   2
ATOM      2  N   UNL     1       1.325  -0.429  -6.155  0.00  0.00    -0.314 N 
ATOM      3  H   UNL     1       0.599  -0.994  -5.848  0.00  0.00    +0.149 HD
BRANCH   2   4
ATOM      4  C   UNL     1       1.080   0.573  -7.071  0.00  0.00    +0.225 A 
ATOM      5  C   UNL     1      -0.141   0.897  -7.636  0.00  0.00    +0.201 A 
ATOM      6  N   UNL     1       0.082   1.944  -8.480  0.00  0.00    -0.198 NA
ATOM      7  C   UNL     1       1.344   2.246  -8.442  0.00  0.00    +0.237 A 
ATOM      8  O   UNL     1       1.980   1.431  -7.585  0.00  0.00    -0.421 OA
BRANCH   5   9
ATOM      9  C   UNL     1      -1.397   0.256  -7.384  0.00  0.00    +0.124 C 
ATOM     10  N   UNL     1      -2.393  -0.253  -7.184  0.00  0.00    -0.189 NA
ENDBRANCH   5   9
BRANCH   7  11
ATOM     11  C   UNL     1       1.995   3.350  -9.234  0.00  0.00    +0.324 C 
BRANCH  11  12
ATOM     12  O   UNL     1       1.964   4.562  -8.477  0.00  0.00    -0.483 OA
BRANCH  12  13
ATOM     13  C   UNL     1       2.515   5.663  -9.052  0.00  0.00    +0.121 A 
ATOM     14  C   UNL     1       3.069   5.581 -10.321  0.00  0.00    +0.047 A 
ATOM     15  C   UNL     1       3.629   6.701 -10.904  0.00  0.00    +0.023 A 
ATOM     16  C   UNL     1       3.638   7.905 -10.223  0.00  0.00    +0.041 A 
ATOM     17  C   UNL     1       3.086   7.990  -8.956  0.00  0.00    +0.023 A 
ATOM     18  C   UNL     1       2.520   6.873  -8.373  0.00  0.00    +0.047 A 
ATOM     19 CL   UNL     1       4.342   9.312 -10.957  0.00  0.00    -0.084 Cl
ENDBRANCH  12  13
ENDBRANCH  11  12
ENDBRANCH   7  11
ENDBRANCH   2   4
ENDBRANCH   1   2
BRANCH   1  20
ATOM     20  C   UNL     1       2.658  -1.714  -4.557  0.00  0.00    -0.020 C 
BRANCH  20  24
ATOM     21  C   UNL     1       0.430  -0.290  -1.201  0.00  0.00    -0.042 A 
ATOM     22  C   UNL     1      -0.161  -1.147  -2.110  0.00  0.00    +0.004 A 
ATOM     23  C   UNL     1       0.559  -1.608  -3.196  0.00  0.00    +0.002 A 
ATOM     24  C   UNL     1       1.872  -1.211  -3.373  0.00  0.00    -0.059 A 
ATOM     25  C   UNL     1       2.463  -0.353  -2.465  0.00  0.00    +0.002 A 
ATOM     26  C   UNL     1       1.741   0.111  -1.381  0.00  0.00    +0.004 A 
BRANCH  21  28
ATOM     27  C   UNL     1      -0.440   1.739  -0.072  0.00  0.00    +0.015 C 
ATOM     28  C   UNL     1      -0.355   0.212  -0.017  0.00  0.00    -0.013 C 
ATOM     29  C   UNL     1       0.342  -0.214   1.276  0.00  0.00    +0.015 C 
ATOM     30  C   UNL     1      -1.766  -0.379  -0.054  0.00  0.00    +0.015 C 
ENDBRANCH  21  28
ENDBRANCH  20  24
BRANCH  20  31
ATOM     31  N   UNL     1       4.032  -2.018  -4.138  0.00  0.00    +0.385 N 
ATOM     32  C   UNL     1       4.027  -3.071  -3.089  0.00  0.00    -0.078 C 
ATOM     33  C   UNL     1       5.457  -3.660  -3.171  0.00  0.00    -0.020 C 
ATOM     34  C   UNL     1       5.753  -3.641  -4.688  0.00  0.00    -0.020 C 
ATOM     35  C   UNL     1       4.798  -2.582  -5.271  0.00  0.00    -0.078 C 
ATOM     36  H   UNL     1       4.484  -1.185  -3.793  0.00  0.00    -0.081 HD
ENDBRANCH  20  31
ENDBRANCH   1  20
TORSDOF 10
