REMARK  Name = ZINC11869565
REMARK  10 active torsions:
REMARK  status: ('A' for Active; 'I' for Inactive)
REMARK    1  A    between atoms: C_1  and  C_2
REMARK    2  A    between atoms: C_6  and  C_8
REMARK    3  A    between atoms: C_13  and  C_14
REMARK    4  A    between atoms: C_14  and  O_16
REMARK    5  A    between atoms: O_16  and  C_17
REMARK    6  A    between atoms: C_19  and  C_22
REMARK    7  A    between atoms: C_22  and  N_23
REMARK    8  A    between atoms: C_24  and  C_26
REMARK    9  A    between atoms: C_26  and  C_27
REMARK   10  A    between atoms: C_30  and  C_36
REMARK                            x       y       z     vdW  Elec       q    Type
REMARK                         _______ _______ _______ _____ _____    ______ ____
ROOT
ATOM      1  C   UNL     1       1.935  -5.205  -2.349  0.00  0.00    +0.044 C 
ATOM      2  C   UNL     1       1.573  -4.361  -1.155  0.00  0.00    -0.049 A 
ATOM      3  C   UNL     1       2.442  -4.271  -0.080  0.00  0.00    +0.010 A 
ATOM      4  C   UNL     1       2.116  -3.501   1.015  0.00  0.00    -0.001 A 
ATOM      5  C   UNL     1       0.914  -2.810   1.067  0.00  0.00    +0.132 A 
ATOM      6  C   UNL     1       0.035  -2.898  -0.026  0.00  0.00    +0.025 A 
ATOM      7  C   UNL     1       0.373  -3.680  -1.128  0.00  0.00    +0.015 A 
ATOM      8  O   UNL     1       0.782  -2.134   2.240  0.00  0.00    -0.486 OA
ATOM      9  C   UNL     1       2.078  -1.977   2.843  0.00  0.00    +0.195 C 
ATOM     10  C   UNL     1       2.855  -3.202   2.305  0.00  0.00    +0.085 C 
ENDROOT
BRANCH   6  11
ATOM     11  C   UNL     1      -1.251  -2.166  -0.003  0.00  0.00    -0.000 A 
ATOM     12  C   UNL     1      -2.455  -2.865   0.011  0.00  0.00    +0.009 A 
ATOM     13  C   UNL     1      -3.652  -2.178   0.025  0.00  0.00    +0.001 A 
ATOM     14  C   UNL     1      -3.667  -0.793   0.033  0.00  0.00    +0.001 A 
ATOM     15  C   UNL     1      -2.486  -0.082   0.025  0.00  0.00    +0.015 A 
ATOM     16  C   UNL     1      -1.265  -0.759   0.010  0.00  0.00    +0.067 A 
BRANCH  16  17
ATOM     17  C   UNL     1       0.002  -0.004   0.002  0.00  0.00    +0.340 C 
ATOM     18  O   UNL     1       1.062  -0.597  -0.011  0.00  0.00    -0.245 OA
BRANCH  17  19
ATOM     19  O   UNL     1      -0.016   1.343   0.009  0.00  0.00    -0.464 OA
ATOM     20  C   UNL     1       1.268   2.020   0.001  0.00  0.00    +0.280 C 
ENDBRANCH  17  19
ENDBRANCH  16  17
ENDBRANCH   6  11
BRANCH   9  21
ATOM     21  C   UNL     1       1.979  -2.025   4.369  0.00  0.00    +0.149 C 
BRANCH  21  22
ATOM     22  N   UNL     1       1.239  -0.855   4.847  0.00  0.00    -0.312 N 
ATOM     23  C   UNL     1       1.028  -0.685   6.167  0.00  0.00    +0.215 C 
ATOM     24  O   UNL     1       1.449  -1.501   6.959  0.00  0.00    -0.276 OA
ATOM     25  H   UNL     1       0.902  -0.202   4.214  0.00  0.00    +0.149 HD
BRANCH  23  26
ATOM     26  C   UNL     1       0.267   0.519   6.660  0.00  0.00    +0.118 C 
BRANCH  26  27
ATOM     27  C   UNL     1       0.168   0.471   8.186  0.00  0.00    +0.082 C 
ATOM     28  C   UNL     1      -0.711   1.626   8.678  0.00  0.00    +0.044 C 
ATOM     29  C   UNL     1      -0.701   1.627  10.211  0.00  0.00    +0.071 C 
ATOM     30  N   UNL     1       0.683   1.696  10.682  0.00  0.00    -0.324 N 
ATOM     31  C   UNL     1       1.692   1.189   9.959  0.00  0.00    +0.131 C 
ATOM     32  S   UNL     1       3.284   1.295  10.581  0.00  0.00    -0.019 S 
ATOM     33  N   UNL     1       1.505   0.603   8.767  0.00  0.00    -0.323 N 
ATOM     34  C   UNL     1      -1.353   0.343  10.727  0.00  0.00    +0.028 C 
ATOM     35  H   UNL     1       0.874   2.117  11.535  0.00  0.00    +0.148 HD
ATOM     36  H   UNL     1       2.270   0.260   8.280  0.00  0.00    +0.148 HD
ENDBRANCH  26  27
ENDBRANCH  23  26
ENDBRANCH  21  22
ENDBRANCH   9  21
TORSDOF 7
