REMARK  Name = ZINC38850177
REMARK  14 active torsions:
REMARK  status: ('A' for Active; 'I' for Inactive)
REMARK    1  A    between atoms: C_1  and  C_2
REMARK    2  A    between atoms: C_2  and  N_3
REMARK    3  A    between atoms: N_3  and  C_4
REMARK    4  A    between atoms: N_3  and  C_6
REMARK    5  A    between atoms: C_4  and  C_5
REMARK    6  A    between atoms: C_6  and  C_7
REMARK    7  A    between atoms: C_7  and  N_8
REMARK    8  A    between atoms: C_12  and  C_19
REMARK    9  A    between atoms: C_13  and  C_18
REMARK   10  A    between atoms: C_20  and  C_22
REMARK   11  A    between atoms: C_25  and  S_28
REMARK   12  A    between atoms: S_28  and  N_31
REMARK   13  A    between atoms: N_31  and  C_32
REMARK   14  A    between atoms: N_31  and  C_33
REMARK                            x       y       z     vdW  Elec       q    Type
REMARK                         _______ _______ _______ _____ _____    ______ ____
ROOT
ATOM      1  N   UNL     1      -3.312  -4.342   0.741  0.00  0.00    -0.248 N 
ATOM      2  C   UNL     1      -3.605  -5.043   1.899  0.00  0.00    +0.168 A 
ATOM      3  N   UNL     1      -3.256  -6.263   2.233  0.00  0.00    -0.224 NA
ATOM      4  C   UNL     1      -3.616  -6.825   3.408  0.00  0.00    +0.083 A 
ATOM      5  C   UNL     1      -3.310  -8.120   3.886  0.00  0.00    -0.021 A 
ATOM      6  C   UNL     1      -3.758  -8.537   5.112  0.00  0.00    -0.045 A 
ATOM      7  C   UNL     1      -4.524  -7.713   5.923  0.00  0.00    +0.005 A 
ATOM      8  C   UNL     1      -4.843  -6.440   5.487  0.00  0.00    +0.017 A 
ATOM      9  C   UNL     1      -4.398  -6.013   4.261  0.00  0.00    +0.041 A 
ATOM     10  S   UNL     1      -4.548  -4.512   3.322  0.00  0.00    -0.052 S 
ATOM     11  C   UNL     1      -3.412  -9.925   5.589  0.00  0.00    +0.044 C 
ATOM     12  C   UNL     1      -2.481  -9.051   3.039  0.00  0.00    +0.046 C 
ATOM     13  C   UNL     1      -2.577  -4.921  -0.229  0.00  0.00    +0.252 C 
ATOM     14  O   UNL     1      -2.221  -6.077  -0.113  0.00  0.00    -0.270 OA
ENDROOT
BRANCH  13  15
ATOM     15  C   UNL     1      -2.205  -4.150  -1.434  0.00  0.00    +0.037 A 
ATOM     16  C   UNL     1      -2.024  -2.768  -1.354  0.00  0.00    +0.015 A 
ATOM     17  C   UNL     1      -1.677  -2.055  -2.482  0.00  0.00    +0.029 A 
ATOM     18  C   UNL     1      -1.508  -2.706  -3.691  0.00  0.00    +0.106 A 
ATOM     19  C   UNL     1      -1.686  -4.075  -3.778  0.00  0.00    +0.029 A 
ATOM     20  C   UNL     1      -2.027  -4.802  -2.656  0.00  0.00    +0.015 A 
BRANCH  18  21
ATOM     21  S   UNL     1      -1.066  -1.786  -5.128  0.00  0.00    +0.061 S 
ATOM     22  O   UNL     1      -1.608  -2.485  -6.240  0.00  0.00    -0.153 OA
ATOM     23  O   UNL     1      -1.382  -0.428  -4.854  0.00  0.00    -0.153 OA
BRANCH  21  24
ATOM     24  N   UNL     1       0.582  -1.869  -5.274  0.00  0.00    -0.177 NA
ATOM     25  C   UNL     1       1.191  -2.899  -6.119  0.00  0.00    +0.132 C 
BRANCH  24  26
ATOM     26  C   UNL     1       1.429  -0.913  -4.558  0.00  0.00    +0.080 C 
ATOM     27  C   UNL     1       2.934  -0.959  -4.832  0.00  0.00    +0.022 C 
ATOM     28  C   UNL     1       2.383  -1.469  -3.498  0.00  0.00    +0.022 C 
ENDBRANCH  24  26
ENDBRANCH  21  24
ENDBRANCH  18  21
ENDBRANCH  13  15
BRANCH   1  29
ATOM     29  C   UNL     1      -3.801  -2.972   0.571  0.00  0.00    +0.097 C 
BRANCH  29  30
ATOM     30  C   UNL     1      -2.935  -2.016   1.394  0.00  0.00    -0.059 C 
BRANCH  30  31
ATOM     31  N   UNL     1      -3.349  -0.631   1.131  0.00  0.00    +0.380 N 
ATOM     32  H   UNL     1      -3.302  -0.449   0.140  0.00  0.00    -0.082 HD
BRANCH  31  34
ATOM     33  C   UNL     1      -5.201   0.969   1.214  0.00  0.00    -0.017 C 
ATOM     34  C   UNL     1      -4.726  -0.433   1.600  0.00  0.00    -0.082 C 
ENDBRANCH  31  34
BRANCH  31  35
ATOM     35  C   UNL     1      -2.452   0.291   1.841  0.00  0.00    -0.082 C 
ATOM     36  C   UNL     1      -1.050   0.209   1.234  0.00  0.00    -0.017 C 
ENDBRANCH  31  35
ENDBRANCH  30  31
ENDBRANCH  29  30
ENDBRANCH   1  29
TORSDOF 9
