REMARK  Name = ZINC39634381
REMARK  8 active torsions:
REMARK  status: ('A' for Active; 'I' for Inactive)
REMARK    1  A    between atoms: C_1  and  C_2
REMARK    2  A    between atoms: C_5  and  C_8
REMARK    3  A    between atoms: C_8  and  N_9
REMARK    4  A    between atoms: C_10  and  C_12
REMARK    5  A    between atoms: C_23  and  C_25
REMARK    6  A    between atoms: C_26  and  C_36
REMARK    7  A    between atoms: C_29  and  C_30
REMARK    8  A    between atoms: C_32  and  C_35
REMARK                            x       y       z     vdW  Elec       q    Type
REMARK                         _______ _______ _______ _____ _____    ______ ____
ROOT
ATOM      1  C   UNL     1       3.137  -6.551  -0.051  0.00  0.00    +0.100 C 
ATOM      2  C   UNL     1       3.814  -6.202  -1.395  0.00  0.00    +0.121 C 
ATOM      3  N   UNL     1       4.682  -7.366  -1.691  0.00  0.00    -0.296 N 
ATOM      4  C   UNL     1       3.881  -8.540  -1.271  0.00  0.00    +0.115 C 
ATOM      5  C   UNL     1       3.183  -8.087   0.027  0.00  0.00    -0.004 C 
ATOM      6  C   UNL     1       3.990  -8.530   1.243  0.00  0.00    -0.010 C 
ATOM      7  C   UNL     1       3.973 -10.059   1.331  0.00  0.00    -0.082 C 
ATOM      8  N   UNL     1       2.587 -10.529   1.440  0.00  0.00    +0.379 N 
ATOM      9  C   UNL     1       1.841 -10.179   0.226  0.00  0.00    -0.082 C 
ATOM     10  C   UNL     1       1.768  -8.655   0.091  0.00  0.00    -0.010 C 
ATOM     11  C   UNL     1       5.921  -7.359  -2.222  0.00  0.00    +0.252 C 
ATOM     12  O   UNL     1       6.510  -8.407  -2.406  0.00  0.00    -0.270 OA
ATOM     13  H   UNL     1       2.581 -11.531   1.559  0.00  0.00    -0.086 HD
ATOM     14  H   UNL     1       2.148 -10.096   2.239  0.00  0.00    -0.086 HD
ENDROOT
BRANCH  11  15
ATOM     15  C   UNL     1       6.561  -6.082  -2.580  0.00  0.00    +0.108 A 
ATOM     16  C   UNL     1       7.380  -5.288  -1.739  0.00  0.00    +0.093 A 
ATOM     17  N   UNL     1       7.755  -4.240  -2.411  0.00  0.00    -0.082 NA
ATOM     18  O   UNL     1       7.201  -4.306  -3.710  0.00  0.00    -0.352 OA
ATOM     19  C   UNL     1       6.480  -5.435  -3.805  0.00  0.00    +0.201 A 
ATOM     20  C   UNL     1       7.752  -5.603  -0.313  0.00  0.00    +0.070 C 
BRANCH  19  21
ATOM     21  C   UNL     1       5.734  -5.901  -4.994  0.00  0.00    +0.152 A 
ATOM     22  C   UNL     1       5.658  -5.240  -6.245  0.00  0.00    +0.079 A 
ATOM     23  C   UNL     1       4.888  -5.980  -7.061  0.00  0.00    +0.135 A 
ATOM     24  O   UNL     1       4.481  -7.066  -6.386  0.00  0.00    -0.359 OA
ATOM     25  N   UNL     1       5.028  -7.005  -5.081  0.00  0.00    -0.075 NA
ATOM     26  C   UNL     1       4.541  -5.647  -8.489  0.00  0.00    +0.089 C 
ENDBRANCH  19  21
ENDBRANCH  11  15
BRANCH   1  28
ATOM     27  N   UNL     1       1.121  -5.733   1.125  0.00  0.00    -0.311 N 
ATOM     28  C   UNL     1       1.710  -6.067  -0.040  0.00  0.00    +0.218 C 
ATOM     29  O   UNL     1       1.092  -5.979  -1.080  0.00  0.00    -0.275 OA
ATOM     30  H   UNL     1       1.615  -5.803   1.956  0.00  0.00    +0.149 HD
BRANCH  27  31
ATOM     31  C   UNL     1      -0.267  -5.262   1.135  0.00  0.00    +0.139 C 
BRANCH  31  36
ATOM     32  C   UNL     1      -1.867  -4.091   6.563  0.00  0.00    +0.044 C 
ATOM     33  C   UNL     1      -1.449  -4.396   5.147  0.00  0.00    -0.050 A 
ATOM     34  C   UNL     1      -0.876  -3.410   4.367  0.00  0.00    +0.003 A 
ATOM     35  C   UNL     1      -0.493  -3.690   3.069  0.00  0.00    +0.005 A 
ATOM     36  C   UNL     1      -0.683  -4.957   2.550  0.00  0.00    -0.030 A 
ATOM     37  C   UNL     1      -1.256  -5.944   3.331  0.00  0.00    +0.005 A 
ATOM     38  C   UNL     1      -1.635  -5.665   4.630  0.00  0.00    +0.003 A 
ENDBRANCH  31  36
ENDBRANCH  27  31
ENDBRANCH   1  28
TORSDOF 5
