REMARK  Name = ZINC46950338
REMARK  12 active torsions:
REMARK  status: ('A' for Active; 'I' for Inactive)
REMARK    1  A    between atoms: C_1  and  C_2
REMARK    2  A    between atoms: C_2  and  C_3
REMARK    3  A    between atoms: C_3  and  C_4
REMARK    4  A    between atoms: C_3  and  C_6
REMARK    5  A    between atoms: C_3  and  N_21
REMARK    6  A    between atoms: C_4  and  C_5
REMARK    7  A    between atoms: C_6  and  N_7
REMARK    8  A    between atoms: N_10  and  N_11
REMARK    9  A    between atoms: C_12  and  C_14
REMARK   10  A    between atoms: N_18  and  C_19
REMARK   11  A    between atoms: N_21  and  C_22
REMARK   12  A    between atoms: N_21  and  C_23
REMARK                            x       y       z     vdW  Elec       q    Type
REMARK                         _______ _______ _______ _____ _____    ______ ____
ROOT
ATOM      1  N   UNL     1       2.687  -0.170   2.459  0.00  0.00    -0.300 N 
ATOM      2  C   UNL     1       3.914   0.303   2.755  0.00  0.00    +0.316 C 
ATOM      3  O   UNL     1       4.459   1.091   2.006  0.00  0.00    -0.251 OA
ATOM      4  N   UNL     1       4.538  -0.097   3.881  0.00  0.00    -0.218 N 
ATOM      5  H   UNL     1       2.253  -0.798   3.057  0.00  0.00    +0.150 HD
ATOM      6  H   UNL     1       5.421   0.243   4.093  0.00  0.00    +0.174 HD
ENDROOT
BRANCH   4   7
ATOM      7  N   UNL     1       3.910  -1.005   4.744  0.00  0.00    -0.228 N 
ATOM      8  C   UNL     1       4.534  -1.405   5.870  0.00  0.00    +0.277 C 
ATOM      9  O   UNL     1       5.600  -0.910   6.184  0.00  0.00    -0.267 OA
ATOM     10  H   UNL     1       3.027  -1.345   4.531  0.00  0.00    +0.173 HD
BRANCH   8  11
ATOM     11  C   UNL     1       3.927  -2.438   6.716  0.00  0.00    +0.107 A 
ATOM     12  C   UNL     1       2.780  -3.150   6.437  0.00  0.00    +0.047 A 
ATOM     13  C   UNL     1       2.568  -4.025   7.508  0.00  0.00    +0.036 A 
ATOM     14  C   UNL     1       3.568  -3.836   8.403  0.00  0.00    +0.101 A 
ATOM     15  N   UNL     1       4.403  -2.877   7.931  0.00  0.00    -0.345 N 
ATOM     16  C   UNL     1       5.610  -2.389   8.602  0.00  0.00    +0.149 C 
ATOM     17 BR   UNL     1       1.139  -5.252   7.677  0.00  0.00    -0.049 Br
ENDBRANCH   8  11
ENDBRANCH   4   7
BRANCH   1  18
ATOM     18  C   UNL     1       2.010   0.266   1.236  0.00  0.00    +0.094 C 
BRANCH  18  19
ATOM     19  C   UNL     1       0.585  -0.292   1.216  0.00  0.00    -0.051 C 
BRANCH  19  20
ATOM     20  N   UNL     1       0.625  -1.746   1.423  0.00  0.00    +0.381 N 
ATOM     21  C   UNL     1      -0.729  -2.298   1.287  0.00  0.00    -0.096 C 
ATOM     22  C   UNL     1       1.506  -2.359   0.419  0.00  0.00    -0.096 C 
ATOM     23  H   UNL     1       0.979  -1.944   2.347  0.00  0.00    -0.082 HD
ENDBRANCH  19  20
BRANCH  19  25
ATOM     24  C   UNL     1       0.325  -0.069   3.691  0.00  0.00    +0.002 C 
ATOM     25  C   UNL     1      -0.234   0.359   2.332  0.00  0.00    -0.014 C 
ENDBRANCH  19  25
BRANCH  19  26
ATOM     26  C   UNL     1      -0.063   0.013  -0.136  0.00  0.00    -0.014 C 
ATOM     27  C   UNL     1       0.011   1.516  -0.410  0.00  0.00    +0.002 C 
ENDBRANCH  19  26
ENDBRANCH  18  19
ENDBRANCH   1  18
TORSDOF 7
