REMARK  Name = ZINC36206962
REMARK  14 active torsions:
REMARK  status: ('A' for Active; 'I' for Inactive)
REMARK    1  A    between atoms: C_1  and  C_2
REMARK    2  A    between atoms: C_8  and  C_17
REMARK    3  A    between atoms: C_12  and  C_13
REMARK    4  A    between atoms: C_13  and  O_15
REMARK    5  A    between atoms: O_15  and  C_16
REMARK    6  A    between atoms: C_17  and  N_18
REMARK    7  A    between atoms: N_18  and  C_19
REMARK    8  A    between atoms: N_18  and  C_32
REMARK    9  A    between atoms: C_19  and  C_20
REMARK   10  A    between atoms: C_20  and  C_22
REMARK   11  A    between atoms: C_20  and  O_31
REMARK   12  A    between atoms: C_22  and  O_23
REMARK   13  A    between atoms: O_23  and  C_24
REMARK   14  A    between atoms: C_24  and  C_25
REMARK                            x       y       z     vdW  Elec       q    Type
REMARK                         _______ _______ _______ _____ _____    ______ ____
ROOT
ATOM      1  N   UNL     1      -0.228  -4.672  -4.125  0.00  0.00    +0.388 N 
ATOM      2  H   UNL     1      -1.076  -5.032  -3.714  0.00  0.00    -0.081 HD
ENDROOT
BRANCH   1   3
ATOM      3  C   UNL     1       0.860  -4.740  -3.139  0.00  0.00    -0.068 C 
ATOM      4  C   UNL     1       0.544  -3.809  -1.967  0.00  0.00    -0.015 C 
ATOM      5  C   UNL     1       1.677  -3.880  -0.941  0.00  0.00    -0.002 C 
ATOM      6  C   UNL     1       2.989  -3.446  -1.598  0.00  0.00    -0.000 C 
ATOM      7  C   UNL     1       3.304  -4.376  -2.770  0.00  0.00    -0.002 C 
ATOM      8  C   UNL     1       2.171  -4.306  -3.797  0.00  0.00    -0.015 C 
ENDBRANCH   1   3
BRANCH   1   9
ATOM      9  C   UNL     1      -0.434  -3.276  -4.531  0.00  0.00    -0.003 C 
BRANCH   9  17
ATOM     10  C   UNL     1      -4.172   0.551  -0.576  0.00  0.00    +0.046 C 
ATOM     11  C   UNL     1      -3.808  -0.908  -0.665  0.00  0.00    -0.015 A 
ATOM     12  C   UNL     1      -2.958  -1.357  -1.678  0.00  0.00    +0.076 A 
ATOM     13  C   UNL     1      -2.305  -0.586  -2.761  0.00  0.00    +0.260 A 
ATOM     14  O   UNL     1      -2.474   0.616  -2.863  0.00  0.00    -0.267 OA
ATOM     15  N   UNL     1      -1.519  -1.250  -3.632  0.00  0.00    -0.312 N 
ATOM     16  H   UNL     1      -1.084  -0.760  -4.347  0.00  0.00    +0.170 HD
ATOM     17  C   UNL     1      -1.324  -2.587  -3.529  0.00  0.00    +0.094 A 
ATOM     18  N   UNL     1      -1.884  -3.296  -2.586  0.00  0.00    -0.229 NA
ATOM     19  C   UNL     1      -2.677  -2.742  -1.677  0.00  0.00    +0.116 A 
ATOM     20  S   UNL     1      -3.596  -3.345  -0.284  0.00  0.00    -0.062 S 
ATOM     21  C   UNL     1      -4.302  -1.794   0.248  0.00  0.00    +0.102 A 
BRANCH  21  22
ATOM     22  C   UNL     1      -5.194  -1.537   1.381  0.00  0.00    +0.346 C 
ATOM     23  O   UNL     1      -5.587  -0.407   1.601  0.00  0.00    -0.244 OA
BRANCH  22  24
ATOM     24  O   UNL     1      -5.578  -2.553   2.182  0.00  0.00    -0.464 OA
ATOM     25  C   UNL     1      -6.448  -2.229   3.268  0.00  0.00    +0.280 C 
ENDBRANCH  22  24
ENDBRANCH  21  22
ENDBRANCH   9  17
ENDBRANCH   1   9
BRANCH   1  26
ATOM     26  C   UNL     1       0.127  -5.478  -5.301  0.00  0.00    -0.044 C 
BRANCH  26  27
ATOM     27  C   UNL     1       0.153  -6.958  -4.917  0.00  0.00    +0.124 C 
BRANCH  27  28
ATOM     28  O   UNL     1       1.271  -7.209  -4.064  0.00  0.00    -0.391 OA
ATOM     29  H   UNL     1       2.122  -6.949  -4.443  0.00  0.00    +0.210 HD
ENDBRANCH  27  28
BRANCH  27  30
ATOM     30  C   UNL     1       0.274  -7.811  -6.181  0.00  0.00    +0.189 C 
BRANCH  30  31
ATOM     31  O   UNL     1       0.181  -9.194  -5.833  0.00  0.00    -0.373 OA
BRANCH  31  32
ATOM     32  C   UNL     1       0.283 -10.082  -6.948  0.00  0.00    +0.195 C 
BRANCH  32  33
ATOM     33  C   UNL     1       0.173 -11.506  -6.468  0.00  0.00    -0.022 A 
ATOM     34  C   UNL     1       1.309 -12.201  -6.099  0.00  0.00    +0.006 A 
ATOM     35  C   UNL     1       1.208 -13.508  -5.659  0.00  0.00    +0.000 A 
ATOM     36  C   UNL     1      -0.030 -14.119  -5.587  0.00  0.00    +0.000 A 
ATOM     37  C   UNL     1      -1.166 -13.424  -5.955  0.00  0.00    +0.000 A 
ATOM     38  C   UNL     1      -1.066 -12.116  -6.391  0.00  0.00    +0.006 A 
ENDBRANCH  32  33
ENDBRANCH  31  32
ENDBRANCH  30  31
ENDBRANCH  27  30
ENDBRANCH  26  27
ENDBRANCH   1  26
TORSDOF 12
