REMARK  Name = ZINC15023514
REMARK  12 active torsions:
REMARK  status: ('A' for Active; 'I' for Inactive)
REMARK    1  A    between atoms: C_1  and  C_2
REMARK    2  A    between atoms: C_13  and  C_33
REMARK    3  A    between atoms: C_15  and  C_23
REMARK    4  A    between atoms: C_17  and  C_18
REMARK    5  A    between atoms: C_17  and  C_20
REMARK    6  A    between atoms: C_26  and  O_31
REMARK    7  A    between atoms: C_27  and  O_29
REMARK    8  A    between atoms: O_29  and  C_30
REMARK    9  A    between atoms: O_31  and  C_32
REMARK   10  A    between atoms: C_33  and  C_35
REMARK   11  A    between atoms: C_39  and  O_41
REMARK   12  A    between atoms: O_41  and  C_42
REMARK                            x       y       z     vdW  Elec       q    Type
REMARK                         _______ _______ _______ _____ _____    ______ ____
ROOT
ATOM      1  C   UNL     1      -5.471   4.629   4.581  0.00  0.00    +0.044 C 
ATOM      2  C   UNL     1      -4.619   3.965   3.530  0.00  0.00    -0.050 A 
ATOM      3  C   UNL     1      -4.774   4.312   2.199  0.00  0.00    +0.005 A 
ATOM      4  C   UNL     1      -3.998   3.714   1.222  0.00  0.00    +0.024 A 
ATOM      5  C   UNL     1      -3.059   2.764   1.575  0.00  0.00    +0.038 A 
ATOM      6  C   UNL     1      -2.903   2.405   2.932  0.00  0.00    -0.004 A 
ATOM      7  C   UNL     1      -3.687   3.015   3.901  0.00  0.00    +0.013 A 
ATOM      8  C   UNL     1      -1.900   1.370   3.280  0.00  0.00    +0.007 C 
ATOM      9  C   UNL     1      -0.873   1.188   2.430  0.00  0.00    -0.002 C 
ATOM     10  C   UNL     1      -0.857   2.061   1.214  0.00  0.00    +0.127 C 
ATOM     11  N   UNL     1      -2.244   2.127   0.671  0.00  0.00    -0.310 N 
ATOM     12  C   UNL     1      -2.069   2.717  -0.661  0.00  0.00    +0.155 C 
ATOM     13  C   UNL     1      -0.814   1.990  -1.216  0.00  0.00    +0.078 C 
ATOM     14  C   UNL     1      -0.039   1.515   0.041  0.00  0.00    +0.163 C 
ENDROOT
BRANCH  13  15
ATOM     15  C   UNL     1       0.032   2.940  -2.024  0.00  0.00    -0.036 A 
ATOM     16  C   UNL     1       0.604   4.042  -1.415  0.00  0.00    +0.008 A 
ATOM     17  C   UNL     1       1.381   4.917  -2.152  0.00  0.00    +0.049 A 
ATOM     18  C   UNL     1       1.586   4.691  -3.504  0.00  0.00    +0.161 A 
ATOM     19  C   UNL     1       1.009   3.582  -4.117  0.00  0.00    +0.162 A 
ATOM     20  C   UNL     1       0.237   2.706  -3.371  0.00  0.00    +0.053 A 
BRANCH  19  21
ATOM     21  O   UNL     1       1.207   3.357  -5.443  0.00  0.00    -0.491 OA
ATOM     22  C   UNL     1       0.585   2.199  -6.004  0.00  0.00    +0.277 C 
ENDBRANCH  19  21
BRANCH  18  23
ATOM     23  O   UNL     1       2.349   5.551  -4.231  0.00  0.00    -0.491 OA
ATOM     24  C   UNL     1       2.909   6.667  -3.536  0.00  0.00    +0.277 C 
ENDBRANCH  18  23
ENDBRANCH  13  15
BRANCH  14  25
ATOM     25  C   UNL     1       1.353   2.092   0.053  0.00  0.00    +0.233 C 
ATOM     26  O   UNL     1       1.668   2.896   0.904  0.00  0.00    -0.274 OA
ATOM     27  N   UNL     1       2.247   1.715  -0.882  0.00  0.00    -0.328 N 
ATOM     28  H   UNL     1       1.994   1.071  -1.563  0.00  0.00    +0.145 HD
ATOM     29  H   UNL     1       3.143   2.086  -0.874  0.00  0.00    +0.145 HD
ENDBRANCH  14  25
BRANCH  14  30
ATOM     30  C   UNL     1       0.013   0.044   0.089  0.00  0.00    +0.082 C 
ATOM     31  N   UNL     1       0.053  -1.090   0.127  0.00  0.00    -0.195 NA
ENDBRANCH  14  30
BRANCH  12  32
ATOM     32  C   UNL     1      -1.820   4.200  -0.556  0.00  0.00    +0.184 C 
ATOM     33  O   UNL     1      -1.536   4.693   0.515  0.00  0.00    -0.290 OA
BRANCH  32  34
ATOM     34  C   UNL     1      -1.921   5.050  -1.754  0.00  0.00    +0.023 A 
ATOM     35  C   UNL     1      -2.248   4.485  -2.991  0.00  0.00    +0.011 A 
ATOM     36  C   UNL     1      -2.342   5.285  -4.110  0.00  0.00    +0.004 A 
ATOM     37  C   UNL     1      -2.113   6.646  -4.014  0.00  0.00    +0.045 A 
ATOM     38  C   UNL     1      -1.788   7.217  -2.791  0.00  0.00    +0.121 A 
ATOM     39  C   UNL     1      -1.697   6.426  -1.659  0.00  0.00    +0.057 A 
BRANCH  38  40
ATOM     40  O   UNL     1      -1.565   8.555  -2.704  0.00  0.00    -0.495 OA
ATOM     41  C   UNL     1      -1.683   9.312  -3.911  0.00  0.00    +0.277 C 
ENDBRANCH  38  40
ENDBRANCH  32  34
ENDBRANCH  12  32
TORSDOF 8
