REMARK  Name = ZINC06643703
REMARK  8 active torsions:
REMARK  status: ('A' for Active; 'I' for Inactive)
REMARK    1  A    between atoms: C_1  and  C_2
REMARK    2  A    between atoms: C_2  and  C_4
REMARK    3  A    between atoms: C_2  and  O_16
REMARK    4  A    between atoms: N_6  and  C_7
REMARK    5  A    between atoms: C_10  and  C_13
REMARK    6  A    between atoms: O_16  and  C_17
REMARK    7  A    between atoms: C_17  and  C_19
REMARK    8  A    between atoms: C_24  and  O_25
REMARK                            x       y       z     vdW  Elec       q    Type
REMARK                         _______ _______ _______ _____ _____    ______ ____
ROOT
ATOM      1  C   UNL     1       2.400  -2.740  -0.137  0.00  0.00    +0.258 C 
ATOM      2  O   UNL     1       3.445  -2.125  -0.144  0.00  0.00    -0.271 OA
ATOM      3  N   UNL     1       1.231  -2.079  -0.021  0.00  0.00    -0.282 N 
ATOM      4  H   UNL     1       0.400  -2.574   0.062  0.00  0.00    +0.155 HD
ENDROOT
BRANCH   3   5
ATOM      5  C   UNL     1       1.215  -0.685  -0.019  0.00  0.00    +0.034 A 
ATOM      6  C   UNL     1       2.141   0.021  -0.780  0.00  0.00    +0.024 A 
ATOM      7  C   UNL     1       2.128   1.397  -0.781  0.00  0.00    +0.015 A 
ATOM      8  C   UNL     1       1.183   2.086  -0.015  0.00  0.00    +0.037 A 
ATOM      9  C   UNL     1       0.255   1.374   0.749  0.00  0.00    +0.015 A 
ATOM     10  C   UNL     1       0.273  -0.002   0.745  0.00  0.00    +0.024 A 
BRANCH   8  11
ATOM     11  C   UNL     1       1.167   3.562  -0.013  0.00  0.00    +0.242 C 
ATOM     12  O   UNL     1       1.976   4.180  -0.677  0.00  0.00    -0.270 OA
ATOM     13  N   UNL     1       0.255   4.224   0.726  0.00  0.00    -0.325 N 
ATOM     14  H   UNL     1      -0.391   3.731   1.256  0.00  0.00    +0.145 HD
ATOM     15  H   UNL     1       0.244   5.194   0.728  0.00  0.00    +0.145 HD
ENDBRANCH   8  11
ENDBRANCH   3   5
BRANCH   1  17
ATOM     16  C   UNL     1       1.872  -4.861   1.034  0.00  0.00    +0.062 C 
ATOM     17  C   UNL     1       2.408  -4.242  -0.259  0.00  0.00    +0.259 C 
BRANCH  17  18
ATOM     18  O   UNL     1       3.766  -4.701  -0.489  0.00  0.00    -0.449 OA
BRANCH  18  19
ATOM     19  C   UNL     1       3.915  -5.830  -1.210  0.00  0.00    +0.343 C 
ATOM     20  O   UNL     1       2.938  -6.415  -1.633  0.00  0.00    -0.245 OA
BRANCH  19  21
ATOM     21  C   UNL     1       5.265  -6.356  -1.483  0.00  0.00    +0.101 A 
ATOM     22  C   UNL     1       6.392  -5.688  -0.997  0.00  0.00    +0.034 A 
ATOM     23  C   UNL     1       7.651  -6.185  -1.256  0.00  0.00    +0.019 A 
ATOM     24  C   UNL     1       7.805  -7.347  -1.997  0.00  0.00    +0.019 A 
ATOM     25  C   UNL     1       6.700  -8.017  -2.482  0.00  0.00    +0.047 A 
ATOM     26  C   UNL     1       5.425  -7.534  -2.227  0.00  0.00    +0.131 A 
ATOM     27 BR   UNL     1       9.175  -5.280  -0.598  0.00  0.00    -0.050 Br
BRANCH  26  28
ATOM     28  O   UNL     1       4.338  -8.194  -2.699  0.00  0.00    -0.506 OA
ATOM     29  H   UNL     1       4.058  -7.911  -3.580  0.00  0.00    +0.292 HD
ENDBRANCH  26  28
ENDBRANCH  19  21
ENDBRANCH  18  19
ENDBRANCH  17  18
ENDBRANCH   1  17
TORSDOF 7
