REMARK  Name = ZINC03529818
REMARK  7 active torsions:
REMARK  status: ('A' for Active; 'I' for Inactive)
REMARK    1  A    between atoms: C_1  and  O_2
REMARK    2  A    between atoms: O_2  and  C_3
REMARK    3  A    between atoms: C_6  and  C_9
REMARK    4  A    between atoms: C_14  and  C_26
REMARK    5  A    between atoms: N_16  and  C_19
REMARK    6  A    between atoms: C_29  and  O_32
REMARK    7  A    between atoms: O_32  and  C_33
REMARK                            x       y       z     vdW  Elec       q    Type
REMARK                         _______ _______ _______ _____ _____    ______ ____
ROOT
ATOM      1  C   UNL     1       6.065   3.259   0.208  0.00  0.00    +0.141 C 
ATOM      2  C   UNL     1       4.736   3.921  -0.069  0.00  0.00    +0.075 C 
ATOM      3  C   UNL     1       4.739   5.219  -0.499  0.00  0.00    +0.101 C 
ATOM      4  N   UNL     1       3.536   5.810  -0.805  0.00  0.00    -0.310 N 
ATOM      5  C   UNL     1       2.331   5.350  -0.109  0.00  0.00    +0.198 C 
ATOM      6  N   UNL     1       2.356   3.888   0.001  0.00  0.00    -0.244 N 
ATOM      7  C   UNL     1       3.530   3.232   0.088  0.00  0.00    +0.254 C 
ATOM      8  O   UNL     1       3.540   2.033   0.307  0.00  0.00    -0.270 OA
ATOM      9  N   UNL     1       5.917   5.904  -0.637  0.00  0.00    -0.285 N 
ATOM     10  C   UNL     1       7.117   5.362  -0.392  0.00  0.00    +0.136 C 
ATOM     11  S   UNL     1       8.514   6.329  -0.605  0.00  0.00    -0.019 S 
ATOM     12  N   UNL     1       7.269   4.086   0.013  0.00  0.00    -0.315 N 
ATOM     13  H   UNL     1       3.484   6.514  -1.470  0.00  0.00    +0.149 HD
ATOM     14  H   UNL     1       5.880   6.830  -0.925  0.00  0.00    +0.155 HD
ATOM     15  H   UNL     1       8.153   3.720   0.174  0.00  0.00    +0.149 HD
ENDROOT
BRANCH   6  16
ATOM     16  C   UNL     1       1.155   3.171   0.008  0.00  0.00    +0.039 A 
ATOM     17  C   UNL     1       0.265   3.292  -1.052  0.00  0.00    +0.025 A 
ATOM     18  C   UNL     1      -0.919   2.582  -1.043  0.00  0.00    +0.022 A 
ATOM     19  C   UNL     1      -1.223   1.754   0.024  0.00  0.00    +0.041 A 
ATOM     20  C   UNL     1      -0.336   1.627   1.078  0.00  0.00    +0.022 A 
ATOM     21  C   UNL     1       0.850   2.335   1.074  0.00  0.00    +0.025 A 
ATOM     22 CL   UNL     1      -2.715   0.868   0.035  0.00  0.00    -0.084 Cl
ENDBRANCH   6  16
BRANCH   1  26
ATOM     23  C   UNL     1       6.042   1.893   4.258  0.00  0.00    +0.120 A 
ATOM     24  C   UNL     1       5.796   1.002   3.222  0.00  0.00    +0.046 A 
ATOM     25  C   UNL     1       5.804   1.447   1.914  0.00  0.00    +0.009 A 
ATOM     26  C   UNL     1       6.057   2.777   1.636  0.00  0.00    -0.022 A 
ATOM     27  C   UNL     1       6.308   3.665   2.666  0.00  0.00    +0.009 A 
ATOM     28  C   UNL     1       6.296   3.227   3.976  0.00  0.00    +0.046 A 
BRANCH  23  30
ATOM     29  C   UNL     1       6.296   2.430   6.559  0.00  0.00    +0.277 C 
ATOM     30  O   UNL     1       6.034   1.458   5.545  0.00  0.00    -0.495 OA
ENDBRANCH  23  30
ENDBRANCH   1  26
BRANCH   5  31
ATOM     31  C   UNL     1       2.291   5.957   1.270  0.00  0.00    -0.009 A 
ATOM     32  C   UNL     1       1.678   5.276   2.306  0.00  0.00    +0.010 A 
ATOM     33  C   UNL     1       1.645   5.828   3.572  0.00  0.00    +0.046 A 
ATOM     34  C   UNL     1       2.218   7.070   3.801  0.00  0.00    +0.120 A 
ATOM     35  C   UNL     1       2.828   7.753   2.759  0.00  0.00    +0.046 A 
ATOM     36  C   UNL     1       2.862   7.195   1.496  0.00  0.00    +0.010 A 
BRANCH  34  37
ATOM     37  O   UNL     1       2.183   7.617   5.045  0.00  0.00    -0.495 OA
ATOM     38  C   UNL     1       1.539   6.857   6.070  0.00  0.00    +0.277 C 
ENDBRANCH  34  37
ENDBRANCH   5  31
TORSDOF 5
