REMARK  Name = ZINC33302237
REMARK  9 active torsions:
REMARK  status: ('A' for Active; 'I' for Inactive)
REMARK    1  A    between atoms: C_1  and  C_2
REMARK    2  A    between atoms: C_2  and  C_3
REMARK    3  A    between atoms: C_2  and  O_4
REMARK    4  A    between atoms: O_4  and  C_5
REMARK    5  A    between atoms: C_5  and  C_6
REMARK    6  A    between atoms: C_6  and  C_7
REMARK    7  A    between atoms: C_7  and  N_8
REMARK    8  A    between atoms: C_9  and  C_11
REMARK    9  A    between atoms: N_26  and  C_27
REMARK                            x       y       z     vdW  Elec       q    Type
REMARK                         _______ _______ _______ _____ _____    ______ ____
ROOT
ATOM      1  C   UNL     1      -4.486   5.543   1.169  0.00  0.00    +0.078 C 
ATOM      2  C   UNL     1      -3.602   5.998   0.004  0.00  0.00    +0.032 C 
ATOM      3  C   UNL     1      -2.234   5.320   0.115  0.00  0.00    +0.108 C 
ATOM      4  N   UNL     1      -2.404   3.862   0.083  0.00  0.00    -0.301 N 
ATOM      5  C   UNL     1      -3.211   3.397   1.219  0.00  0.00    +0.108 C 
ATOM      6  C   UNL     1      -4.608   4.017   1.141  0.00  0.00    +0.032 C 
ATOM      7  C   UNL     1      -1.187   3.225   0.050  0.00  0.00    +0.206 A 
ATOM      8  N   UNL     1      -0.148   3.837   0.549  0.00  0.00    -0.215 NA
ATOM      9  C   UNL     1       1.098   3.264   0.551  0.00  0.00    +0.087 A 
ATOM     10  C   UNL     1       2.299   3.791   1.046  0.00  0.00    +0.036 A 
ATOM     11  C   UNL     1       3.442   3.076   0.961  0.00  0.00    +0.048 A 
ATOM     12  S   UNL     1       2.906   1.573   0.161  0.00  0.00    -0.090 S 
ATOM     13  C   UNL     1       1.189   1.980  -0.017  0.00  0.00    +0.103 A 
ATOM     14  C   UNL     1       0.074   1.336  -0.546  0.00  0.00    +0.274 A 
ATOM     15  O   UNL     1       0.169   0.223  -1.035  0.00  0.00    -0.266 OA
ATOM     16  N   UNL     1      -1.117   1.980  -0.510  0.00  0.00    -0.248 N 
ENDROOT
BRANCH  16  17
ATOM     17  C   UNL     1      -2.265   1.375  -1.037  0.00  0.00    +0.053 A 
ATOM     18  C   UNL     1      -2.788   0.237  -0.438  0.00  0.00    +0.026 A 
ATOM     19  C   UNL     1      -3.924  -0.355  -0.957  0.00  0.00    +0.002 A 
ATOM     20  C   UNL     1      -4.532   0.178  -2.078  0.00  0.00    +0.000 A 
ATOM     21  C   UNL     1      -4.010   1.308  -2.680  0.00  0.00    +0.002 A 
ATOM     22  C   UNL     1      -2.879   1.908  -2.163  0.00  0.00    +0.026 A 
ENDBRANCH  16  17
BRANCH   1  24
ATOM     23  N   UNL     1      -6.805   5.900   1.952  0.00  0.00    -0.315 N 
ATOM     24  C   UNL     1      -5.854   6.161   1.034  0.00  0.00    +0.216 C 
ATOM     25  O   UNL     1      -6.098   6.893   0.098  0.00  0.00    -0.276 OA
ATOM     26  H   UNL     1      -6.583   5.236   2.800  0.00  0.00    +0.149 HD
BRANCH  23  27
ATOM     27  C   UNL     1      -8.134   6.501   1.821  0.00  0.00    +0.106 C 
BRANCH  27  28
ATOM     28  C   UNL     1      -9.017   6.046   2.985  0.00  0.00    +0.047 C 
BRANCH  28  29
ATOM     29  C   UNL     1     -10.406   6.674   2.847  0.00  0.00    +0.161 C 
BRANCH  29  30
ATOM     30  O   UNL     1     -11.230   6.249   3.934  0.00  0.00    -0.377 OA
BRANCH  30  32
ATOM     31  C   UNL     1     -13.520   5.790   4.555  0.00  0.00    +0.037 C 
ATOM     32  C   UNL     1     -12.556   6.781   3.901  0.00  0.00    +0.112 C 
ATOM     33  C   UNL     1     -12.592   8.107   4.664  0.00  0.00    +0.037 C 
ENDBRANCH  30  32
ENDBRANCH  29  30
ENDBRANCH  28  29
ENDBRANCH  27  28
ENDBRANCH  23  27
ENDBRANCH   1  24
TORSDOF 7
