REMARK  Name = ZINC34868904
REMARK  14 active torsions:
REMARK  status: ('A' for Active; 'I' for Inactive)
REMARK    1  A    between atoms: C_1  and  C_2
REMARK    2  A    between atoms: C_2  and  C_3
REMARK    3  A    between atoms: C_3  and  C_4
REMARK    4  A    between atoms: C_4  and  N_5
REMARK    5  A    between atoms: C_13  and  C_15
REMARK    6  A    between atoms: C_16  and  C_18
REMARK    7  A    between atoms: C_18  and  C_20
REMARK    8  A    between atoms: C_18  and  N_25
REMARK    9  A    between atoms: C_20  and  C_22
REMARK   10  A    between atoms: C_20  and  C_23
REMARK   11  A    between atoms: C_23  and  C_24
REMARK   12  A    between atoms: N_25  and  S_26
REMARK   13  A    between atoms: S_26  and  C_29
REMARK   14  A    between atoms: C_33  and  N_35
REMARK                            x       y       z     vdW  Elec       q    Type
REMARK                         _______ _______ _______ _____ _____    ______ ____
ROOT
ATOM      1  C   UNL     1       5.795  -4.481   7.001  0.00  0.00    +0.165 C 
ENDROOT
BRANCH   1  12
ATOM      2  N   UNL     1      -0.042  -2.451   4.540  0.00  0.00    -0.299 N 
ATOM      3  C   UNL     1       0.149  -3.776   4.689  0.00  0.00    +0.303 C 
ATOM      4  O   UNL     1      -0.656  -4.562   4.228  0.00  0.00    -0.253 OA
ATOM      5  N   UNL     1       1.232  -4.231   5.350  0.00  0.00    -0.280 N 
ATOM      6  C   UNL     1       2.150  -3.296   6.014  0.00  0.00    +0.128 C 
ATOM      7  C   UNL     1       3.568  -3.542   5.485  0.00  0.00    +0.127 C 
ATOM      8  N   UNL     1       3.852  -4.982   5.554  0.00  0.00    -0.297 N 
ATOM      9  C   UNL     1       2.934  -5.917   4.889  0.00  0.00    +0.130 C 
ATOM     10  C   UNL     1       1.513  -5.672   5.423  0.00  0.00    +0.092 C 
ATOM     11  C   UNL     1       1.419  -6.140   6.877  0.00  0.00    +0.030 C 
ATOM     12  C   UNL     1       4.936  -5.437   6.214  0.00  0.00    +0.235 C 
ATOM     13  O   UNL     1       5.219  -6.615   6.175  0.00  0.00    -0.274 OA
ATOM     14  H   UNL     1       0.559  -1.823   4.971  0.00  0.00    +0.150 HD
BRANCH   2  15
ATOM     15  C   UNL     1      -1.157  -1.958   3.727  0.00  0.00    +0.106 C 
BRANCH  15  16
ATOM     16  C   UNL     1      -1.147  -0.428   3.722  0.00  0.00    +0.018 C 
BRANCH  16  18
ATOM     17  C   UNL     1      -2.301   1.617   2.867  0.00  0.00    +0.004 C 
ATOM     18  C   UNL     1      -2.311   0.087   2.873  0.00  0.00    -0.002 C 
ENDBRANCH  16  18
ENDBRANCH  15  16
ENDBRANCH   2  15
ENDBRANCH   1  12
BRANCH   1  19
ATOM     19  C   UNL     1       6.643  -3.647   6.038  0.00  0.00    +0.013 C 
ATOM     20  C   UNL     1       7.457  -2.624   6.832  0.00  0.00    +0.009 C 
BRANCH  19  21
ATOM     21  C   UNL     1       7.591  -4.566   5.267  0.00  0.00    +0.002 C 
ATOM     22  C   UNL     1       8.350  -3.752   4.218  0.00  0.00    +0.004 C 
ENDBRANCH  19  21
ENDBRANCH   1  19
BRANCH   1  23
ATOM     23  N   UNL     1       6.674  -5.238   7.896  0.00  0.00    -0.178 NA
ATOM     24  H   UNL     1       7.273  -5.909   7.534  0.00  0.00    +0.149 HD
BRANCH  23  25
ATOM     25  S   UNL     1       6.643  -4.948   9.526  0.00  0.00    +0.059 S 
ATOM     26  O   UNL     1       7.599  -5.822  10.112  0.00  0.00    -0.153 OA
ATOM     27  O   UNL     1       6.701  -3.537   9.689  0.00  0.00    -0.153 OA
BRANCH  25  28
ATOM     28  C   UNL     1       5.064  -5.460  10.117  0.00  0.00    +0.108 A 
ATOM     29  C   UNL     1       4.012  -4.563  10.140  0.00  0.00    +0.030 A 
ATOM     30  C   UNL     1       2.773  -4.964  10.603  0.00  0.00    +0.024 A 
ATOM     31  C   UNL     1       2.586  -6.263  11.043  0.00  0.00    +0.071 A 
ATOM     32  C   UNL     1       3.639  -7.159  11.020  0.00  0.00    +0.146 A 
ATOM     33  C   UNL     1       4.877  -6.758  10.552  0.00  0.00    +0.062 A 
ATOM     34 CL   UNL     1       1.030  -6.766  11.626  0.00  0.00    -0.081 Cl
BRANCH  32  35
ATOM     35  N   UNL     1       3.440  -8.547  11.491  0.00  0.00    +0.058 N 
ATOM     36  O   UNL     1       4.361  -9.331  11.471  0.00  0.00    -0.126 OA
ATOM     37  O   UNL     1       2.357  -8.899  11.896  0.00  0.00    -0.126 OA
ENDBRANCH  32  35
ENDBRANCH  25  28
ENDBRANCH  23  25
ENDBRANCH   1  23
TORSDOF 10
