REMARK  Name = ZINC09244438
REMARK  4 active torsions:
REMARK  status: ('A' for Active; 'I' for Inactive)
REMARK    1  A    between atoms: C_1  and  C_2
REMARK    2  A    between atoms: C_6  and  N_8
REMARK    3  A    between atoms: C_9  and  C_11
REMARK    4  A    between atoms: C_11  and  N_12
REMARK                            x       y       z     vdW  Elec       q    Type
REMARK                         _______ _______ _______ _____ _____    ______ ____
ROOT
ATOM      1  N   UNL     1      -2.641   7.874  -0.245  0.00  0.00    -0.288 N 
ATOM      2  C   UNL     1      -3.328   8.177   0.907  0.00  0.00    +0.090 A 
ATOM      3  C   UNL     1      -4.604   8.592   0.741  0.00  0.00    +0.033 A 
ATOM      4  S   UNL     1      -4.818   8.569  -1.022  0.00  0.00    -0.030 S 
ATOM      5  C   UNL     1      -3.231   8.013  -1.449  0.00  0.00    +0.292 A 
ATOM      6  O   UNL     1      -2.768   7.800  -2.556  0.00  0.00    -0.259 OA
ATOM      7  C   UNL     1      -5.592   8.971   1.781  0.00  0.00    +0.069 C 
ATOM      8  C   UNL     1      -6.545  10.040   1.331  0.00  0.00    +0.003 A 
ATOM      9  C   UNL     1      -6.952  10.080   0.010  0.00  0.00    +0.008 A 
ATOM     10  C   UNL     1      -7.843  11.047  -0.417  0.00  0.00    +0.001 A 
ATOM     11  C   UNL     1      -8.330  11.979   0.481  0.00  0.00    +0.004 A 
ATOM     12  C   UNL     1      -7.925  11.947   1.799  0.00  0.00    +0.046 A 
ATOM     13  C   UNL     1      -7.025  10.978   2.233  0.00  0.00    +0.124 A 
ATOM     14  O   UNL     1      -6.644  10.987   3.537  0.00  0.00    -0.491 OA
ATOM     15  C   UNL     1      -5.977   9.839   4.069  0.00  0.00    +0.234 C 
ATOM     16  C   UNL     1      -4.902   9.410   3.071  0.00  0.00    +0.049 C 
ATOM     17  C   UNL     1      -4.063   8.254   3.617  0.00  0.00    +0.083 C 
ATOM     18  S   UNL     1      -2.613   8.056   2.533  0.00  0.00    -0.106 S 
ENDROOT
BRANCH   1  19
ATOM     19  C   UNL     1      -1.256   7.403  -0.163  0.00  0.00    +0.222 C 
BRANCH  19  21
ATOM     20  N   UNL     1      -0.069   5.242   0.030  0.00  0.00    -0.284 N 
ATOM     21  C   UNL     1      -1.242   5.900  -0.058  0.00  0.00    +0.237 C 
ATOM     22  O   UNL     1      -2.286   5.283  -0.051  0.00  0.00    -0.274 OA
ATOM     23  H   UNL     1       0.761   5.737   0.102  0.00  0.00    +0.155 HD
BRANCH  20  29
ATOM     24  C   UNL     1      -1.985   0.997  -1.546  0.00  0.00    +0.044 C 
ATOM     25  C   UNL     1      -0.967   1.760  -0.738  0.00  0.00    -0.049 A 
ATOM     26  C   UNL     1      -0.011   1.076  -0.009  0.00  0.00    +0.003 A 
ATOM     27  C   UNL     1       0.921   1.772   0.738  0.00  0.00    +0.002 A 
ATOM     28  C   UNL     1       0.908   3.153   0.749  0.00  0.00    +0.023 A 
ATOM     29  C   UNL     1      -0.050   3.842   0.017  0.00  0.00    +0.034 A 
ATOM     30  C   UNL     1      -0.989   3.140  -0.728  0.00  0.00    +0.026 A 
ENDBRANCH  20  29
ENDBRANCH  19  21
ENDBRANCH   1  19
TORSDOF 3
