REMARK  Name = ZINC67063452
REMARK  6 active torsions:
REMARK  status: ('A' for Active; 'I' for Inactive)
REMARK    1  A    between atoms: C_1  and  C_2
REMARK    2  A    between atoms: C_2  and  C_4
REMARK    3  A    between atoms: C_2  and  N_15
REMARK    4  A    between atoms: N_18  and  C_19
REMARK    5  A    between atoms: C_19  and  C_20
REMARK    6  A    between atoms: C_20  and  C_23
REMARK                            x       y       z     vdW  Elec       q    Type
REMARK                         _______ _______ _______ _____ _____    ______ ____
ROOT
ATOM      1  N   UNL     1       0.319  -0.344  -2.023  0.00  0.00    -0.293 N 
ATOM      2  C   UNL     1       1.639  -0.460  -1.781  0.00  0.00    +0.300 C 
ATOM      3  O   UNL     1       2.098  -0.086  -0.719  0.00  0.00    -0.253 OA
ATOM      4  N   UNL     1       2.451  -0.991  -2.717  0.00  0.00    -0.299 N 
ATOM      5  H   UNL     1      -0.048  -0.642  -2.870  0.00  0.00    +0.151 HD
ATOM      6  H   UNL     1       2.085  -1.289  -3.564  0.00  0.00    +0.150 HD
ENDROOT
BRANCH   1   8
ATOM      7  C   UNL     1      -0.556   1.758  -1.130  0.00  0.00    +0.033 C 
ATOM      8  C   UNL     1      -0.564   0.233  -1.006  0.00  0.00    +0.102 C 
BRANCH   8   9
ATOM      9  C   UNL     1      -1.967  -0.280  -1.209  0.00  0.00    -0.025 A 
ATOM     10  C   UNL     1      -2.471  -0.420  -2.489  0.00  0.00    +0.009 A 
ATOM     11  C   UNL     1      -3.757  -0.892  -2.683  0.00  0.00    +0.048 A 
ATOM     12  C   UNL     1      -4.542  -1.224  -1.593  0.00  0.00    +0.142 A 
ATOM     13  C   UNL     1      -4.034  -1.081  -0.303  0.00  0.00    +0.076 A 
ATOM     14  C   UNL     1      -2.743  -0.615  -0.115  0.00  0.00    +0.032 A 
ATOM     15  N   UNL     1      -4.840  -1.419   0.793  0.00  0.00    -0.280 N 
ATOM     16  C   UNL     1      -5.951  -2.159   0.585  0.00  0.00    +0.255 C 
ATOM     17  O   UNL     1      -6.680  -2.437   1.514  0.00  0.00    -0.272 OA
ATOM     18  C   UNL     1      -6.280  -2.639  -0.806  0.00  0.00    +0.325 C 
ATOM     19  O   UNL     1      -5.808  -1.690  -1.765  0.00  0.00    -0.481 OA
ATOM     20  H   UNL     1      -4.604  -1.126   1.687  0.00  0.00    +0.155 HD
ENDBRANCH   8   9
ENDBRANCH   1   8
BRANCH   4  21
ATOM     21  C   UNL     1       3.887  -1.117  -2.454  0.00  0.00    +0.117 C 
BRANCH  21  22
ATOM     22  C   UNL     1       4.571  -1.769  -3.658  0.00  0.00    +0.011 C 
ATOM     23  C   UNL     1       5.865  -1.132  -4.165  0.00  0.00    +0.014 C 
ATOM     24  C   UNL     1       4.575  -0.990  -4.975  0.00  0.00    +0.014 C 
BRANCH  22  25
ATOM     25  C   UNL     1       4.455  -3.270  -3.737  0.00  0.00    -0.040 A 
ATOM     26  C   UNL     1       5.061  -4.061  -2.779  0.00  0.00    +0.005 A 
ATOM     27  C   UNL     1       4.955  -5.437  -2.851  0.00  0.00    +0.020 A 
ATOM     28  C   UNL     1       4.244  -6.023  -3.883  0.00  0.00    +0.041 A 
ATOM     29  C   UNL     1       3.638  -5.231  -4.841  0.00  0.00    +0.020 A 
ATOM     30  C   UNL     1       3.740  -3.854  -4.765  0.00  0.00    +0.005 A 
ATOM     31 CL   UNL     1       4.112  -7.751  -3.974  0.00  0.00    -0.084 Cl
ENDBRANCH  22  25
ENDBRANCH  21  22
ENDBRANCH   4  21
TORSDOF 5
