REMARK  Name = ZINC39569829
REMARK  10 active torsions:
REMARK  status: ('A' for Active; 'I' for Inactive)
REMARK    1  A    between atoms: C_1  and  C_2
REMARK    2  A    between atoms: C_7  and  C_8
REMARK    3  A    between atoms: C_8  and  O_9
REMARK    4  A    between atoms: O_9  and  C_10
REMARK    5  A    between atoms: C_15  and  C_16
REMARK    6  A    between atoms: C_16  and  O_18
REMARK    7  A    between atoms: O_18  and  C_19
REMARK    8  A    between atoms: C_19  and  C_20
REMARK    9  A    between atoms: N_22  and  N_23
REMARK   10  A    between atoms: C_29  and  C_32
REMARK                            x       y       z     vdW  Elec       q    Type
REMARK                         _______ _______ _______ _____ _____    ______ ____
ROOT
ATOM      1  C   UNL     1       0.131  -4.921   6.568  0.00  0.00    +0.329 C 
ENDROOT
BRANCH   1   2
ATOM      2  C   UNL     1       0.154  -5.673   7.873  0.00  0.00    +0.267 C 
ATOM      3  O   UNL     1       0.156  -5.066   8.923  0.00  0.00    -0.271 OA
ATOM      4  N   UNL     1       0.172  -7.021   7.874  0.00  0.00    -0.221 N 
ATOM      5  H   UNL     1       0.171  -7.507   7.034  0.00  0.00    +0.174 HD
BRANCH   4   6
ATOM      6  N   UNL     1       0.193  -7.721   9.088  0.00  0.00    -0.137 N 
ATOM      7  C   UNL     1       1.286  -8.330   9.593  0.00  0.00    +0.263 C 
ATOM      8  O   UNL     1       2.393  -8.376   9.102  0.00  0.00    -0.271 OA
ATOM      9  C   UNL     1       0.838  -8.944  10.899  0.00  0.00    +0.114 C 
ATOM     10  C   UNL     1       1.622  -8.348  12.063  0.00  0.00    +0.035 C 
ATOM     11  C   UNL     1       1.132  -8.961  13.378  0.00  0.00    +0.006 C 
ATOM     12  C   UNL     1       1.324 -10.478  13.335  0.00  0.00    -0.014 C 
ATOM     13  C   UNL     1       0.513 -11.064  12.177  0.00  0.00    +0.006 C 
ATOM     14  C   UNL     1       1.000 -10.460  10.858  0.00  0.00    +0.035 C 
ATOM     15  C   UNL     1       0.846 -11.090  14.653  0.00  0.00    +0.007 C 
ATOM     16  N   UNL     1      -0.582  -8.581  10.995  0.00  0.00    -0.284 N 
ATOM     17  C   UNL     1      -0.867  -7.862   9.893  0.00  0.00    +0.326 C 
ATOM     18  O   UNL     1      -1.964  -7.396   9.654  0.00  0.00    -0.251 OA
ATOM     19  H   UNL     1      -1.193  -8.811  11.713  0.00  0.00    +0.151 HD
ENDBRANCH   4   6
ENDBRANCH   1   2
BRANCH   1  20
ATOM     20  O   UNL     1       0.115  -3.516   6.828  0.00  0.00    -0.452 OA
BRANCH  20  21
ATOM     21  C   UNL     1       0.093  -2.696   5.759  0.00  0.00    +0.343 C 
ATOM     22  O   UNL     1       0.089  -3.161   4.636  0.00  0.00    -0.245 OA
BRANCH  21  28
ATOM     23  C   UNL     1       0.053  -0.378   4.841  0.00  0.00    +0.135 A 
ATOM     24  C   UNL     1       0.031   0.996   5.035  0.00  0.00    +0.046 A 
ATOM     25  C   UNL     1       0.036   1.515   6.314  0.00  0.00    +0.004 A 
ATOM     26  C   UNL     1       0.063   0.672   7.413  0.00  0.00    +0.001 A 
ATOM     27  C   UNL     1       0.085  -0.695   7.240  0.00  0.00    +0.018 A 
ATOM     28  C   UNL     1       0.075  -1.235   5.951  0.00  0.00    +0.101 A 
BRANCH  23  29
ATOM     29  O   UNL     1       0.048  -0.889   3.585  0.00  0.00    -0.487 OA
BRANCH  29  30
ATOM     30  C   UNL     1       0.025   0.045   2.504  0.00  0.00    +0.264 C 
BRANCH  30  37
ATOM     31  C   UNL     1      -0.018   1.503   0.010  0.00  0.00    +0.044 C 
ATOM     32  C   UNL     1       0.002  -0.004   0.002  0.00  0.00    -0.044 A 
ATOM     33  C   UNL     1       0.006  -0.689  -1.199  0.00  0.00    +0.004 A 
ATOM     34  C   UNL     1       0.025  -2.071  -1.207  0.00  0.00    +0.000 A 
ATOM     35  C   UNL     1       0.040  -2.768  -0.013  0.00  0.00    +0.000 A 
ATOM     36  C   UNL     1       0.037  -2.084   1.188  0.00  0.00    +0.007 A 
ATOM     37  C   UNL     1       0.023  -0.702   1.195  0.00  0.00    -0.007 A 
ENDBRANCH  30  37
ENDBRANCH  29  30
ENDBRANCH  23  29
ENDBRANCH  21  28
ENDBRANCH  20  21
ENDBRANCH   1  20
TORSDOF 8
