REMARK  Name = ZINC11321481
REMARK  8 active torsions:
REMARK  status: ('A' for Active; 'I' for Inactive)
REMARK    1  A    between atoms: C_1  and  N_2
REMARK    2  A    between atoms: N_2  and  C_3
REMARK    3  A    between atoms: C_6  and  C_11
REMARK    4  A    between atoms: C_11  and  S_12
REMARK    5  A    between atoms: S_12  and  C_13
REMARK    6  A    between atoms: C_17  and  C_29
REMARK    7  A    between atoms: N_21  and  C_22
REMARK    8  A    between atoms: C_22  and  C_23
REMARK                            x       y       z     vdW  Elec       q    Type
REMARK                         _______ _______ _______ _____ _____    ______ ____
ROOT
ATOM      1  C   UNL     1       5.572   3.341  -1.450  0.00  0.00    +0.171 A 
ATOM      2  N   UNL     1       6.069   3.624  -0.271  0.00  0.00    -0.222 NA
ATOM      3  C   UNL     1       7.228   4.318  -0.420  0.00  0.00    +0.091 A 
ATOM      4  C   UNL     1       8.148   4.856   0.484  0.00  0.00    +0.042 A 
ATOM      5  C   UNL     1       9.256   5.524   0.015  0.00  0.00    +0.057 A 
ATOM      6  C   UNL     1       9.469   5.666  -1.348  0.00  0.00    +0.014 A 
ATOM      7  C   UNL     1       8.571   5.140  -2.254  0.00  0.00    +0.028 A 
ATOM      8  C   UNL     1       7.448   4.465  -1.800  0.00  0.00    +0.070 A 
ATOM      9  N   UNL     1       6.388   3.833  -2.429  0.00  0.00    -0.314 N 
ENDROOT
BRANCH   5  10
ATOM     10  C   UNL     1      10.247   6.106   0.991  0.00  0.00    +0.417 C 
ATOM     11  F   UNL     1      11.282   6.732   0.288  0.00  0.00    -0.166 F 
ATOM     12  F   UNL     1       9.603   7.043   1.806  0.00  0.00    -0.166 F 
ATOM     13  F   UNL     1      10.775   5.082   1.785  0.00  0.00    -0.166 F 
ENDBRANCH   5  10
BRANCH   1  14
ATOM     14  S   UNL     1       4.077   2.450  -1.730  0.00  0.00    -0.080 S 
BRANCH  14  15
ATOM     15  C   UNL     1       3.575   2.132  -0.021  0.00  0.00    +0.153 C 
BRANCH  15  21
ATOM     16  C   UNL     1      -0.068  -2.783  -0.011  0.00  0.00    +0.132 C 
ATOM     17  N   UNL     1       1.187  -2.029  -0.020  0.00  0.00    -0.306 N 
ATOM     18  C   UNL     1       2.469  -2.739  -0.036  0.00  0.00    +0.132 C 
ATOM     19  C   UNL     1       1.163  -0.649  -0.013  0.00  0.00    +0.222 A 
ATOM     20  N   UNL     1       2.304   0.037  -0.020  0.00  0.00    -0.198 NA
ATOM     21  C   UNL     1       2.282   1.359  -0.012  0.00  0.00    +0.146 A 
ATOM     22  N   UNL     1       1.129   2.004   0.002  0.00  0.00    -0.199 NA
ATOM     23  C   UNL     1      -0.016   1.325   0.009  0.00  0.00    +0.217 A 
ATOM     24  N   UNL     1       0.002  -0.004   0.002  0.00  0.00    -0.181 NA
ATOM     25  N   UNL     1      -1.220   1.999   0.019  0.00  0.00    -0.327 N 
ATOM     26  H   UNL     1      -2.054   1.503   0.020  0.00  0.00    +0.145 HD
ATOM     27  H   UNL     1      -1.232   2.969   0.024  0.00  0.00    +0.145 HD
ENDBRANCH  15  21
ENDBRANCH  14  15
ENDBRANCH   1  14
BRANCH   9  28
ATOM     28  C   UNL     1       6.179   3.716  -3.874  0.00  0.00    +0.159 C 
BRANCH  28  29
ATOM     29  C   UNL     1       5.380   4.897  -4.363  0.00  0.00    -0.028 A 
ATOM     30  C   UNL     1       4.000   4.831  -4.398  0.00  0.00    +0.005 A 
ATOM     31  C   UNL     1       3.267   5.915  -4.842  0.00  0.00    +0.000 A 
ATOM     32  C   UNL     1       3.915   7.062  -5.261  0.00  0.00    +0.000 A 
ATOM     33  C   UNL     1       5.295   7.127  -5.232  0.00  0.00    +0.000 A 
ATOM     34  C   UNL     1       6.028   6.044  -4.783  0.00  0.00    +0.005 A 
ENDBRANCH  28  29
ENDBRANCH   9  28
TORSDOF 6
