REMARK  Name = ZINC14544777
REMARK  3 active torsions:
REMARK  status: ('A' for Active; 'I' for Inactive)
REMARK    1  A    between atoms: C_7  and  C_11
REMARK    2  A    between atoms: C_22  and  S_27
REMARK    3  A    between atoms: S_27  and  N_30
REMARK                            x       y       z     vdW  Elec       q    Type
REMARK                         _______ _______ _______ _____ _____    ______ ____
ROOT
ATOM      1  C   UNL     1       0.270  -0.531   1.415  0.00  0.00    +0.107 C 
ATOM      2  C   UNL     1      -0.031   0.057   0.033  0.00  0.00    +0.029 C 
ATOM      3  C   UNL     1       1.250  -0.116  -0.834  0.00  0.00    +0.033 C 
ATOM      4  C   UNL     1       2.112   1.063  -0.425  0.00  0.00    -0.030 C 
ATOM      5  C   UNL     1       1.374   2.012   0.097  0.00  0.00    -0.023 C 
ATOM      6  C   UNL     1      -0.077   1.595   0.115  0.00  0.00    +0.049 C 
ATOM      7  C   UNL     1      -0.773   2.095   1.341  0.00  0.00    -0.018 A 
ATOM      8  C   UNL     1      -1.106   3.440   1.417  0.00  0.00    +0.034 A 
ATOM      9  C   UNL     1      -1.750   3.942   2.530  0.00  0.00    +0.106 A 
ATOM     10  C   UNL     1      -2.072   3.107   3.585  0.00  0.00    +0.030 A 
ATOM     11  C   UNL     1      -1.746   1.767   3.521  0.00  0.00    +0.025 A 
ATOM     12  C   UNL     1      -1.097   1.262   2.401  0.00  0.00    +0.031 A 
ATOM     13  N   UNL     1      -0.771  -0.098   2.353  0.00  0.00    -0.336 N 
ATOM     14  H   UNL     1      -1.222  -0.738   2.925  0.00  0.00    +0.147 HD
ENDROOT
BRANCH   1  21
ATOM     15  C   UNL     1       4.644  -2.127   0.870  0.00  0.00    +0.001 A 
ATOM     16  C   UNL     1       5.592  -1.332   1.500  0.00  0.00    +0.002 A 
ATOM     17  C   UNL     1       5.215  -0.201   2.189  0.00  0.00    +0.026 A 
ATOM     18  C   UNL     1       3.869   0.144   2.266  0.00  0.00    +0.047 A 
ATOM     19  C   UNL     1       2.912  -0.666   1.628  0.00  0.00    +0.005 A 
ATOM     20  C   UNL     1       3.318  -1.804   0.929  0.00  0.00    +0.010 A 
ATOM     21  C   UNL     1       1.613  -0.040   1.890  0.00  0.00    -0.002 A 
ATOM     22  C   UNL     1       1.846   1.050   2.638  0.00  0.00    +0.089 A 
ATOM     23  N   UNL     1       3.188   1.176   2.873  0.00  0.00    -0.360 N 
ATOM     24  H   UNL     1       3.599   1.887   3.390  0.00  0.00    +0.165 HD
ENDBRANCH   1  21
BRANCH   9  25
ATOM     25  S   UNL     1      -2.163   5.653   2.607  0.00  0.00    +0.061 S 
ATOM     26  O   UNL     1      -2.243   6.113   1.265  0.00  0.00    -0.153 OA
ATOM     27  O   UNL     1      -3.247   5.769   3.519  0.00  0.00    -0.153 OA
BRANCH  25  28
ATOM     28  N   UNL     1      -0.878   6.436   3.300  0.00  0.00    -0.172 NA
ATOM     29  C   UNL     1      -0.801   6.625   4.757  0.00  0.00    +0.137 C 
ATOM     30  C   UNL     1       0.580   6.144   5.231  0.00  0.00    +0.177 C 
ATOM     31  O   UNL     1       1.593   6.787   4.454  0.00  0.00    -0.377 OA
ATOM     32  C   UNL     1       1.547   6.475   3.059  0.00  0.00    +0.177 C 
ATOM     33  C   UNL     1       0.219   6.968   2.475  0.00  0.00    +0.137 C 
ENDBRANCH  25  28
ENDBRANCH   9  25
TORSDOF 3
