REMARK  Name = ZINC20423705
REMARK  6 active torsions:
REMARK  status: ('A' for Active; 'I' for Inactive)
REMARK    1  A    between atoms: C_4  and  C_8
REMARK    2  A    between atoms: C_8  and  N_9
REMARK    3  A    between atoms: N_14  and  C_15
REMARK    4  A    between atoms: C_15  and  N_17
REMARK    5  A    between atoms: N_21  and  C_23
REMARK    6  A    between atoms: C_23  and  C_24
REMARK                            x       y       z     vdW  Elec       q    Type
REMARK                         _______ _______ _______ _____ _____    ______ ____
ROOT
ATOM      1  C   UNL     1      -0.939  -2.190  -0.101  0.00  0.00    +0.141 C 
ATOM      2  S   UNL     1       0.641  -2.850  -0.122  0.00  0.00    -0.018 S 
ENDROOT
BRANCH   1   8
ATOM      3  N   UNL     1       2.025   0.819  -0.016  0.00  0.00    -0.177 N 
ATOM      4  N   UNL     1       1.220   1.822  -0.001  0.00  0.00    -0.158 NA
ATOM      5  C   UNL     1      -0.018   1.395   0.012  0.00  0.00    +0.180 A 
ATOM      6  C   UNL     1       0.002  -0.004   0.003  0.00  0.00    +0.166 A 
ATOM      7  N   UNL     1       1.270  -0.363  -0.014  0.00  0.00    -0.137 NA
ATOM      8  N   UNL     1      -1.111  -0.858   0.011  0.00  0.00    -0.279 N 
ATOM      9  H   UNL     1      -2.123  -0.440   0.109  0.00  0.00    +0.155 HD
BRANCH   3  10
ATOM     10  C   UNL     1       3.488   0.897  -0.033  0.00  0.00    +0.206 C 
BRANCH  10  14
ATOM     11  C   UNL     1       4.864   0.997  -4.078  0.00  0.00    +0.004 A 
ATOM     12  C   UNL     1       4.577   2.177  -3.418  0.00  0.00    +0.039 A 
ATOM     13  C   UNL     1       4.131   2.146  -2.108  0.00  0.00    +0.130 A 
ATOM     14  C   UNL     1       3.973   0.932  -1.460  0.00  0.00    +0.029 A 
ATOM     15  C   UNL     1       4.266  -0.247  -2.120  0.00  0.00    +0.049 A 
ATOM     16  C   UNL     1       4.706  -0.214  -3.431  0.00  0.00    +0.020 A 
ATOM     17 CL   UNL     1       4.074  -1.768  -1.306  0.00  0.00    -0.083 Cl
ATOM     18  F   UNL     1       3.851   3.299  -1.462  0.00  0.00    -0.205 F 
ENDBRANCH  10  14
ENDBRANCH   3  10
ENDBRANCH   1   8
BRANCH   1  19
ATOM     19  N   UNL     1      -2.010  -3.002  -0.197  0.00  0.00    -0.279 N 
ATOM     20  C   UNL     1      -1.836  -4.393  -0.206  0.00  0.00    +0.166 A 
ATOM     21  C   UNL     1      -2.845  -5.362  -0.201  0.00  0.00    +0.180 A 
ATOM     22  N   UNL     1      -2.281  -6.543  -0.215  0.00  0.00    -0.158 NA
ATOM     23  N   UNL     1      -1.000  -6.411  -0.221  0.00  0.00    -0.177 N 
ATOM     24  N   UNL     1      -0.690  -5.044  -0.215  0.00  0.00    -0.137 NA
ATOM     25  H   UNL     1      -3.020  -2.573  -0.268  0.00  0.00    +0.155 HD
BRANCH  23  26
ATOM     26  C   UNL     1      -0.029  -7.508  -0.231  0.00  0.00    +0.206 C 
BRANCH  26  27
ATOM     27  C   UNL     1       0.310  -7.892   1.187  0.00  0.00    +0.029 A 
ATOM     28  C   UNL     1      -0.431  -8.863   1.837  0.00  0.00    +0.130 A 
ATOM     29  C   UNL     1      -0.118  -9.215   3.139  0.00  0.00    +0.039 A 
ATOM     30  C   UNL     1       0.934  -8.597   3.789  0.00  0.00    +0.004 A 
ATOM     31  C   UNL     1       1.674  -7.627   3.139  0.00  0.00    +0.020 A 
ATOM     32  C   UNL     1       1.366  -7.278   1.836  0.00  0.00    +0.049 A 
ATOM     33 CL   UNL     1       2.301  -6.065   1.018  0.00  0.00    -0.083 Cl
ATOM     34  F   UNL     1      -1.460  -9.467   1.203  0.00  0.00    -0.205 F 
ENDBRANCH  26  27
ENDBRANCH  23  26
ENDBRANCH   1  19
TORSDOF 6
