REMARK  Name = ZINC66923691
REMARK  9 active torsions:
REMARK  status: ('A' for Active; 'I' for Inactive)
REMARK    1  A    between atoms: C_1  and  C_2
REMARK    2  A    between atoms: C_2  and  C_4
REMARK    3  A    between atoms: C_2  and  N_11
REMARK    4  A    between atoms: N_6  and  C_7
REMARK    5  A    between atoms: C_7  and  C_8
REMARK    6  A    between atoms: C_7  and  C_9
REMARK    7  A    between atoms: C_7  and  C_10
REMARK    8  A    between atoms: C_12  and  C_14
REMARK    9  A    between atoms: C_18  and  N_23
REMARK                            x       y       z     vdW  Elec       q    Type
REMARK                         _______ _______ _______ _____ _____    ______ ____
ROOT
ATOM      1  N   UNL     1       0.711  -0.489   1.189  0.00  0.00    -0.300 N 
ATOM      2  C   UNL     1       0.051  -0.633   2.355  0.00  0.00    +0.251 C 
ATOM      3  O   UNL     1      -1.132  -0.360   2.423  0.00  0.00    -0.270 OA
ATOM      4  H   UNL     1       1.654  -0.707   1.135  0.00  0.00    +0.150 HD
ENDROOT
BRANCH   2   5
ATOM      5  C   UNL     1       0.762  -1.120   3.546  0.00  0.00    +0.075 A 
ATOM      6  C   UNL     1       0.273  -1.334   4.797  0.00  0.00    +0.029 A 
ATOM      7  C   UNL     1       1.123  -1.809   5.811  0.00  0.00    -0.008 A 
ATOM      8  C   UNL     1       0.804  -2.090   7.165  0.00  0.00    +0.041 A 
ATOM      9  C   UNL     1       1.753  -2.546   8.022  0.00  0.00    +0.127 A 
ATOM     10  C   UNL     1       3.065  -2.753   7.614  0.00  0.00    +0.034 A 
ATOM     11  C   UNL     1       3.419  -2.492   6.306  0.00  0.00    +0.018 A 
ATOM     12  C   UNL     1       2.466  -2.029   5.423  0.00  0.00    +0.020 A 
ATOM     13  S   UNL     1       2.478  -1.584   3.705  0.00  0.00    -0.084 S 
BRANCH   9  14
ATOM     14  N   UNL     1       1.381  -2.829   9.427  0.00  0.00    +0.056 N 
ATOM     15  O   UNL     1       0.244  -2.653   9.798  0.00  0.00    -0.126 OA
ATOM     16  O   UNL     1       2.215  -3.235  10.203  0.00  0.00    -0.126 OA
ENDBRANCH   9  14
ENDBRANCH   2   5
BRANCH   1  18
ATOM     17  C   UNL     1      -0.019   1.526   0.010  0.00  0.00    +0.038 C 
ATOM     18  C   UNL     1       0.002  -0.004   0.002  0.00  0.00    +0.156 C 
BRANCH  18  19
ATOM     19  C   UNL     1       0.707  -0.490  -1.238  0.00  0.00    +0.233 C 
ATOM     20  O   UNL     1       1.704  -1.174  -1.140  0.00  0.00    -0.274 OA
ATOM     21  N   UNL     1       0.231  -0.164  -2.456  0.00  0.00    -0.309 N 
ATOM     22  H   UNL     1      -0.566   0.383  -2.534  0.00  0.00    +0.149 HD
BRANCH  21  23
ATOM     23  C   UNL     1       0.917  -0.637  -3.661  0.00  0.00    +0.026 C 
ATOM     24  C   UNL     1       0.937  -2.167  -3.670  0.00  0.00    +0.031 C 
ATOM     25  C   UNL     1       0.177  -0.130  -4.901  0.00  0.00    +0.031 C 
ATOM     26  C   UNL     1       2.352  -0.107  -3.672  0.00  0.00    +0.031 C 
ENDBRANCH  21  23
ENDBRANCH  18  19
ENDBRANCH   1  18
TORSDOF 5
