REMARK  Name = ZINC10215989
REMARK  8 active torsions:
REMARK  status: ('A' for Active; 'I' for Inactive)
REMARK    1  A    between atoms: C_1  and  C_2
REMARK    2  A    between atoms: C_4  and  C_29
REMARK    3  A    between atoms: C_6  and  N_8
REMARK    4  A    between atoms: C_9  and  C_11
REMARK    5  A    between atoms: C_11  and  C_13
REMARK    6  A    between atoms: C_11  and  S_19
REMARK    7  A    between atoms: S_19  and  C_20
REMARK    8  A    between atoms: C_26  and  N_28
REMARK                            x       y       z     vdW  Elec       q    Type
REMARK                         _______ _______ _______ _____ _____    ______ ____
ROOT
ATOM      1  C   UNL     1      -0.832   4.038  -0.122  0.00  0.00    +0.170 C 
ENDROOT
BRANCH   1   2
ATOM      2  C   UNL     1      -1.580   3.460  -1.296  0.00  0.00    -0.025 A 
ATOM      3  C   UNL     1      -1.379   3.973  -2.564  0.00  0.00    +0.005 A 
ATOM      4  C   UNL     1      -2.062   3.440  -3.641  0.00  0.00    +0.000 A 
ATOM      5  C   UNL     1      -2.953   2.400  -3.449  0.00  0.00    +0.000 A 
ATOM      6  C   UNL     1      -3.158   1.891  -2.180  0.00  0.00    +0.000 A 
ATOM      7  C   UNL     1      -2.471   2.422  -1.103  0.00  0.00    +0.005 A 
ENDBRANCH   1   2
BRANCH   1   9
ATOM      8  N   UNL     1      -2.264   5.883   0.693  0.00  0.00    -0.284 N 
ATOM      9  C   UNL     1      -1.164   5.502   0.014  0.00  0.00    +0.235 C 
ATOM     10  O   UNL     1      -0.441   6.337  -0.487  0.00  0.00    -0.274 OA
ATOM     11  H   UNL     1      -2.882   5.215   1.028  0.00  0.00    +0.155 HD
BRANCH   8  17
ATOM     12  C   UNL     1      -5.480   9.564   1.215  0.00  0.00    +0.044 C 
ATOM     13  C   UNL     1      -4.063   9.053   1.172  0.00  0.00    -0.048 A 
ATOM     14  C   UNL     1      -3.008   9.928   1.353  0.00  0.00    +0.006 A 
ATOM     15  C   UNL     1      -1.706   9.463   1.316  0.00  0.00    -0.048 A 
ATOM     16  C   UNL     1      -1.456   8.123   1.097  0.00  0.00    +0.026 A 
ATOM     17  C   UNL     1      -2.514   7.241   0.915  0.00  0.00    +0.034 A 
ATOM     18  C   UNL     1      -3.820   7.713   0.947  0.00  0.00    +0.026 A 
ATOM     19  C   UNL     1      -0.559  10.420   1.514  0.00  0.00    +0.044 C 
ENDBRANCH   8  17
ENDBRANCH   1   9
BRANCH   1  20
ATOM     20  S   UNL     1       0.949   3.845  -0.388  0.00  0.00    -0.070 S 
BRANCH  20  21
ATOM     21  C   UNL     1       1.074   2.088  -0.359  0.00  0.00    +0.172 A 
ATOM     22  N   UNL     1       2.292   1.503  -0.529  0.00  0.00    -0.302 N 
ATOM     23  H   UNL     1       3.079   2.054  -0.663  0.00  0.00    +0.171 HD
ATOM     24  C   UNL     1       2.407   0.159  -0.511  0.00  0.00    +0.254 A 
ATOM     25  O   UNL     1       3.495  -0.374  -0.662  0.00  0.00    -0.268 OA
ATOM     26  C   UNL     1       1.258  -0.614  -0.315  0.00  0.00    +0.113 A 
ATOM     27  C   UNL     1       0.041   0.030  -0.147  0.00  0.00    +0.124 A 
ATOM     28  N   UNL     1      -0.013   1.367  -0.174  0.00  0.00    -0.209 NA
BRANCH  27  29
ATOM     29  N   UNL     1      -1.111  -0.705   0.048  0.00  0.00    -0.343 N 
ATOM     30  H   UNL     1      -1.962  -0.253   0.165  0.00  0.00    +0.144 HD
ATOM     31  H   UNL     1      -1.071  -1.674   0.067  0.00  0.00    +0.144 HD
ENDBRANCH  27  29
ENDBRANCH  20  21
ENDBRANCH   1  20
TORSDOF 6
