REMARK  Name = ZINC36219003
REMARK  11 active torsions:
REMARK  status: ('A' for Active; 'I' for Inactive)
REMARK    1  A    between atoms: C_1  and  C_2
REMARK    2  A    between atoms: C_5  and  C_8
REMARK    3  A    between atoms: C_8  and  N_9
REMARK    4  A    between atoms: C_10  and  C_30
REMARK    5  A    between atoms: C_12  and  C_17
REMARK    6  A    between atoms: C_21  and  N_23
REMARK    7  A    between atoms: C_24  and  C_26
REMARK    8  A    between atoms: C_26  and  C_27
REMARK    9  A    between atoms: C_27  and  C_28
REMARK   10  A    between atoms: C_27  and  C_29
REMARK   11  A    between atoms: N_32  and  C_33
REMARK                            x       y       z     vdW  Elec       q    Type
REMARK                         _______ _______ _______ _____ _____    ______ ____
ROOT
ATOM      1  N   UNL     1       1.463  -4.063  -0.342  0.00  0.00    -0.248 N 
ATOM      2  C   UNL     1       1.788  -4.675  -1.645  0.00  0.00    +0.211 C 
ATOM      3  C   UNL     1       3.334  -4.722  -1.608  0.00  0.00    +0.238 C 
ATOM      4  O   UNL     1       3.600  -4.719  -0.192  0.00  0.00    -0.440 OA
ATOM      5  C   UNL     1       2.571  -4.110   0.421  0.00  0.00    +0.405 C 
ATOM      6  O   UNL     1       2.633  -3.653   1.545  0.00  0.00    -0.226 OA
ENDROOT
BRANCH   3   7
ATOM      7  C   UNL     1       3.850  -5.984  -2.250  0.00  0.00    -0.003 A 
ATOM      8  C   UNL     1       3.844  -7.172  -1.542  0.00  0.00    +0.007 A 
ATOM      9  C   UNL     1       4.316  -8.332  -2.127  0.00  0.00    +0.002 A 
ATOM     10  C   UNL     1       4.795  -8.308  -3.422  0.00  0.00    +0.023 A 
ATOM     11  C   UNL     1       4.803  -7.117  -4.136  0.00  0.00    +0.034 A 
ATOM     12  C   UNL     1       4.323  -5.955  -3.547  0.00  0.00    +0.030 A 
BRANCH  11  13
ATOM     13  N   UNL     1       5.288  -7.090  -5.449  0.00  0.00    -0.285 N 
ATOM     14  C   UNL     1       5.127  -8.161  -6.250  0.00  0.00    +0.217 C 
ATOM     15  O   UNL     1       4.481  -9.114  -5.866  0.00  0.00    -0.275 OA
ATOM     16  H   UNL     1       5.740  -6.299  -5.782  0.00  0.00    +0.155 HD
BRANCH  14  17
ATOM     17  C   UNL     1       5.749  -8.177  -7.622  0.00  0.00    +0.099 C 
BRANCH  17  18
ATOM     18  C   UNL     1       5.417  -9.498  -8.318  0.00  0.00    -0.008 C 
ATOM     19  C   UNL     1       3.908  -9.583  -8.556  0.00  0.00    +0.008 C 
ATOM     20  C   UNL     1       6.150  -9.567  -9.659  0.00  0.00    +0.008 C 
ENDBRANCH  17  18
ENDBRANCH  14  17
ENDBRANCH  11  13
ENDBRANCH   3   7
BRANCH   2  21
ATOM     21  C   UNL     1       1.207  -6.062  -1.747  0.00  0.00    +0.242 C 
ATOM     22  O   UNL     1       0.873  -6.655  -0.743  0.00  0.00    -0.273 OA
ATOM     23  N   UNL     1       1.060  -6.644  -2.954  0.00  0.00    -0.284 N 
ATOM     24  H   UNL     1       1.395  -6.202  -3.750  0.00  0.00    +0.155 HD
BRANCH  23  25
ATOM     25  C   UNL     1       0.422  -7.886  -3.059  0.00  0.00    +0.034 A 
ATOM     26  C   UNL     1      -0.609  -8.214  -2.189  0.00  0.00    +0.026 A 
ATOM     27  C   UNL     1      -1.237  -9.440  -2.294  0.00  0.00    +0.040 A 
ATOM     28  C   UNL     1      -0.838 -10.342  -3.266  0.00  0.00    +0.124 A 
ATOM     29  C   UNL     1       0.191 -10.017  -4.134  0.00  0.00    +0.040 A 
ATOM     30  C   UNL     1       0.817  -8.790  -4.037  0.00  0.00    +0.026 A 
ATOM     31  F   UNL     1      -1.452 -11.541  -3.366  0.00  0.00    -0.205 F 
ENDBRANCH  23  25
ENDBRANCH   2  21
BRANCH   1  32
ATOM     32  C   UNL     1       0.168  -3.501   0.049  0.00  0.00    +0.147 C 
BRANCH  32  37
ATOM     33  C   UNL     1      -0.007   2.101  -1.359  0.00  0.00    +0.044 C 
ATOM     34  C   UNL     1       0.039   0.640  -0.992  0.00  0.00    -0.050 A 
ATOM     35  C   UNL     1      -0.387  -0.314  -1.897  0.00  0.00    +0.003 A 
ATOM     36  C   UNL     1      -0.345  -1.654  -1.561  0.00  0.00    +0.005 A 
ATOM     37  C   UNL     1       0.123  -2.040  -0.319  0.00  0.00    -0.030 A 
ATOM     38  C   UNL     1       0.550  -1.086   0.587  0.00  0.00    +0.005 A 
ATOM     39  C   UNL     1       0.512   0.254   0.248  0.00  0.00    +0.003 A 
ENDBRANCH  32  37
ENDBRANCH   1  32
TORSDOF 8
