REMARK  Name = ZINC02635772
REMARK  8 active torsions:
REMARK  status: ('A' for Active; 'I' for Inactive)
REMARK    1  A    between atoms: C_1  and  C_2
REMARK    2  A    between atoms: C_2  and  C_4
REMARK    3  A    between atoms: C_2  and  O_22
REMARK    4  A    between atoms: N_6  and  C_7
REMARK    5  A    between atoms: C_12  and  O_13
REMARK    6  A    between atoms: O_13  and  C_14
REMARK    7  A    between atoms: O_22  and  C_23
REMARK    8  A    between atoms: C_23  and  C_25
REMARK                            x       y       z     vdW  Elec       q    Type
REMARK                         _______ _______ _______ _____ _____    ______ ____
ROOT
ATOM      1  C   UNL     1      -3.116   4.111  -0.047  0.00  0.00    +0.258 C 
ATOM      2  O   UNL     1      -3.353   2.921  -0.051  0.00  0.00    -0.271 OA
ATOM      3  N   UNL     1      -1.843   4.544   0.045  0.00  0.00    -0.279 N 
ATOM      4  H   UNL     1      -1.659   5.492   0.130  0.00  0.00    +0.155 HD
ENDROOT
BRANCH   3   5
ATOM      5  C   UNL     1      -0.787   3.625   0.019  0.00  0.00    +0.079 A 
ATOM      6  C   UNL     1      -0.960   2.396  -0.596  0.00  0.00    +0.074 A 
ATOM      7  C   UNL     1       0.085   1.482  -0.630  0.00  0.00    +0.138 A 
ATOM      8  C   UNL     1       1.308   1.813  -0.029  0.00  0.00    +0.031 A 
ATOM      9  C   UNL     1       1.476   3.047   0.592  0.00  0.00    +0.059 A 
ATOM     10  C   UNL     1       0.431   3.951   0.616  0.00  0.00    +0.142 A 
ATOM     11  C   UNL     1       2.183   0.643  -0.235  0.00  0.00    +0.028 A 
ATOM     12  C   UNL     1       3.497   0.346   0.115  0.00  0.00    +0.012 A 
ATOM     13  C   UNL     1       4.038  -0.873  -0.235  0.00  0.00    +0.001 A 
ATOM     14  C   UNL     1       3.278  -1.798  -0.934  0.00  0.00    +0.004 A 
ATOM     15  C   UNL     1       1.976  -1.512  -1.286  0.00  0.00    +0.047 A 
ATOM     16  C   UNL     1       1.412  -0.290  -0.942  0.00  0.00    +0.136 A 
ATOM     17  O   UNL     1       0.187   0.239  -1.154  0.00  0.00    -0.455 OA
BRANCH  10  18
ATOM     18  O   UNL     1       0.591   5.159   1.221  0.00  0.00    -0.493 OA
ATOM     19  C   UNL     1       1.865   5.426   1.811  0.00  0.00    +0.277 C 
ENDBRANCH  10  18
ENDBRANCH   3   5
BRANCH   1  21
ATOM     20  C   UNL     1      -4.127   5.884  -1.455  0.00  0.00    +0.062 C 
ATOM     21  C   UNL     1      -4.245   5.104  -0.144  0.00  0.00    +0.259 C 
BRANCH  21  22
ATOM     22  O   UNL     1      -5.514   4.399  -0.113  0.00  0.00    -0.448 OA
BRANCH  22  23
ATOM     23  C   UNL     1      -6.566   5.054   0.421  0.00  0.00    +0.348 C 
ATOM     24  O   UNL     1      -6.425   6.184   0.848  0.00  0.00    -0.244 OA
BRANCH  23  25
ATOM     25  C   UNL     1      -7.879   4.404   0.485  0.00  0.00    +0.116 A 
ATOM     26  C   UNL     1      -9.045   4.896   0.987  0.00  0.00    +0.070 A 
ATOM     27  C   UNL     1     -10.210   4.107   0.952  0.00  0.00    +0.008 A 
ATOM     28  C   UNL     1     -11.509   4.439   1.416  0.00  0.00    +0.010 A 
ATOM     29  C   UNL     1     -12.532   3.552   1.312  0.00  0.00    +0.001 A 
ATOM     30  C   UNL     1     -12.351   2.293   0.751  0.00  0.00    +0.001 A 
ATOM     31  C   UNL     1     -11.103   1.929   0.287  0.00  0.00    +0.016 A 
ATOM     32  C   UNL     1     -10.055   2.820   0.386  0.00  0.00    +0.022 A 
ATOM     33  S   UNL     1      -8.339   2.771  -0.067  0.00  0.00    -0.080 S 
ATOM     34 CL   UNL     1      -9.096   6.494   1.663  0.00  0.00    -0.082 Cl
ENDBRANCH  23  25
ENDBRANCH  22  23
ENDBRANCH  21  22
ENDBRANCH   1  21
TORSDOF 6
