REMARK  Name = ZINC09392347
REMARK  9 active torsions:
REMARK  status: ('A' for Active; 'I' for Inactive)
REMARK    1  A    between atoms: C_1  and  O_2
REMARK    2  A    between atoms: O_2  and  C_3
REMARK    3  A    between atoms: C_6  and  S_9
REMARK    4  A    between atoms: S_9  and  N_12
REMARK    5  A    between atoms: C_13  and  C_29
REMARK    6  A    between atoms: C_16  and  C_18
REMARK    7  A    between atoms: C_21  and  N_24
REMARK    8  A    between atoms: N_24  and  S_25
REMARK    9  A    between atoms: S_25  and  C_28
REMARK                            x       y       z     vdW  Elec       q    Type
REMARK                         _______ _______ _______ _____ _____    ______ ____
ROOT
ATOM      1  N   UNL     1      -0.795   1.917  -1.458  0.00  0.00    -0.115 N 
ATOM      2  C   UNL     1      -0.687   3.204  -2.165  0.00  0.00    +0.156 C 
ATOM      3  C   UNL     1      -1.787   3.118  -3.241  0.00  0.00    +0.088 C 
ATOM      4  C   UNL     1      -2.417   1.762  -3.012  0.00  0.00    +0.070 C 
ATOM      5  N   UNL     1      -1.825   1.174  -2.031  0.00  0.00    -0.167 NA
ENDROOT
BRANCH   2   6
ATOM      6  C   UNL     1      -0.951   4.350  -1.223  0.00  0.00    +0.012 A 
ATOM      7  C   UNL     1      -1.607   4.125  -0.027  0.00  0.00    +0.008 A 
ATOM      8  C   UNL     1      -1.849   5.176   0.837  0.00  0.00    +0.000 A 
ATOM      9  C   UNL     1      -1.435   6.453   0.507  0.00  0.00    +0.003 A 
ATOM     10  C   UNL     1      -0.779   6.681  -0.687  0.00  0.00    +0.039 A 
ATOM     11  C   UNL     1      -0.532   5.628  -1.552  0.00  0.00    +0.128 A 
ATOM     12  F   UNL     1       0.114   5.848  -2.718  0.00  0.00    -0.205 F 
ENDBRANCH   2   6
BRANCH   4  13
ATOM     13  C   UNL     1      -3.535   1.201  -3.792  0.00  0.00    -0.002 A 
ATOM     14  C   UNL     1      -4.101   1.938  -4.835  0.00  0.00    +0.011 A 
ATOM     15  C   UNL     1      -5.143   1.408  -5.565  0.00  0.00    +0.025 A 
ATOM     16  C   UNL     1      -5.637   0.145  -5.258  0.00  0.00    +0.048 A 
ATOM     17  C   UNL     1      -5.080  -0.589  -4.217  0.00  0.00    +0.025 A 
ATOM     18  C   UNL     1      -4.034  -0.068  -3.486  0.00  0.00    +0.011 A 
BRANCH  16  19
ATOM     19  N   UNL     1      -6.696  -0.387  -5.996  0.00  0.00    -0.221 N 
ATOM     20  H   UNL     1      -6.654  -1.302  -6.314  0.00  0.00    +0.173 HD
BRANCH  19  21
ATOM     21  S   UNL     1      -8.024   0.545  -6.329  0.00  0.00    +0.040 S 
ATOM     22  O   UNL     1      -7.502   1.708  -6.958  0.00  0.00    -0.155 OA
ATOM     23  O   UNL     1      -8.909  -0.321  -7.026  0.00  0.00    -0.155 OA
ATOM     24  C   UNL     1      -8.714   0.969  -4.706  0.00  0.00    +0.218 C 
ENDBRANCH  19  21
ENDBRANCH  16  19
ENDBRANCH   4  13
BRANCH   1  25
ATOM     25  S   UNL     1       0.149   1.435  -0.186  0.00  0.00    +0.089 S 
ATOM     26  O   UNL     1       0.211   0.016  -0.241  0.00  0.00    -0.149 OA
ATOM     27  O   UNL     1       1.313   2.250  -0.212  0.00  0.00    -0.149 OA
BRANCH  25  31
ATOM     28  C   UNL     1      -2.084   2.485   3.611  0.00  0.00    +0.120 A 
ATOM     29  C   UNL     1      -2.272   1.247   3.014  0.00  0.00    +0.047 A 
ATOM     30  C   UNL     1      -1.590   0.929   1.856  0.00  0.00    +0.032 A 
ATOM     31  C   UNL     1      -0.720   1.844   1.291  0.00  0.00    +0.110 A 
ATOM     32  C   UNL     1      -0.526   3.076   1.887  0.00  0.00    +0.032 A 
ATOM     33  C   UNL     1      -1.210   3.401   3.043  0.00  0.00    +0.047 A 
BRANCH  28  35
ATOM     34  C   UNL     1      -2.511   4.093   5.310  0.00  0.00    +0.277 C 
ATOM     35  O   UNL     1      -2.754   2.801   4.750  0.00  0.00    -0.495 OA
ENDBRANCH  28  35
ENDBRANCH  25  31
ENDBRANCH   1  25
TORSDOF 7
