REMARK  Name = ZINC39666137
REMARK  12 active torsions:
REMARK  status: ('A' for Active; 'I' for Inactive)
REMARK    1  A    between atoms: C_1  and  C_2
REMARK    2  A    between atoms: C_5  and  O_8
REMARK    3  A    between atoms: O_8  and  C_9
REMARK    4  A    between atoms: C_9  and  C_11
REMARK    5  A    between atoms: C_9  and  C_12
REMARK    6  A    between atoms: C_12  and  N_13
REMARK    7  A    between atoms: C_14  and  C_16
REMARK    8  A    between atoms: C_27  and  C_29
REMARK    9  A    between atoms: C_33  and  O_36
REMARK   10  A    between atoms: C_34  and  C_35
REMARK   11  A    between atoms: O_36  and  C_37
REMARK   12  A    between atoms: C_37  and  C_39
REMARK                            x       y       z     vdW  Elec       q    Type
REMARK                         _______ _______ _______ _____ _____    ______ ____
ROOT
ATOM      1  C   UNL     1      -4.489  -6.994   0.420  0.00  0.00    +0.100 C 
ATOM      2  C   UNL     1      -4.859  -5.934   1.482  0.00  0.00    +0.121 C 
ATOM      3  N   UNL     1      -6.171  -6.376   2.010  0.00  0.00    -0.296 N 
ATOM      4  C   UNL     1      -6.058  -7.851   2.093  0.00  0.00    +0.115 C 
ATOM      5  C   UNL     1      -5.277  -8.251   0.825  0.00  0.00    -0.004 C 
ATOM      6  C   UNL     1      -4.320  -9.398   1.135  0.00  0.00    -0.010 C 
ATOM      7  C   UNL     1      -5.127 -10.652   1.479  0.00  0.00    -0.082 C 
ATOM      8  N   UNL     1      -5.994 -11.004   0.347  0.00  0.00    +0.379 N 
ATOM      9  C   UNL     1      -6.973  -9.935   0.116  0.00  0.00    -0.082 C 
ATOM     10  C   UNL     1      -6.243  -8.650  -0.286  0.00  0.00    -0.010 C 
ATOM     11  C   UNL     1      -7.229  -5.609   2.340  0.00  0.00    +0.247 C 
ATOM     12  O   UNL     1      -8.274  -6.128   2.681  0.00  0.00    -0.270 OA
ATOM     13  H   UNL     1      -5.430 -11.128  -0.480  0.00  0.00    -0.086 HD
ATOM     14  H   UNL     1      -6.479 -11.865   0.552  0.00  0.00    -0.086 HD
ENDROOT
BRANCH  11  15
ATOM     15  C   UNL     1      -7.120  -4.135   2.286  0.00  0.00    +0.043 A 
ATOM     16  C   UNL     1      -5.930  -3.507   2.659  0.00  0.00    +0.013 A 
ATOM     17  C   UNL     1      -5.831  -2.132   2.607  0.00  0.00    +0.004 A 
ATOM     18  C   UNL     1      -6.907  -1.372   2.188  0.00  0.00    +0.047 A 
ATOM     19  C   UNL     1      -8.095  -1.988   1.816  0.00  0.00    +0.135 A 
ATOM     20  C   UNL     1      -8.203  -3.368   1.858  0.00  0.00    +0.004 A 
ATOM     21  C   UNL     1      -9.489  -4.038   1.449  0.00  0.00    +0.048 C 
BRANCH  19  22
ATOM     22  O   UNL     1      -9.149  -1.236   1.404  0.00  0.00    -0.426 OA
BRANCH  22  23
ATOM     23  C   UNL     1     -10.092  -0.923   2.308  0.00  0.00    +0.309 C 
ATOM     24  O   UNL     1      -9.942  -1.229   3.468  0.00  0.00    -0.251 OA
ATOM     25  C   UNL     1     -11.336  -0.191   1.877  0.00  0.00    +0.136 C 
ENDBRANCH  22  23
ENDBRANCH  19  22
ENDBRANCH  11  15
BRANCH   1  27
ATOM     26  N   UNL     1      -2.371  -7.648  -0.677  0.00  0.00    -0.312 N 
ATOM     27  C   UNL     1      -3.008  -7.271   0.449  0.00  0.00    +0.218 C 
ATOM     28  O   UNL     1      -2.390  -7.155   1.486  0.00  0.00    -0.275 OA
ATOM     29  H   UNL     1      -2.865  -7.741  -1.507  0.00  0.00    +0.149 HD
BRANCH  26  30
ATOM     30  C   UNL     1      -0.931  -7.917  -0.649  0.00  0.00    +0.148 C 
BRANCH  30  31
ATOM     31  C   UNL     1      -0.461  -8.323  -2.047  0.00  0.00    +0.187 C 
ATOM     32  C   UNL     1       1.043  -8.604  -2.018  0.00  0.00    +0.053 C 
BRANCH  31  33
ATOM     33  O   UNL     1      -1.157  -9.500  -2.461  0.00  0.00    -0.488 OA
BRANCH  33  38
ATOM     34  C   UNL     1      -1.591 -10.400  -8.004  0.00  0.00    +0.044 C 
ATOM     35  C   UNL     1      -1.475 -10.159  -6.521  0.00  0.00    -0.050 A 
ATOM     36  C   UNL     1      -0.864  -9.011  -6.054  0.00  0.00    +0.007 A 
ATOM     37  C   UNL     1      -0.756  -8.788  -4.695  0.00  0.00    +0.046 A 
ATOM     38  C   UNL     1      -1.263  -9.717  -3.798  0.00  0.00    +0.121 A 
ATOM     39  C   UNL     1      -1.876 -10.869  -4.269  0.00  0.00    +0.046 A 
ATOM     40  C   UNL     1      -1.986 -11.085  -5.629  0.00  0.00    +0.007 A 
ENDBRANCH  33  38
ENDBRANCH  31  33
ENDBRANCH  30  31
ENDBRANCH  26  30
ENDBRANCH   1  27
TORSDOF 8
