REMARK  Name = ZINC09236332
REMARK  8 active torsions:
REMARK  status: ('A' for Active; 'I' for Inactive)
REMARK    1  A    between atoms: C_1  and  C_2
REMARK    2  A    between atoms: C_2  and  C_3
REMARK    3  A    between atoms: C_8  and  N_9
REMARK    4  A    between atoms: C_10  and  C_12
REMARK    5  A    between atoms: C_14  and  C_24
REMARK    6  A    between atoms: C_18  and  C_23
REMARK    7  A    between atoms: C_27  and  O_31
REMARK    8  A    between atoms: O_31  and  C_32
REMARK                            x       y       z     vdW  Elec       q    Type
REMARK                         _______ _______ _______ _____ _____    ______ ____
ROOT
ATOM      1  C   UNL     1      -3.766  -0.669  -0.059  0.00  0.00    +0.166 C 
ATOM      2  C   UNL     1      -4.737   0.146  -0.923  0.00  0.00    +0.140 C 
ATOM      3  N   UNL     1      -4.679   1.563  -0.562  0.00  0.00    -0.272 N 
ATOM      4  N   UNL     1      -4.997   1.810   0.735  0.00  0.00    -0.225 N 
ATOM      5  C   UNL     1      -5.430   2.985   1.278  0.00  0.00    +0.148 A 
ATOM      6  N   UNL     1      -5.600   2.783   2.556  0.00  0.00    -0.132 NA
ATOM      7  N   UNL     1      -5.310   1.564   2.855  0.00  0.00    -0.121 NA
ATOM      8  C   UNL     1      -4.942   0.928   1.777  0.00  0.00    +0.209 A 
ATOM      9  S   UNL     1      -4.458  -0.764   1.620  0.00  0.00    -0.069 S 
ATOM     10  C   UNL     1      -5.667   4.277   0.539  0.00  0.00    +0.090 C 
ATOM     11  H   UNL     1      -3.781   1.959  -0.796  0.00  0.00    +0.167 HD
ENDROOT
BRANCH   2  12
ATOM     12  C   UNL     1      -4.363  -0.010  -2.375  0.00  0.00    -0.023 A 
ATOM     13  C   UNL     1      -3.326   0.735  -2.904  0.00  0.00    +0.009 A 
ATOM     14  C   UNL     1      -2.977   0.591  -4.233  0.00  0.00    +0.047 A 
ATOM     15  C   UNL     1      -3.676  -0.295  -5.040  0.00  0.00    +0.134 A 
ATOM     16  C   UNL     1      -4.720  -1.038  -4.508  0.00  0.00    +0.060 A 
ATOM     17  C   UNL     1      -5.061  -0.894  -3.176  0.00  0.00    +0.024 A 
ATOM     18 BR   UNL     1      -5.675  -2.248  -5.604  0.00  0.00    -0.047 Br
BRANCH  15  19
ATOM     19  O   UNL     1      -3.338  -0.434  -6.349  0.00  0.00    -0.494 OA
ATOM     20  C   UNL     1      -2.253   0.363  -6.828  0.00  0.00    +0.277 C 
ENDBRANCH  15  19
ENDBRANCH   2  12
BRANCH   1  22
ATOM     21  N   UNL     1      -2.117   0.840   1.000  0.00  0.00    -0.284 N 
ATOM     22  C   UNL     1      -2.423   0.013  -0.020  0.00  0.00    +0.233 C 
ATOM     23  O   UNL     1      -1.618  -0.182  -0.905  0.00  0.00    -0.274 OA
ATOM     24  H   UNL     1      -2.727   0.935   1.748  0.00  0.00    +0.155 HD
BRANCH  21  30
ATOM     25  C   UNL     1      -0.395   2.076   2.158  0.00  0.00    -0.026 A 
ATOM     26  C   UNL     1       0.788   2.788   2.134  0.00  0.00    +0.005 A 
ATOM     27  C   UNL     1       1.451   2.990   0.938  0.00  0.00    +0.000 A 
ATOM     28  C   UNL     1       0.933   2.480  -0.238  0.00  0.00    +0.002 A 
ATOM     29  C   UNL     1      -0.250   1.766  -0.221  0.00  0.00    +0.023 A 
ATOM     30  C   UNL     1      -0.918   1.562   0.979  0.00  0.00    +0.037 A 
BRANCH  25  32
ATOM     31  C   UNL     1      -0.715   0.501   4.047  0.00  0.00    +0.009 C 
ATOM     32  C   UNL     1      -1.118   1.857   3.462  0.00  0.00    +0.033 C 
ENDBRANCH  25  32
ENDBRANCH  21  30
ENDBRANCH   1  22
TORSDOF 5
