REMARK  Name = ZINC38976801
REMARK  9 active torsions:
REMARK  status: ('A' for Active; 'I' for Inactive)
REMARK    1  A    between atoms: C_1  and  C_2
REMARK    2  A    between atoms: C_6  and  S_8
REMARK    3  A    between atoms: S_8  and  N_11
REMARK    4  A    between atoms: C_13  and  N_23
REMARK    5  A    between atoms: N_23  and  C_24
REMARK    6  A    between atoms: C_24  and  C_25
REMARK    7  A    between atoms: C_25  and  C_26
REMARK    8  A    between atoms: C_26  and  C_27
REMARK    9  A    between atoms: C_26  and  C_28
REMARK                            x       y       z     vdW  Elec       q    Type
REMARK                         _______ _______ _______ _____ _____    ______ ____
ROOT
ATOM      1  N   UNL     1       1.644  -3.200   3.123  0.00  0.00    -0.112 NA
ATOM      2  C   UNL     1       1.946  -3.836   4.216  0.00  0.00    +0.167 C 
ATOM      3  C   UNL     1       3.391  -4.044   4.609  0.00  0.00    +0.217 C 
ATOM      4  N   UNL     1       3.666  -4.771   5.858  0.00  0.00    -0.362 N 
ATOM      5  C   UNL     1       2.657  -5.200   6.563  0.00  0.00    +0.060 A 
ATOM      6  C   UNL     1       2.878  -5.932   7.819  0.00  0.00    +0.027 A 
ATOM      7  C   UNL     1       1.807  -6.360   8.523  0.00  0.00    +0.002 A 
ATOM      8  C   UNL     1       0.493  -6.124   8.086  0.00  0.00    +0.002 A 
ATOM      9  C   UNL     1       0.212  -5.459   6.944  0.00  0.00    +0.028 A 
ATOM     10  C   UNL     1       1.259  -4.964   6.126  0.00  0.00    +0.064 A 
ATOM     11  N   UNL     1       0.979  -4.313   5.016  0.00  0.00    -0.338 N 
ATOM     12  H   UNL     1       4.578  -4.928   6.150  0.00  0.00    +0.162 HD
ATOM     13  H   UNL     1       0.051  -4.178   4.769  0.00  0.00    +0.167 HD
ENDROOT
BRANCH   1  14
ATOM     14  S   UNL     1       0.057  -2.973   2.709  0.00  0.00    +0.100 S 
ATOM     15  O   UNL     1      -0.500  -2.110   3.691  0.00  0.00    -0.146 OA
ATOM     16  O   UNL     1      -0.479  -4.260   2.433  0.00  0.00    -0.146 OA
BRANCH  14  22
ATOM     17  C   UNL     1      -0.018   1.503   0.010  0.00  0.00    +0.044 C 
ATOM     18  C   UNL     1       0.002  -0.004   0.002  0.00  0.00    -0.049 A 
ATOM     19  C   UNL     1       0.006  -0.689  -1.199  0.00  0.00    +0.003 A 
ATOM     20  C   UNL     1       0.025  -2.071  -1.207  0.00  0.00    +0.002 A 
ATOM     21  C   UNL     1       0.040  -2.768  -0.013  0.00  0.00    +0.029 A 
ATOM     22  C   UNL     1       0.037  -2.084   1.188  0.00  0.00    +0.113 A 
ATOM     23  C   UNL     1       0.023  -0.702   1.195  0.00  0.00    +0.032 A 
ENDBRANCH  14  22
ENDBRANCH   1  14
BRANCH   3  24
ATOM     24  N   UNL     1       4.022  -2.721   4.713  0.00  0.00    -0.291 NA
ATOM     25  H   UNL     1       3.422  -2.004   4.333  0.00  0.00    +0.124 HD
BRANCH  24  26
ATOM     26  C   UNL     1       5.336  -2.711   4.056  0.00  0.00    +0.083 C 
BRANCH  26  27
ATOM     27  C   UNL     1       5.960  -1.321   4.185  0.00  0.00    +0.018 C 
BRANCH  27  28
ATOM     28  C   UNL     1       7.329  -1.310   3.501  0.00  0.00    -0.016 C 
ATOM     29  C   UNL     1       7.898   0.110   3.520  0.00  0.00    +0.007 C 
ATOM     30  C   UNL     1       8.278  -2.251   4.245  0.00  0.00    +0.007 C 
ENDBRANCH  27  28
ENDBRANCH  26  27
ENDBRANCH  24  26
ENDBRANCH   3  24
TORSDOF 6
