REMARK  Name = ZINC00823439
REMARK  12 active torsions:
REMARK  status: ('A' for Active; 'I' for Inactive)
REMARK    1  A    between atoms: C_1  and  C_2
REMARK    2  A    between atoms: C_3  and  C_30
REMARK    3  A    between atoms: C_4  and  C_16
REMARK    4  A    between atoms: C_10  and  C_14
REMARK    5  A    between atoms: C_10  and  C_15
REMARK    6  A    between atoms: C_19  and  O_22
REMARK    7  A    between atoms: O_22  and  C_23
REMARK    8  A    between atoms: C_23  and  C_24
REMARK    9  A    between atoms: C_30  and  O_32
REMARK   10  A    between atoms: O_32  and  C_33
REMARK   11  A    between atoms: C_33  and  C_34
REMARK   12  A    between atoms: C_33  and  C_35
REMARK                            x       y       z     vdW  Elec       q    Type
REMARK                         _______ _______ _______ _____ _____    ______ ____
ROOT
ATOM      1  C   UNL     1      -1.768  -1.269  -4.413  0.00  0.00    +0.061 C 
ATOM      2  C   UNL     1      -0.273  -1.430  -4.520  0.00  0.00    +0.016 C 
ATOM      3  C   UNL     1       0.519  -0.983  -3.530  0.00  0.00    +0.065 C 
ATOM      4  C   UNL     1       2.012  -1.113  -3.608  0.00  0.00    +0.092 C 
ATOM      5  C   UNL     1       2.411  -2.142  -4.638  0.00  0.00    +0.024 C 
ATOM      6  C   UNL     1       1.537  -2.543  -5.585  0.00  0.00    +0.016 C 
ATOM      7  N   UNL     1       0.268  -2.029  -5.623  0.00  0.00    -0.321 N 
ATOM      8  C   UNL     1       1.930  -3.567  -6.621  0.00  0.00    +0.058 C 
ATOM      9  C   UNL     1       3.428  -3.456  -6.911  0.00  0.00    -0.023 C 
ATOM     10  C   UNL     1       4.194  -3.667  -5.600  0.00  0.00    +0.086 C 
ATOM     11  C   UNL     1       3.716  -2.661  -4.588  0.00  0.00    +0.162 C 
ATOM     12  O   UNL     1       4.473  -2.292  -3.712  0.00  0.00    -0.292 OA
ATOM     13  C   UNL     1       3.741  -2.068  -7.472  0.00  0.00    +0.011 C 
ATOM     14  C   UNL     1       3.841  -4.526  -7.924  0.00  0.00    +0.011 C 
ATOM     15  H   UNL     1      -0.316  -2.102  -6.552  0.00  0.00    +0.152 HD
ENDROOT
BRANCH   4  16
ATOM     16  C   UNL     1       2.605   0.222  -3.980  0.00  0.00    -0.035 A 
ATOM     17  C   UNL     1       2.259   0.823  -5.176  0.00  0.00    +0.008 A 
ATOM     18  C   UNL     1       2.797   2.048  -5.516  0.00  0.00    +0.046 A 
ATOM     19  C   UNL     1       3.696   2.671  -4.662  0.00  0.00    +0.121 A 
ATOM     20  C   UNL     1       4.046   2.064  -3.465  0.00  0.00    +0.046 A 
ATOM     21  C   UNL     1       3.500   0.841  -3.127  0.00  0.00    +0.008 A 
BRANCH  19  22
ATOM     22  O   UNL     1       4.232   3.874  -4.997  0.00  0.00    -0.487 OA
BRANCH  22  23
ATOM     23  C   UNL     1       3.825   4.440  -6.245  0.00  0.00    +0.264 C 
BRANCH  23  24
ATOM     24  C   UNL     1       4.517   5.764  -6.445  0.00  0.00    -0.010 A 
ATOM     25  C   UNL     1       3.925   6.929  -5.994  0.00  0.00    +0.007 A 
ATOM     26  C   UNL     1       4.562   8.142  -6.172  0.00  0.00    +0.000 A 
ATOM     27  C   UNL     1       5.787   8.192  -6.813  0.00  0.00    +0.000 A 
ATOM     28  C   UNL     1       6.376   7.028  -7.269  0.00  0.00    +0.000 A 
ATOM     29  C   UNL     1       5.741   5.814  -7.085  0.00  0.00    +0.007 A 
ENDBRANCH  23  24
ENDBRANCH  22  23
ENDBRANCH  19  22
ENDBRANCH   4  16
BRANCH   3  30
ATOM     30  C   UNL     1      -0.066  -0.374  -2.395  0.00  0.00    +0.338 C 
ATOM     31  O   UNL     1      -0.116  -0.976  -1.339  0.00  0.00    -0.245 OA
BRANCH  30  32
ATOM     32  O   UNL     1      -0.568   0.876  -2.484  0.00  0.00    -0.459 OA
BRANCH  32  33
ATOM     33  C   UNL     1      -1.144   1.429  -1.299  0.00  0.00    +0.171 C 
ATOM     34  C   UNL     1      -2.634   1.084  -1.246  0.00  0.00    +0.052 C 
ATOM     35  C   UNL     1      -0.973   2.950  -1.311  0.00  0.00    +0.052 C 
ENDBRANCH  32  33
ENDBRANCH  30  32
ENDBRANCH   3  30
TORSDOF 7
