REMARK  Name = ZINC20503916
REMARK  8 active torsions:
REMARK  status: ('A' for Active; 'I' for Inactive)
REMARK    1  A    between atoms: N_10  and  C_13
REMARK    2  A    between atoms: C_13  and  C_14
REMARK    3  A    between atoms: C_23  and  C_25
REMARK    4  A    between atoms: C_25  and  N_26
REMARK    5  A    between atoms: N_26  and  C_27
REMARK    6  A    between atoms: C_27  and  N_29
REMARK    7  A    between atoms: N_29  and  C_30
REMARK    8  A    between atoms: C_33  and  N_36
REMARK                            x       y       z     vdW  Elec       q    Type
REMARK                         _______ _______ _______ _____ _____    ______ ____
ROOT
ATOM      1  C   UNL     1      -1.784   5.419  -1.169  0.00  0.00    -0.011 C 
ATOM      2  C   UNL     1      -1.878   3.940  -1.554  0.00  0.00    -0.073 C 
ATOM      3  N   UNL     1      -2.698   3.229  -0.563  0.00  0.00    +0.383 N 
ATOM      4  C   UNL     1      -4.069   3.757  -0.539  0.00  0.00    -0.078 C 
ATOM      5  C   UNL     1      -4.039   5.231  -0.125  0.00  0.00    -0.015 C 
ATOM      6  C   UNL     1      -2.583   5.646   0.121  0.00  0.00    -0.012 C 
ATOM      7  C   UNL     1      -1.998   4.753   1.222  0.00  0.00    -0.010 C 
ATOM      8  C   UNL     1      -2.085   3.292   0.771  0.00  0.00    -0.051 C 
ATOM      9  H   UNL     1      -2.748   2.171  -0.861  0.00  0.00    -0.081 HD
ENDROOT
BRANCH   1  10
ATOM     10  C   UNL     1      -0.320   5.797  -0.939  0.00  0.00    +0.086 C 
BRANCH  10  20
ATOM     11  C   UNL     1       0.882  13.467  -1.557  0.00  0.00    +0.005 A 
ATOM     12  C   UNL     1       1.165  13.882  -0.262  0.00  0.00    +0.018 A 
ATOM     13  C   UNL     1       1.340  12.936   0.728  0.00  0.00    +0.084 A 
ATOM     14  N   UNL     1       1.237  11.648   0.459  0.00  0.00    -0.350 N 
ATOM     15  C   UNL     1       0.974  11.213  -0.763  0.00  0.00    +0.099 A 
ATOM     16  C   UNL     1       0.786  12.111  -1.809  0.00  0.00    +0.042 A 
ATOM     17  N   UNL     1       0.880   9.847  -1.003  0.00  0.00    -0.314 N 
ATOM     18  C   UNL     1       1.112   9.079   0.229  0.00  0.00    +0.122 C 
ATOM     19  C   UNL     1       1.079   7.583  -0.091  0.00  0.00    +0.103 C 
ATOM     20  N   UNL     1      -0.221   7.241  -0.686  0.00  0.00    -0.299 NA
ATOM     21  C   UNL     1      -0.452   8.008  -1.918  0.00  0.00    +0.103 C 
ATOM     22  C   UNL     1      -0.419   9.504  -1.597  0.00  0.00    +0.122 C 
ATOM     23  H   UNL     1       1.370  10.907   1.261  0.00  0.00    +0.166 HD
ENDBRANCH  10  20
ENDBRANCH   1  10
BRANCH   8  24
ATOM     24  C   UNL     1      -0.680   2.690   0.716  0.00  0.00    +0.088 C 
BRANCH  24  25
ATOM     25  N   UNL     1      -0.751   1.332   0.171  0.00  0.00    -0.328 N 
ATOM     26  H   UNL     1      -1.723   0.907  -0.122  0.00  0.00    +0.148 HD
BRANCH  25  27
ATOM     27  C   UNL     1       0.373   0.603   0.029  0.00  0.00    +0.134 C 
ATOM     28  S   UNL     1       1.886   1.266   0.479  0.00  0.00    -0.019 S 
BRANCH  27  29
ATOM     29  N   UNL     1       0.308  -0.647  -0.472  0.00  0.00    -0.297 N 
ATOM     30  H   UNL     1      -0.670  -1.098  -0.697  0.00  0.00    +0.154 HD
BRANCH  29  31
ATOM     31  C   UNL     1       1.483  -1.370  -0.706  0.00  0.00    +0.033 A 
ATOM     32  C   UNL     1       1.643  -2.070  -1.895  0.00  0.00    +0.025 A 
ATOM     33  C   UNL     1       2.804  -2.780  -2.127  0.00  0.00    +0.029 A 
ATOM     34  C   UNL     1       3.808  -2.801  -1.169  0.00  0.00    +0.065 A 
ATOM     35  C   UNL     1       3.647  -2.105   0.022  0.00  0.00    +0.029 A 
ATOM     36  C   UNL     1       2.488  -1.391   0.253  0.00  0.00    +0.025 A 
BRANCH  34  37
ATOM     37  N   UNL     1       4.986  -3.526  -1.403  0.00  0.00    -0.240 N 
ATOM     38  C   UNL     1       5.271  -4.243  -2.513  0.00  0.00    +0.114 A 
ATOM     39  C   UNL     1       6.500  -4.788  -2.346  0.00  0.00    +0.041 A 
ATOM     40  C   UNL     1       6.981  -4.390  -1.095  0.00  0.00    +0.135 A 
ATOM     41  N   UNL     1       6.078  -3.629  -0.531  0.00  0.00    -0.175 NA
ENDBRANCH  34  37
ENDBRANCH  29  31
ENDBRANCH  27  29
ENDBRANCH  25  27
ENDBRANCH  24  25
ENDBRANCH   8  24
TORSDOF 8
