REMARK  Name = ZINC15672931
REMARK  8 active torsions:
REMARK  status: ('A' for Active; 'I' for Inactive)
REMARK    1  A    between atoms: C_1  and  C_2
REMARK    2  A    between atoms: C_2  and  C_24
REMARK    3  A    between atoms: N_14  and  C_15
REMARK    4  A    between atoms: C_15  and  C_16
REMARK    5  A    between atoms: C_16  and  N_77
REMARK    6  A    between atoms: C_17  and  N_77
REMARK    7  A    between atoms: C_18  and  N_77
REMARK    8  A    between atoms: N_26  and  C_27
REMARK                            x       y       z     vdW  Elec       q    Type
REMARK                         _______ _______ _______ _____ _____    ______ ____
ROOT
ATOM      1  C   UNL     1       0.447  -1.450  -6.840  0.00  0.00    +0.043 C 
ATOM      2  C   UNL     1       0.783  -2.389  -5.681  0.00  0.00    +0.128 C 
ATOM      3  C   UNL     1       2.043  -3.180  -6.035  0.00  0.00    +0.157 C 
ATOM      4  N   UNL     1       1.703  -4.201  -7.029  0.00  0.00    -0.333 N 
ATOM      5  C   UNL     1       2.503  -4.758  -8.010  0.00  0.00    +0.057 A 
ATOM      6  C   UNL     1       3.816  -4.649  -8.492  0.00  0.00    +0.034 A 
ATOM      7  C   UNL     1       4.227  -5.418  -9.521  0.00  0.00    +0.048 A 
ATOM      8  S   UNL     1       2.770  -6.375  -9.901  0.00  0.00    -0.095 S 
ATOM      9  C   UNL     1       1.692  -5.696  -8.667  0.00  0.00    +0.038 A 
ATOM     10  C   UNL     1       0.426  -5.698  -8.094  0.00  0.00    +0.048 A 
ATOM     11  C   UNL     1       0.437  -4.772  -7.093  0.00  0.00    +0.106 A 
ATOM     12  C   UNL     1      -0.627  -4.343  -6.177  0.00  0.00    +0.264 C 
ATOM     13  O   UNL     1      -1.686  -4.939  -6.099  0.00  0.00    -0.268 OA
ATOM     14  N   UNL     1      -0.364  -3.251  -5.423  0.00  0.00    -0.282 N 
ENDROOT
BRANCH   2  15
ATOM     15  C   UNL     1       1.058  -1.563  -4.450  0.00  0.00    +0.238 C 
ATOM     16  O   UNL     1       1.225  -0.366  -4.548  0.00  0.00    -0.273 OA
ATOM     17  N   UNL     1       1.117  -2.155  -3.241  0.00  0.00    -0.311 N 
ATOM     18  H   UNL     1       0.904  -3.097  -3.151  0.00  0.00    +0.149 HD
BRANCH  17  19
ATOM     19  C   UNL     1       1.504  -1.375  -2.062  0.00  0.00    +0.073 C 
ATOM     20  C   UNL     1       2.091  -2.310  -1.003  0.00  0.00    +0.022 C 
ATOM     21  C   UNL     1       2.849  -1.486   0.040  0.00  0.00    +0.002 C 
ATOM     22  C   UNL     1       1.848  -0.797   0.970  0.00  0.00    +0.000 C 
ATOM     23  C   UNL     1       1.911   0.717   0.756  0.00  0.00    +0.000 C 
ATOM     24  C   UNL     1       1.959   1.018  -0.744  0.00  0.00    +0.000 C 
ATOM     25  C   UNL     1       0.566   0.827  -1.347  0.00  0.00    +0.002 C 
ATOM     26  C   UNL     1       0.273  -0.667  -1.493  0.00  0.00    +0.022 C 
ENDBRANCH  17  19
ENDBRANCH   2  15
BRANCH  14  27
ATOM     27  C   UNL     1      -1.264  -2.921  -4.315  0.00  0.00    +0.091 C 
BRANCH  27  28
ATOM     28  C   UNL     1      -2.448  -2.109  -4.843  0.00  0.00    -0.060 C 
BRANCH  28  30
ATOM     29  C   UNL     1      -3.974  -2.991  -3.182  0.00  0.00    -0.096 C 
ATOM     30  N   UNL     1      -3.334  -1.767  -3.710  0.00  0.00    +0.381 N 
ATOM     31  H   UNL     1      -2.773  -1.336  -2.966  0.00  0.00    -0.082 HD
BRANCH  30  32
ATOM     32  C   UNL     1      -4.368  -0.806  -4.150  0.00  0.00    -0.069 C 
ATOM     33  C   UNL     1      -3.682   0.477  -4.623  0.00  0.00    -0.015 C 
ATOM     34  C   UNL     1      -4.742   1.490  -5.059  0.00  0.00    -0.002 C 
ATOM     35  C   UNL     1      -5.661   1.809  -3.877  0.00  0.00    -0.000 C 
ATOM     36  C   UNL     1      -6.346   0.525  -3.404  0.00  0.00    -0.002 C 
ATOM     37  C   UNL     1      -5.286  -0.488  -2.968  0.00  0.00    -0.015 C 
ENDBRANCH  30  32
ENDBRANCH  28  30
ENDBRANCH  27  28
ENDBRANCH  14  27
TORSDOF 6
