REMARK  Name = ZINC65204437
REMARK  8 active torsions:
REMARK  status: ('A' for Active; 'I' for Inactive)
REMARK    1  A    between atoms: C_1  and  O_2
REMARK    2  A    between atoms: O_2  and  C_3
REMARK    3  A    between atoms: C_3  and  C_4
REMARK    4  A    between atoms: C_4  and  C_5
REMARK    5  A    between atoms: C_5  and  N_6
REMARK    6  A    between atoms: N_9  and  N_10
REMARK    7  A    between atoms: C_11  and  C_13
REMARK    8  A    between atoms: C_15  and  C_19
REMARK                            x       y       z     vdW  Elec       q    Type
REMARK                         _______ _______ _______ _____ _____    ______ ____
ROOT
ATOM      1  N   UNL     1       1.180  -6.877  -1.956  0.00  0.00    -0.228 N 
ATOM      2  C   UNL     1       1.146  -8.222  -1.871  0.00  0.00    +0.279 C 
ATOM      3  O   UNL     1       1.648  -8.900  -2.748  0.00  0.00    -0.267 OA
ATOM      4  H   UNL     1       0.780  -6.337  -1.258  0.00  0.00    +0.173 HD
ENDROOT
BRANCH   2   5
ATOM      5  C   UNL     1       0.502  -8.870  -0.719  0.00  0.00    +0.136 A 
ATOM      6  C   UNL     1       0.390 -10.230  -0.484  0.00  0.00    +0.071 A 
ATOM      7  C   UNL     1      -0.296 -10.341   0.728  0.00  0.00    +0.081 A 
ATOM      8  N   UNL     1      -0.557  -9.132   1.154  0.00  0.00    -0.177 NA
ATOM      9  N   UNL     1      -0.102  -8.249   0.340  0.00  0.00    -0.271 N 
ATOM     10  H   UNL     1      -0.177  -7.289   0.456  0.00  0.00    +0.189 HD
ATOM     11 BR   UNL     1       1.030 -11.637  -1.573  0.00  0.00    -0.046 Br
BRANCH   7  12
ATOM     12  C   UNL     1      -0.670 -11.626   1.421  0.00  0.00    +0.041 C 
ATOM     13  C   UNL     1      -1.595 -11.530   2.636  0.00  0.00    +0.010 C 
ATOM     14  C   UNL     1      -0.113 -11.858   2.827  0.00  0.00    +0.010 C 
ENDBRANCH   7  12
ENDBRANCH   2   5
BRANCH   1  18
ATOM     15  N   UNL     1       1.272  -4.165  -2.169  0.00  0.00    -0.298 N 
ATOM     16  C   UNL     1       1.828  -4.916  -3.140  0.00  0.00    +0.316 C 
ATOM     17  O   UNL     1       2.361  -4.380  -4.093  0.00  0.00    -0.251 OA
ATOM     18  N   UNL     1       1.794  -6.260  -3.054  0.00  0.00    -0.218 N 
ATOM     19  H   UNL     1       0.847  -4.592  -1.409  0.00  0.00    +0.150 HD
ATOM     20  H   UNL     1       2.194  -6.801  -3.753  0.00  0.00    +0.174 HD
BRANCH  15  21
ATOM     21  C   UNL     1       1.309  -2.703  -2.261  0.00  0.00    +0.108 C 
BRANCH  21  22
ATOM     22  C   UNL     1       0.613  -2.097  -1.041  0.00  0.00    +0.047 C 
BRANCH  22  23
ATOM     23  C   UNL     1       0.652  -0.570  -1.138  0.00  0.00    +0.161 C 
BRANCH  23  25
ATOM     24  C   UNL     1      -0.017   1.425   0.010  0.00  0.00    +0.193 C 
ATOM     25  O   UNL     1       0.002  -0.004   0.002  0.00  0.00    -0.383 OA
ENDBRANCH  23  25
ENDBRANCH  22  23
ENDBRANCH  21  22
ENDBRANCH  15  21
ENDBRANCH   1  18
TORSDOF 7
