REMARK  Name = ZINC04175852
REMARK  3 active torsions:
REMARK  status: ('A' for Active; 'I' for Inactive)
REMARK    1  A    between atoms: C_5  and  O_18
REMARK    2  A    between atoms: C_6  and  C_7
REMARK    3  A    between atoms: N_8  and  C_9
REMARK                            x       y       z     vdW  Elec       q    Type
REMARK                         _______ _______ _______ _____ _____    ______ ____
ROOT
ATOM      1  C   UNL     1      -1.257  -0.760   0.011  0.00  0.00    +0.125 C 
ATOM      2  N   UNL     1      -1.235  -2.067   0.003  0.00  0.00    -0.229 NA
ENDROOT
BRANCH   2   3
ATOM      3  C   UNL     1      -2.401  -2.766   0.011  0.00  0.00    +0.193 A 
ATOM      4  N   UNL     1      -3.650  -2.322   0.020  0.00  0.00    -0.226 NA
ATOM      5  C   UNL     1      -4.695  -3.139   0.027  0.00  0.00    +0.054 A 
ATOM      6  C   UNL     1      -4.436  -4.478   0.025  0.00  0.00    +0.015 A 
ATOM      7  S   UNL     1      -2.664  -4.537   0.004  0.00  0.00    -0.053 S 
ATOM      8  C   UNL     1      -5.417  -5.601   0.034  0.00  0.00    +0.044 C 
ATOM      9  C   UNL     1      -6.795  -5.034   0.410  0.00  0.00    +0.006 C 
ATOM     10  C   UNL     1      -7.053  -3.777  -0.425  0.00  0.00    +0.006 C 
ATOM     11  C   UNL     1      -6.138  -2.642   0.035  0.00  0.00    +0.056 C 
ENDBRANCH   2   3
BRANCH   1  17
ATOM     12  C   UNL     1      -0.017   1.395   0.010  0.00  0.00    +0.033 A 
ATOM     13  C   UNL     1       1.169   2.098   0.002  0.00  0.00    +0.043 A 
ATOM     14  C   UNL     1       2.381   1.426  -0.013  0.00  0.00    +0.043 A 
ATOM     15  C   UNL     1       2.414   0.043  -0.022  0.00  0.00    +0.084 A 
ATOM     16  C   UNL     1       1.232  -0.681  -0.014  0.00  0.00    +0.144 A 
ATOM     17  C   UNL     1       0.002  -0.004   0.002  0.00  0.00    +0.037 A 
ATOM     18 CL   UNL     1       3.939  -0.787  -0.042  0.00  0.00    -0.080 Cl
ATOM     19 CL   UNL     1       1.145   3.834   0.012  0.00  0.00    -0.083 Cl
BRANCH  16  20
ATOM     20  O   UNL     1       1.263  -2.038  -0.022  0.00  0.00    -0.505 OA
ATOM     21  H   UNL     1       1.282  -2.436   0.859  0.00  0.00    +0.292 HD
ENDBRANCH  16  20
ENDBRANCH   1  17
TORSDOF 3
