REMARK  Name = ZINC04117297
REMARK  3 active torsions:
REMARK  status: ('A' for Active; 'I' for Inactive)
REMARK    1  A    between atoms: C_10  and  O_25
REMARK    2  A    between atoms: C_12  and  N_18
REMARK    3  A    between atoms: C_13  and  N_17
REMARK                            x       y       z     vdW  Elec       q    Type
REMARK                         _______ _______ _______ _____ _____    ______ ____
ROOT
ATOM      1  C   UNL     1      -1.882  -9.042   2.552  0.00  0.00    +0.001 A 
ATOM      2  C   UNL     1      -0.555  -8.936   2.930  0.00  0.00    +0.001 A 
ATOM      3  C   UNL     1       0.089  -7.713   2.889  0.00  0.00    +0.012 A 
ATOM      4  C   UNL     1      -0.600  -6.580   2.463  0.00  0.00    +0.033 A 
ATOM      5  C   UNL     1      -1.948  -6.688   2.078  0.00  0.00    +0.033 A 
ATOM      6  C   UNL     1      -2.581  -7.927   2.126  0.00  0.00    +0.012 A 
ATOM      7  C   UNL     1      -2.687  -5.491   1.625  0.00  0.00    +0.198 C 
ATOM      8  O   UNL     1      -3.854  -5.586   1.293  0.00  0.00    -0.286 OA
ATOM      9  C   UNL     1      -2.013  -4.188   1.578  0.00  0.00    +0.076 A 
ATOM     10  C   UNL     1      -2.708  -3.051   1.151  0.00  0.00    +0.130 A 
ATOM     11  C   UNL     1      -2.068  -1.816   1.113  0.00  0.00    +0.071 A 
ATOM     12  C   UNL     1      -0.741  -1.702   1.484  0.00  0.00    +0.055 A 
ATOM     13  C   UNL     1      -0.025  -2.834   1.917  0.00  0.00    +0.058 A 
ATOM     14  C   UNL     1      -0.658  -4.077   1.964  0.00  0.00    +0.059 A 
ATOM     15  C   UNL     1       0.079  -5.268   2.415  0.00  0.00    +0.196 C 
ATOM     16  O   UNL     1       1.246  -5.173   2.747  0.00  0.00    -0.287 OA
ENDROOT
BRANCH  12  17
ATOM     17  N   UNL     1      -0.113  -0.463   1.435  0.00  0.00    -0.328 N 
ATOM     18  C   UNL     1       0.239   0.005   2.791  0.00  0.00    +0.105 C 
ATOM     19  C   UNL     1       1.470   0.870   2.681  0.00  0.00    +0.019 C 
ATOM     20  C   UNL     1       1.107   2.361   2.582  0.00  0.00    +0.002 C 
ATOM     21  C   UNL     1      -0.111   2.599   1.667  0.00  0.00    +0.002 C 
ATOM     22  C   UNL     1      -0.074   1.752   0.420  0.00  0.00    +0.019 C 
ATOM     23  C   UNL     1      -0.856   0.446   0.676  0.00  0.00    +0.105 C 
ENDBRANCH  12  17
BRANCH  13  24
ATOM     24  N   UNL     1       1.304  -2.715   2.294  0.00  0.00    -0.356 N 
ATOM     25  H   UNL     1       1.689  -3.347   2.921  0.00  0.00    +0.142 HD
ATOM     26  H   UNL     1       1.848  -1.999   1.931  0.00  0.00    +0.142 HD
ENDBRANCH  13  24
BRANCH  10  27
ATOM     27  O   UNL     1      -4.008  -3.152   0.779  0.00  0.00    -0.506 OA
ATOM     28  H   UNL     1      -4.636  -3.021   1.503  0.00  0.00    +0.292 HD
ENDBRANCH  10  27
TORSDOF 3
