REMARK  Name = ZINC39674591
REMARK  7 active torsions:
REMARK  status: ('A' for Active; 'I' for Inactive)
REMARK    1  A    between atoms: C_1  and  C_2
REMARK    2  A    between atoms: C_4  and  C_14
REMARK    3  A    between atoms: C_7  and  C_12
REMARK    4  A    between atoms: C_14  and  C_15
REMARK    5  A    between atoms: C_15  and  N_16
REMARK    6  A    between atoms: C_17  and  C_19
REMARK    7  A    between atoms: C_30  and  C_32
REMARK                            x       y       z     vdW  Elec       q    Type
REMARK                         _______ _______ _______ _____ _____    ______ ____
ROOT
ATOM      1  C   UNL     1       1.844  -1.180  -7.012  0.00  0.00    +0.100 C 
ATOM      2  C   UNL     1       1.569   0.297  -7.375  0.00  0.00    +0.121 C 
ATOM      3  N   UNL     1       2.781   0.734  -8.107  0.00  0.00    -0.296 N 
ATOM      4  C   UNL     1       3.145  -0.433  -8.947  0.00  0.00    +0.115 C 
ATOM      5  C   UNL     1       2.876  -1.656  -8.048  0.00  0.00    -0.004 C 
ATOM      6  C   UNL     1       2.304  -2.803  -8.875  0.00  0.00    -0.010 C 
ATOM      7  C   UNL     1       3.368  -3.299  -9.858  0.00  0.00    -0.082 C 
ATOM      8  N   UNL     1       4.552  -3.747  -9.115  0.00  0.00    +0.379 N 
ATOM      9  C   UNL     1       5.151  -2.615  -8.396  0.00  0.00    -0.082 C 
ATOM     10  C   UNL     1       4.161  -2.091  -7.351  0.00  0.00    -0.010 C 
ATOM     11  C   UNL     1       3.410   1.923  -8.029  0.00  0.00    +0.248 C 
ATOM     12  O   UNL     1       4.343   2.167  -8.768  0.00  0.00    -0.270 OA
ATOM     13  H   UNL     1       4.283  -4.459  -8.453  0.00  0.00    -0.086 HD
ATOM     14  H   UNL     1       5.228  -4.129  -9.760  0.00  0.00    -0.086 HD
ENDROOT
BRANCH  11  15
ATOM     15  C   UNL     1       2.964   2.931  -7.044  0.00  0.00    +0.055 A 
ATOM     16  C   UNL     1       1.608   3.060  -6.737  0.00  0.00    +0.014 A 
ATOM     17  C   UNL     1       1.199   4.002  -5.817  0.00  0.00    +0.001 A 
ATOM     18  C   UNL     1       2.129   4.819  -5.197  0.00  0.00    +0.001 A 
ATOM     19  C   UNL     1       3.474   4.697  -5.495  0.00  0.00    +0.021 A 
ATOM     20  C   UNL     1       3.898   3.754  -6.410  0.00  0.00    +0.053 A 
ATOM     21 CL   UNL     1       5.588   3.597  -6.778  0.00  0.00    -0.083 Cl
ENDBRANCH  11  15
BRANCH   1  23
ATOM     22  N   UNL     1       2.223  -2.401  -4.894  0.00  0.00    -0.315 N 
ATOM     23  C   UNL     1       2.412  -1.281  -5.620  0.00  0.00    +0.218 C 
ATOM     24  O   UNL     1       3.040  -0.354  -5.153  0.00  0.00    -0.275 OA
ATOM     25  H   UNL     1       1.721  -3.142  -5.268  0.00  0.00    +0.149 HD
BRANCH  22  26
ATOM     26  C   UNL     1       2.776  -2.498  -3.541  0.00  0.00    +0.108 C 
BRANCH  26  27
ATOM     27  C   UNL     1       2.421  -3.861  -2.942  0.00  0.00    +0.052 C 
BRANCH  27  30
ATOM     28  C   UNL     1       1.403  -5.412  -0.285  0.00  0.00    +0.035 C 
ATOM     29  C   UNL     1       2.873  -5.135  -0.604  0.00  0.00    +0.103 C 
ATOM     30  C   UNL     1       2.989  -3.962  -1.551  0.00  0.00    -0.037 C 
ATOM     31  C   UNL     1       3.709  -3.018  -0.892  0.00  0.00    +0.000 A 
ATOM     32  C   UNL     1       4.134  -1.717  -1.270  0.00  0.00    +0.028 A 
ATOM     33  C   UNL     1       4.869  -0.950  -0.396  0.00  0.00    +0.052 A 
ATOM     34  C   UNL     1       5.228  -1.445   0.929  0.00  0.00    +0.021 A 
ATOM     35  C   UNL     1       4.851  -2.673   1.342  0.00  0.00    +0.027 A 
ATOM     36  C   UNL     1       4.066  -3.532   0.448  0.00  0.00    +0.043 A 
ATOM     37  N   UNL     1       3.590  -4.743   0.614  0.00  0.00    -0.378 N 
ATOM     38  H   UNL     1       3.693  -5.289   1.410  0.00  0.00    +0.160 HD
BRANCH  33  39
ATOM     39  C   UNL     1       5.289   0.360  -0.793  0.00  0.00    +0.099 C 
ATOM     40  N   UNL     1       5.623   1.399  -1.109  0.00  0.00    -0.191 NA
ENDBRANCH  33  39
ENDBRANCH  27  30
ENDBRANCH  26  27
ENDBRANCH  22  26
ENDBRANCH   1  23
TORSDOF 6
