REMARK  Name = ZINC21309863
REMARK  7 active torsions:
REMARK  status: ('A' for Active; 'I' for Inactive)
REMARK    1  A    between atoms: C_11  and  C_30
REMARK    2  A    between atoms: C_14  and  C_16
REMARK    3  A    between atoms: C_16  and  N_17
REMARK    4  A    between atoms: N_17  and  C_18
REMARK    5  A    between atoms: N_17  and  C_24
REMARK    6  A    between atoms: C_18  and  C_19
REMARK    7  A    between atoms: C_24  and  C_25
REMARK                            x       y       z     vdW  Elec       q    Type
REMARK                         _______ _______ _______ _____ _____    ______ ____
ROOT
ATOM      1  C   UNL     1      -0.958   1.332   0.674  0.00  0.00    +0.002 A 
ATOM      2  C   UNL     1      -2.139   1.993   0.388  0.00  0.00    +0.002 A 
ATOM      3  C   UNL     1      -2.164   3.373   0.304  0.00  0.00    +0.025 A 
ATOM      4  C   UNL     1      -0.999   4.096   0.502  0.00  0.00    +0.058 A 
ATOM      5  C   UNL     1       0.197   3.428   0.769  0.00  0.00    +0.055 A 
ATOM      6  C   UNL     1       0.211   2.046   0.859  0.00  0.00    +0.025 A 
ATOM      7  N   UNL     1       1.374   4.171   0.920  0.00  0.00    -0.284 N 
ATOM      8  C   UNL     1       1.407   5.246   1.737  0.00  0.00    +0.219 C 
ATOM      9  O   UNL     1       2.408   5.928   1.796  0.00  0.00    -0.275 OA
ATOM     10  C   UNL     1       0.209   5.604   2.576  0.00  0.00    +0.128 C 
ATOM     11  C   UNL     1      -0.872   6.246   1.705  0.00  0.00    +0.194 C 
ATOM     12  N   UNL     1      -1.011   5.497   0.454  0.00  0.00    -0.259 N 
ATOM     13  C   UNL     1      -1.148   6.143  -0.721  0.00  0.00    +0.204 C 
ATOM     14  O   UNL     1      -1.158   7.356  -0.749  0.00  0.00    -0.277 OA
ATOM     15  H   UNL     1       2.281   3.880   0.370  0.00  0.00    +0.155 HD
ENDROOT
BRANCH  11  16
ATOM     16  C   UNL     1      -2.205   6.232   2.455  0.00  0.00    +0.409 C 
ATOM     17  F   UNL     1      -2.077   6.953   3.647  0.00  0.00    -0.169 F 
ATOM     18  F   UNL     1      -3.194   6.819   1.659  0.00  0.00    -0.169 F 
ATOM     19  F   UNL     1      -2.563   4.911   2.745  0.00  0.00    -0.169 F 
ENDBRANCH  11  16
BRANCH  13  20
ATOM     20  C   UNL     1      -1.291   5.359  -2.000  0.00  0.00    +0.020 C 
BRANCH  20  21
ATOM     21  N   UNL     1      -1.425   6.286  -3.131  0.00  0.00    +0.393 N 
ATOM     22  H   UNL     1      -2.231   6.995  -2.892  0.00  0.00    -0.080 HD
BRANCH  21  23
ATOM     23  C   UNL     1      -0.189   7.056  -3.329  0.00  0.00    -0.002 C 
BRANCH  23  24
ATOM     24  C   UNL     1       0.966   6.110  -3.531  0.00  0.00    +0.089 A 
ATOM     25  C   UNL     1       1.448   5.700  -4.718  0.00  0.00    +0.042 A 
ATOM     26  C   UNL     1       2.526   4.827  -4.443  0.00  0.00    +0.041 A 
ATOM     27  C   UNL     1       2.632   4.750  -3.104  0.00  0.00    +0.195 A 
ATOM     28  O   UNL     1       1.685   5.529  -2.557  0.00  0.00    -0.470 OA
ENDBRANCH  23  24
ENDBRANCH  21  23
BRANCH  21  29
ATOM     29  C   UNL     1      -1.801   5.570  -4.357  0.00  0.00    -0.034 C 
BRANCH  29  30
ATOM     30  C   UNL     1      -2.295   6.557  -5.383  0.00  0.00    -0.027 A 
ATOM     31  C   UNL     1      -1.615   7.148  -6.396  0.00  0.00    +0.009 A 
ATOM     32  C   UNL     1      -2.282   8.029  -7.226  0.00  0.00    +0.008 A 
ATOM     33  C   UNL     1      -3.594   8.284  -6.997  0.00  0.00    +0.045 A 
ATOM     34  S   UNL     1      -3.926   7.256  -5.576  0.00  0.00    -0.103 S 
ENDBRANCH  29  30
ENDBRANCH  21  29
ENDBRANCH  20  21
ENDBRANCH  13  20
TORSDOF 7
