REMARK  Name = ZINC65002500
REMARK  16 active torsions:
REMARK  status: ('A' for Active; 'I' for Inactive)
REMARK    1  A    between atoms: C_1  and  C_2
REMARK    2  A    between atoms: C_2  and  C_3
REMARK    3  A    between atoms: C_3  and  N_4
REMARK    4  A    between atoms: N_4  and  C_5
REMARK    5  A    between atoms: C_5  and  C_6
REMARK    6  A    between atoms: C_6  and  C_7
REMARK    7  A    between atoms: C_8  and  C_10
REMARK    8  A    between atoms: C_10  and  O_11
REMARK    9  A    between atoms: O_11  and  C_12
REMARK   10  A    between atoms: C_15  and  C_20
REMARK   11  A    between atoms: C_17  and  O_18
REMARK   12  A    between atoms: O_18  and  C_19
REMARK   13  A    between atoms: C_32  and  C_36
REMARK   14  A    between atoms: C_36  and  C_37
REMARK   15  A    between atoms: C_36  and  C_38
REMARK   16  A    between atoms: C_36  and  C_39
REMARK                            x       y       z     vdW  Elec       q    Type
REMARK                         _______ _______ _______ _____ _____    ______ ____
ROOT
ATOM      1  C   UNL     1      -1.455  -2.302  -4.811  0.00  0.00    +0.163 A 
ATOM      2  C   UNL     1      -1.470  -0.925  -4.983  0.00  0.00    +0.050 A 
ATOM      3  C   UNL     1      -1.489  -0.387  -6.252  0.00  0.00    +0.015 A 
ATOM      4  C   UNL     1      -1.494  -1.227  -7.367  0.00  0.00    +0.021 A 
ATOM      5  C   UNL     1      -1.479  -2.614  -7.194  0.00  0.00    +0.061 A 
ATOM      6  C   UNL     1      -1.454  -3.147  -5.919  0.00  0.00    +0.162 A 
ENDROOT
BRANCH   4   7
ATOM      7  C   UNL     1      -1.515  -0.652  -8.727  0.00  0.00    +0.142 A 
ATOM      8  N   UNL     1      -1.524   0.707  -8.884  0.00  0.00    -0.306 N 
ATOM      9  H   UNL     1      -1.517   1.277  -8.100  0.00  0.00    +0.170 HD
ATOM     10  C   UNL     1      -1.542   1.266 -10.108  0.00  0.00    +0.260 A 
ATOM     11  O   UNL     1      -1.549   2.479 -10.234  0.00  0.00    -0.267 OA
ATOM     12  C   UNL     1      -1.552   0.416 -11.262  0.00  0.00    +0.075 A 
ATOM     13  C   UNL     1      -1.570   0.803 -12.672  0.00  0.00    -0.023 A 
ATOM     14  C   UNL     1      -1.577  -0.194 -13.582  0.00  0.00    -0.004 A 
ATOM     15  S   UNL     1      -1.560  -1.687 -12.626  0.00  0.00    -0.073 S 
ATOM     16  C   UNL     1      -1.543  -0.965 -11.005  0.00  0.00    +0.116 A 
ATOM     17  N   UNL     1      -1.519  -1.454  -9.771  0.00  0.00    -0.222 NA
ATOM     18  C   UNL     1      -1.594  -0.062 -15.074  0.00  0.00    +0.046 C 
ATOM     19  C   UNL     1      -1.227   1.384 -15.436  0.00  0.00    -0.000 C 
ATOM     20  C   UNL     1      -2.058   2.333 -14.568  0.00  0.00    +0.009 C 
ATOM     21  C   UNL     1      -1.581   2.263 -13.117  0.00  0.00    +0.037 C 
BRANCH  19  22
ATOM     22  C   UNL     1      -1.530   1.636 -16.914  0.00  0.00    -0.035 C 
ATOM     23  C   UNL     1      -3.021   1.410 -17.174  0.00  0.00    +0.011 C 
ATOM     24  C   UNL     1      -1.164   3.078 -17.272  0.00  0.00    +0.011 C 
ATOM     25  C   UNL     1      -0.711   0.673 -17.775  0.00  0.00    +0.011 C 
ENDBRANCH  19  22
ENDBRANCH   4   7
BRANCH   6  26
ATOM     26  O   UNL     1      -1.433  -4.495  -5.747  0.00  0.00    -0.491 OA
ATOM     27  C   UNL     1      -1.434  -5.301  -6.927  0.00  0.00    +0.277 C 
ENDBRANCH   6  26
BRANCH   1  28
ATOM     28  O   UNL     1      -1.436  -2.828  -3.558  0.00  0.00    -0.479 OA
BRANCH  28  29
ATOM     29  C   UNL     1      -1.438  -1.906  -2.467  0.00  0.00    +0.324 C 
BRANCH  29  31
ATOM     30  N   UNL     1      -1.413  -1.998   0.005  0.00  0.00    -0.299 N 
ATOM     31  C   UNL     1      -1.415  -2.666  -1.166  0.00  0.00    +0.253 C 
ATOM     32  O   UNL     1      -1.399  -3.879  -1.173  0.00  0.00    -0.272 OA
BRANCH  30  33
ATOM     33  C   UNL     1      -1.433  -0.534   0.013  0.00  0.00    +0.107 C 
BRANCH  33  35
ATOM     34  C   UNL     1      -0.019   1.526   0.010  0.00  0.00    +0.005 C 
ATOM     35  C   UNL     1       0.002  -0.004   0.002  0.00  0.00    +0.016 C 
ENDBRANCH  33  35
ENDBRANCH  30  33
BRANCH  30  36
ATOM     36  C   UNL     1      -1.391  -2.738   1.269  0.00  0.00    +0.107 C 
BRANCH  36  37
ATOM     37  C   UNL     1      -2.826  -3.015   1.723  0.00  0.00    +0.016 C 
ATOM     38  C   UNL     1      -2.803  -3.787   3.044  0.00  0.00    +0.005 C 
ENDBRANCH  36  37
ENDBRANCH  30  36
ENDBRANCH  29  31
ENDBRANCH  28  29
ENDBRANCH   1  28
TORSDOF 10
