REMARK  Name = ZINC40319804
REMARK  2 active torsions:
REMARK  status: ('A' for Active; 'I' for Inactive)
REMARK    1  A    between atoms: C_15  and  C_17
REMARK    2  A    between atoms: C_19  and  N_23
REMARK                            x       y       z     vdW  Elec       q    Type
REMARK                         _______ _______ _______ _____ _____    ______ ____
ROOT
ATOM      1  C   UNL     1       1.200   1.411  -2.607  0.00  0.00    +0.001 A 
ATOM      2  C   UNL     1       2.491   1.867  -2.834  0.00  0.00    +0.002 A 
ATOM      3  C   UNL     1       3.576   1.062  -2.564  0.00  0.00    +0.026 A 
ATOM      4  C   UNL     1       3.380  -0.219  -2.061  0.00  0.00    +0.047 A 
ATOM      5  C   UNL     1       2.068  -0.677  -1.832  0.00  0.00    +0.005 A 
ATOM      6  C   UNL     1       0.983   0.156  -2.112  0.00  0.00    +0.010 A 
ATOM      7  C   UNL     1       2.206  -2.034  -1.314  0.00  0.00    -0.002 A 
ATOM      8  C   UNL     1       3.522  -2.315  -1.259  0.00  0.00    +0.023 A 
ATOM      9  N   UNL     1       4.237  -1.236  -1.700  0.00  0.00    -0.358 N 
ATOM     10  H   UNL     1       5.204  -1.193  -1.752  0.00  0.00    +0.166 HD
ATOM     11  C   UNL     1       4.085  -3.635  -0.784  0.00  0.00    +0.072 C 
ATOM     12  C   UNL     1       3.012  -4.372   0.024  0.00  0.00    +0.114 C 
ATOM     13  N   UNL     1       1.733  -4.308  -0.700  0.00  0.00    -0.292 N 
ATOM     14  C   UNL     1       1.112  -2.986  -0.898  0.00  0.00    +0.145 C 
ATOM     15  C   UNL     1       1.146  -5.426  -1.169  0.00  0.00    +0.263 C 
ATOM     16  O   UNL     1       1.729  -6.492  -1.106  0.00  0.00    -0.268 OA
ENDROOT
BRANCH  15  17
ATOM     17  C   UNL     1      -0.196  -5.359  -1.757  0.00  0.00    +0.104 A 
ATOM     18  C   UNL     1      -0.778  -6.310  -2.569  0.00  0.00    +0.055 A 
ATOM     19  C   UNL     1      -2.058  -5.843  -2.900  0.00  0.00    +0.043 A 
ATOM     20  C   UNL     1      -2.229  -4.638  -2.295  0.00  0.00    +0.106 A 
ATOM     21  N   UNL     1      -1.104  -4.338  -1.593  0.00  0.00    -0.355 N 
ATOM     22  H   UNL     1      -0.964  -3.535  -1.066  0.00  0.00    +0.166 HD
BRANCH  19  23
ATOM     23  N   UNL     1      -2.997  -6.504  -3.713  0.00  0.00    -0.357 N 
ATOM     24  H   UNL     1      -2.781  -7.366  -4.102  0.00  0.00    +0.142 HD
ATOM     25  H   UNL     1      -3.861  -6.098  -3.885  0.00  0.00    +0.142 HD
ENDBRANCH  19  23
ENDBRANCH  15  17
TORSDOF 2
