REMARK  Name = ZINC08846715
REMARK  5 active torsions:
REMARK  status: ('A' for Active; 'I' for Inactive)
REMARK    1  A    between atoms: C_1  and  C_2
REMARK    2  A    between atoms: C_7  and  C_17
REMARK    3  A    between atoms: C_29  and  C_31
REMARK    4  A    between atoms: C_31  and  O_33
REMARK    5  A    between atoms: O_33  and  C_34
REMARK                            x       y       z     vdW  Elec       q    Type
REMARK                         _______ _______ _______ _____ _____    ______ ____
ROOT
ATOM      1  C   UNL     1       1.830   1.688  -4.258  0.00  0.00    +0.009 C 
ATOM      2  C   UNL     1       3.344   1.476  -4.207  0.00  0.00    +0.013 C 
ATOM      3  C   UNL     1       3.654   0.091  -3.643  0.00  0.00    +0.055 C 
ATOM      4  C   UNL     1       3.089  -0.037  -2.239  0.00  0.00    +0.017 C 
ATOM      5  C   UNL     1       3.015   1.036  -1.431  0.00  0.00    +0.037 C 
ATOM      6  C   UNL     1       2.490   1.045  -0.016  0.00  0.00    +0.137 C 
ATOM      7  N   UNL     1       2.286  -0.267   0.559  0.00  0.00    -0.331 N 
ATOM      8  C   UNL     1       1.332  -1.139   0.036  0.00  0.00    +0.049 A 
ATOM      9  C   UNL     1       0.225  -1.528   0.772  0.00  0.00    +0.025 A 
ATOM     10  C   UNL     1      -0.720  -2.357   0.192  0.00  0.00    +0.002 A 
ATOM     11  C   UNL     1      -0.564  -2.792  -1.111  0.00  0.00    +0.002 A 
ATOM     12  C   UNL     1       0.550  -2.419  -1.843  0.00  0.00    +0.025 A 
ATOM     13  C   UNL     1       1.506  -1.609  -1.257  0.00  0.00    +0.052 A 
ATOM     14  N   UNL     1       2.701  -1.291  -1.892  0.00  0.00    -0.316 N 
ATOM     15  C   UNL     1       3.450   2.302  -1.890  0.00  0.00    +0.177 C 
ATOM     16  O   UNL     1       3.389   3.252  -1.135  0.00  0.00    -0.291 OA
ATOM     17  C   UNL     1       3.984   2.513  -3.276  0.00  0.00    +0.171 C 
ATOM     18  H   UNL     1       2.820  -0.544   1.320  0.00  0.00    +0.147 HD
ATOM     19  H   UNL     1       3.304  -2.021  -2.104  0.00  0.00    +0.152 HD
ENDROOT
BRANCH   6  20
ATOM     20  C   UNL     1       1.176   1.783   0.000  0.00  0.00    -0.005 A 
ATOM     21  C   UNL     1       0.091   1.276  -0.691  0.00  0.00    +0.056 A 
ATOM     22  C   UNL     1      -1.116   1.955  -0.682  0.00  0.00    +0.167 A 
ATOM     23  C   UNL     1      -1.238   3.143   0.034  0.00  0.00    +0.167 A 
ATOM     24  C   UNL     1      -0.147   3.647   0.724  0.00  0.00    +0.065 A 
ATOM     25  C   UNL     1       1.057   2.966   0.707  0.00  0.00    +0.027 A 
ATOM     26 BR   UNL     1       2.544   3.655   1.650  0.00  0.00    -0.050 Br
ATOM     27  O   UNL     1      -2.513   3.610  -0.107  0.00  0.00    -0.453 OA
ATOM     28  C   UNL     1      -3.284   2.486  -0.573  0.00  0.00    +0.466 C 
ATOM     29  O   UNL     1      -2.318   1.672  -1.264  0.00  0.00    -0.453 OA
ENDBRANCH   6  20
BRANCH  17  30
ATOM     30  C   UNL     1       3.634   3.901  -3.747  0.00  0.00    +0.318 C 
ATOM     31  O   UNL     1       2.943   4.050  -4.728  0.00  0.00    -0.250 OA
BRANCH  30  32
ATOM     32  O   UNL     1       4.088   4.972  -3.078  0.00  0.00    -0.467 OA
ATOM     33  C   UNL     1       3.712   6.277  -3.589  0.00  0.00    +0.280 C 
ENDBRANCH  30  32
ENDBRANCH  17  30
TORSDOF 3
