REMARK  Name = ZINC14459023
REMARK  5 active torsions:
REMARK  status: ('A' for Active; 'I' for Inactive)
REMARK    1  A    between atoms: C_1  and  O_2
REMARK    2  A    between atoms: O_2  and  C_3
REMARK    3  A    between atoms: C_5  and  C_10
REMARK    4  A    between atoms: C_8  and  O_9
REMARK    5  A    between atoms: C_20  and  N_27
REMARK                            x       y       z     vdW  Elec       q    Type
REMARK                         _______ _______ _______ _____ _____    ______ ____
ROOT
ATOM      1  C   UNL     1       1.429   2.788  -0.230  0.00  0.00    +0.105 C 
ATOM      2  C   UNL     1       1.386   3.268   1.206  0.00  0.00    +0.029 C 
ATOM      3  C   UNL     1       0.455   2.541   2.182  0.00  0.00    +0.033 C 
ATOM      4  C   UNL     1       1.195   2.734   3.509  0.00  0.00    -0.030 C 
ATOM      5  C   UNL     1       2.494   2.894   3.283  0.00  0.00    -0.023 C 
ATOM      6  C   UNL     1       2.736   2.787   1.823  0.00  0.00    +0.051 C 
ATOM      7  C   UNL     1       3.808   3.542   1.137  0.00  0.00    +0.014 A 
ATOM      8  C   UNL     1       4.970   3.904   1.787  0.00  0.00    +0.132 A 
ATOM      9  C   UNL     1       5.960   4.598   1.119  0.00  0.00    +0.036 A 
ATOM     10  C   UNL     1       5.784   4.931  -0.212  0.00  0.00    +0.042 A 
ATOM     11  C   UNL     1       4.625   4.577  -0.868  0.00  0.00    +0.145 A 
ATOM     12  C   UNL     1       3.611   3.881  -0.203  0.00  0.00    +0.069 A 
ATOM     13  N   UNL     1       2.450   3.587  -0.924  0.00  0.00    -0.334 N 
ATOM     14  F   UNL     1       4.466   4.907  -2.169  0.00  0.00    -0.204 F 
ATOM     15  H   UNL     1       2.673   3.188  -1.823  0.00  0.00    +0.147 HD
ENDROOT
BRANCH   1  18
ATOM     16  C   UNL     1       1.163  -0.980  -0.181  0.00  0.00    +0.162 A 
ATOM     17  C   UNL     1       0.821   0.362  -0.142  0.00  0.00    +0.054 A 
ATOM     18  C   UNL     1       1.801   1.328  -0.272  0.00  0.00    -0.023 A 
ATOM     19  C   UNL     1       3.123   0.959  -0.441  0.00  0.00    +0.009 A 
ATOM     20  C   UNL     1       3.470  -0.379  -0.480  0.00  0.00    +0.049 A 
ATOM     21  C   UNL     1       2.493  -1.352  -0.351  0.00  0.00    +0.158 A 
BRANCH  16  23
ATOM     22  C   UNL     1      -1.144  -1.477   0.119  0.00  0.00    +0.277 C 
ATOM     23  O   UNL     1       0.200  -1.932  -0.053  0.00  0.00    -0.491 OA
ENDBRANCH  16  23
BRANCH  21  24
ATOM     24  O   UNL     1       2.833  -2.669  -0.389  0.00  0.00    -0.503 OA
ATOM     25  H   UNL     1       2.818  -3.053  -1.276  0.00  0.00    +0.292 HD
ENDBRANCH  21  24
ENDBRANCH   1  18
BRANCH   8  26
ATOM     26  N   UNL     1       5.157   3.546   3.211  0.00  0.00    +0.057 N 
ATOM     27  O   UNL     1       5.483   4.400   4.016  0.00  0.00    -0.126 OA
ATOM     28  O   UNL     1       4.985   2.397   3.577  0.00  0.00    -0.126 OA
ENDBRANCH   8  26
TORSDOF 4
