REMARK  Name = ZINC15275259
REMARK  7 active torsions:
REMARK  status: ('A' for Active; 'I' for Inactive)
REMARK    1  A    between atoms: C_1  and  C_2
REMARK    2  A    between atoms: C_6  and  N_8
REMARK    3  A    between atoms: C_21  and  S_22
REMARK    4  A    between atoms: S_22  and  C_23
REMARK    5  A    between atoms: C_23  and  C_24
REMARK    6  A    between atoms: N_26  and  C_27
REMARK    7  A    between atoms: C_27  and  C_34
REMARK                            x       y       z     vdW  Elec       q    Type
REMARK                         _______ _______ _______ _____ _____    ______ ____
ROOT
ATOM      1  N   UNL     1       0.254  -2.824   2.397  0.00  0.00    -0.233 N 
ATOM      2  C   UNL     1      -0.019  -4.152   2.528  0.00  0.00    +0.126 C 
ATOM      3  C   UNL     1      -0.122  -5.091   1.480  0.00  0.00    +0.040 C 
ATOM      4  C   UNL     1      -0.069  -4.840   0.100  0.00  0.00    +0.123 C 
ATOM      5  N   UNL     1      -0.201  -5.968  -0.559  0.00  0.00    -0.254 NA
ATOM      6  C   UNL     1      -0.347  -7.021   0.264  0.00  0.00    +0.072 A 
ATOM      7  C   UNL     1      -0.302  -6.545   1.596  0.00  0.00    +0.012 A 
ATOM      8  C   UNL     1      -0.425  -7.434   2.660  0.00  0.00    +0.011 A 
ATOM      9  C   UNL     1      -0.586  -8.769   2.410  0.00  0.00    +0.001 A 
ATOM     10  C   UNL     1      -0.628  -9.244   1.105  0.00  0.00    +0.002 A 
ATOM     11  C   UNL     1      -0.518  -8.394   0.043  0.00  0.00    +0.028 A 
ATOM     12  N   UNL     1      -0.172  -4.405   3.843  0.00  0.00    -0.221 N 
ATOM     13  N   UNL     1       0.013  -3.197   4.528  0.00  0.00    -0.158 NA
ATOM     14  C   UNL     1       0.272  -2.266   3.654  0.00  0.00    +0.184 C 
ATOM     15  H   UNL     1      -0.375  -5.265   4.242  0.00  0.00    +0.176 HD
ENDROOT
BRANCH   1  21
ATOM     16  C   UNL     1      -1.482  -0.188  -1.374  0.00  0.00    +0.044 C 
ATOM     17  C   UNL     1      -0.340  -0.860  -0.656  0.00  0.00    -0.049 A 
ATOM     18  C   UNL     1       0.937  -0.806  -1.185  0.00  0.00    +0.003 A 
ATOM     19  C   UNL     1       1.987  -1.421  -0.529  0.00  0.00    +0.002 A 
ATOM     20  C   UNL     1       1.764  -2.091   0.658  0.00  0.00    +0.024 A 
ATOM     21  C   UNL     1       0.484  -2.146   1.193  0.00  0.00    +0.042 A 
ATOM     22  C   UNL     1      -0.568  -1.523   0.534  0.00  0.00    +0.027 A 
ENDBRANCH   1  21
BRANCH  14  23
ATOM     23  S   UNL     1       0.587  -0.571   4.021  0.00  0.00    -0.079 S 
BRANCH  23  24
ATOM     24  C   UNL     1       0.467  -0.484   5.829  0.00  0.00    +0.172 C 
BRANCH  24  25
ATOM     25  C   UNL     1       0.720   0.931   6.281  0.00  0.00    +0.224 C 
ATOM     26  O   UNL     1       0.957   1.796   5.464  0.00  0.00    -0.275 OA
ATOM     27  N   UNL     1       0.681   1.236   7.593  0.00  0.00    -0.308 N 
ATOM     28  H   UNL     1       0.491   0.545   8.247  0.00  0.00    +0.149 HD
BRANCH  27  29
ATOM     29  C   UNL     1       0.927   2.612   8.033  0.00  0.00    +0.052 C 
ATOM     30  C   UNL     1      -0.060   3.537   7.322  0.00  0.00    +0.049 C 
ATOM     31  C   UNL     1      -1.358   3.689   8.163  0.00  0.00    +0.168 C 
ATOM     32  S   UNL     1      -0.620   3.776   9.854  0.00  0.00    -0.029 S 
ATOM     33  O   UNL     1      -0.152   5.096  10.092  0.00  0.00    -0.174 OA
ATOM     34  O   UNL     1      -1.506   3.166  10.782  0.00  0.00    -0.174 OA
ATOM     35  C   UNL     1       0.820   2.665   9.570  0.00  0.00    +0.191 C 
ATOM     36  C   UNL     1       2.347   3.009   7.626  0.00  0.00    +0.033 C 
ENDBRANCH  27  29
ENDBRANCH  24  25
ENDBRANCH  23  24
ENDBRANCH  14  23
TORSDOF 5
