REMARK  Name = ZINC40405836
REMARK  10 active torsions:
REMARK  status: ('A' for Active; 'I' for Inactive)
REMARK    1  A    between atoms: C_1  and  C_2
REMARK    2  A    between atoms: C_2  and  C_3
REMARK    3  A    between atoms: C_2  and  C_4
REMARK    4  A    between atoms: C_4  and  C_5
REMARK    5  A    between atoms: N_7  and  C_8
REMARK    6  A    between atoms: C_11  and  C_14
REMARK    7  A    between atoms: C_16  and  C_29
REMARK    8  A    between atoms: N_18  and  C_22
REMARK    9  A    between atoms: C_22  and  C_23
REMARK   10  A    between atoms: N_31  and  C_32
REMARK                            x       y       z     vdW  Elec       q    Type
REMARK                         _______ _______ _______ _____ _____    ______ ____
ROOT
ATOM      1  C   UNL     1       8.485   0.962  -1.659  0.00  0.00    +0.238 C 
ATOM      2  C   UNL     1       8.797   2.286  -2.396  0.00  0.00    +0.211 C 
ATOM      3  N   UNL     1      10.136   2.023  -2.958  0.00  0.00    -0.248 N 
ATOM      4  C   UNL     1      10.360   0.697  -2.881  0.00  0.00    +0.405 C 
ATOM      5  O   UNL     1      11.393   0.168  -3.240  0.00  0.00    -0.226 OA
ATOM      6  O   UNL     1       9.319   0.022  -2.363  0.00  0.00    -0.440 OA
ENDROOT
BRANCH   1  10
ATOM      7  C   UNL     1       4.356  -0.068  -2.053  0.00  0.00    +0.033 A 
ATOM      8  C   UNL     1       4.806   0.573  -0.907  0.00  0.00    +0.024 A 
ATOM      9  C   UNL     1       6.141   0.904  -0.782  0.00  0.00    +0.009 A 
ATOM     10  C   UNL     1       7.029   0.599  -1.798  0.00  0.00    -0.005 A 
ATOM     11  C   UNL     1       6.583  -0.038  -2.941  0.00  0.00    +0.009 A 
ATOM     12  C   UNL     1       5.250  -0.378  -3.069  0.00  0.00    +0.024 A 
BRANCH   7  15
ATOM     13  C   UNL     1       2.650  -1.541  -2.816  0.00  0.00    +0.217 C 
ATOM     14  O   UNL     1       3.497  -2.228  -3.346  0.00  0.00    -0.275 OA
ATOM     15  N   UNL     1       3.004  -0.405  -2.183  0.00  0.00    -0.285 N 
ATOM     16  H   UNL     1       2.321   0.179  -1.817  0.00  0.00    +0.155 HD
BRANCH  13  17
ATOM     17  C   UNL     1       1.203  -1.957  -2.864  0.00  0.00    +0.099 C 
BRANCH  17  19
ATOM     18  C   UNL     1       1.791  -4.385  -2.868  0.00  0.00    +0.008 C 
ATOM     19  C   UNL     1       1.076  -3.272  -3.636  0.00  0.00    -0.008 C 
ATOM     20  C   UNL     1      -0.403  -3.631  -3.793  0.00  0.00    +0.008 C 
ENDBRANCH  17  19
ENDBRANCH  13  17
ENDBRANCH   7  15
ENDBRANCH   1  10
BRANCH   2  21
ATOM     21  C   UNL     1       7.792   2.541  -3.489  0.00  0.00    +0.242 C 
ATOM     22  O   UNL     1       8.072   2.285  -4.641  0.00  0.00    -0.273 OA
ATOM     23  N   UNL     1       6.583   3.054  -3.187  0.00  0.00    -0.284 N 
ATOM     24  H   UNL     1       6.382   3.320  -2.276  0.00  0.00    +0.155 HD
BRANCH  23  25
ATOM     25  C   UNL     1       5.616   3.201  -4.188  0.00  0.00    +0.033 A 
ATOM     26  C   UNL     1       4.272   3.018  -3.889  0.00  0.00    +0.023 A 
ATOM     27  C   UNL     1       3.320   3.164  -4.879  0.00  0.00    +0.002 A 
ATOM     28  C   UNL     1       3.704   3.494  -6.166  0.00  0.00    +0.000 A 
ATOM     29  C   UNL     1       5.041   3.676  -6.467  0.00  0.00    +0.002 A 
ATOM     30  C   UNL     1       5.997   3.537  -5.480  0.00  0.00    +0.023 A 
ENDBRANCH  23  25
ENDBRANCH   2  21
BRANCH   3  31
ATOM     31  C   UNL     1      11.057   3.024  -3.501  0.00  0.00    +0.147 C 
BRANCH  31  32
ATOM     32  C   UNL     1      11.947   3.538  -2.400  0.00  0.00    -0.030 A 
ATOM     33  C   UNL     1      11.558   4.633  -1.651  0.00  0.00    +0.005 A 
ATOM     34  C   UNL     1      12.374   5.105  -0.640  0.00  0.00    +0.000 A 
ATOM     35  C   UNL     1      13.580   4.483  -0.378  0.00  0.00    +0.000 A 
ATOM     36  C   UNL     1      13.969   3.387  -1.126  0.00  0.00    +0.000 A 
ATOM     37  C   UNL     1      13.151   2.913  -2.134  0.00  0.00    +0.005 A 
ENDBRANCH  31  32
ENDBRANCH   3  31
TORSDOF 8
