REMARK  Name = ZINC59422577
REMARK  6 active torsions:
REMARK  status: ('A' for Active; 'I' for Inactive)
REMARK    1  A    between atoms: C_1  and  C_2
REMARK    2  A    between atoms: N_7  and  C_11
REMARK    3  A    between atoms: C_8  and  C_10
REMARK    4  A    between atoms: C_14  and  N_26
REMARK    5  A    between atoms: C_16  and  S_17
REMARK    6  A    between atoms: S_17  and  N_20
REMARK                            x       y       z     vdW  Elec       q    Type
REMARK                         _______ _______ _______ _____ _____    ______ ____
ROOT
ATOM      1  C   UNL     1       0.298  -2.307   2.605  0.00  0.00    +0.057 A 
ATOM      2  C   UNL     1       1.102  -2.424   3.732  0.00  0.00    +0.027 A 
ATOM      3  C   UNL     1       0.925  -3.485   4.598  0.00  0.00    +0.034 A 
ATOM      4  C   UNL     1      -0.053  -4.430   4.344  0.00  0.00    +0.128 A 
ATOM      5  C   UNL     1      -0.854  -4.317   3.224  0.00  0.00    +0.063 A 
ATOM      6  C   UNL     1      -0.686  -3.255   2.356  0.00  0.00    +0.129 A 
ENDROOT
BRANCH   1  12
ATOM      7  C   UNL     1      -1.369   2.025   1.165  0.00  0.00    +0.009 C 
ATOM      8  C   UNL     1      -0.924   0.585   0.899  0.00  0.00    +0.006 C 
ATOM      9  C   UNL     1      -0.118   0.532  -0.401  0.00  0.00    +0.006 C 
ATOM     10  C   UNL     1       0.299  -0.913  -0.685  0.00  0.00    +0.019 C 
ATOM     11  C   UNL     1       1.188  -1.417   0.456  0.00  0.00    +0.105 C 
ATOM     12  N   UNL     1       0.475  -1.234   1.728  0.00  0.00    -0.325 N 
ATOM     13  C   UNL     1      -0.050   0.098   2.059  0.00  0.00    +0.073 C 
ATOM     14  C   UNL     1      -0.889   0.016   3.335  0.00  0.00    +0.028 C 
ENDBRANCH   1  12
BRANCH   6  15
ATOM     15  S   UNL     1      -1.713  -3.107   0.932  0.00  0.00    +0.063 S 
ATOM     16  O   UNL     1      -2.441  -1.896   1.081  0.00  0.00    -0.153 OA
ATOM     17  O   UNL     1      -0.886  -3.365  -0.194  0.00  0.00    -0.153 OA
BRANCH  15  18
ATOM     18  N   UNL     1      -2.821  -4.337   0.998  0.00  0.00    -0.177 NA
ATOM     19  C   UNL     1      -2.558  -5.618   0.329  0.00  0.00    +0.109 C 
ATOM     20  C   UNL     1      -2.724  -6.750   1.347  0.00  0.00    +0.017 C 
ATOM     21  C   UNL     1      -4.107  -6.650   1.993  0.00  0.00    +0.003 C 
ATOM     22  C   UNL     1      -4.234  -5.315   2.730  0.00  0.00    +0.017 C 
ATOM     23  C   UNL     1      -4.082  -4.169   1.732  0.00  0.00    +0.109 C 
ENDBRANCH  15  18
ENDBRANCH   6  15
BRANCH   4  24
ATOM     24  N   UNL     1      -0.240  -5.566   5.274  0.00  0.00    +0.056 N 
ATOM     25  O   UNL     1       0.461  -5.667   6.254  0.00  0.00    -0.126 OA
ATOM     26  O   UNL     1      -1.094  -6.393   5.054  0.00  0.00    -0.126 OA
ENDBRANCH   4  24
TORSDOF 4
