REMARK  Name = ZINC43288493
REMARK  7 active torsions:
REMARK  status: ('A' for Active; 'I' for Inactive)
REMARK    1  A    between atoms: C_1  and  C_2
REMARK    2  A    between atoms: C_2  and  C_3
REMARK    3  A    between atoms: C_3  and  C_5
REMARK    4  A    between atoms: C_3  and  N_21
REMARK    5  A    between atoms: C_5  and  C_7
REMARK    6  A    between atoms: C_5  and  O_13
REMARK    7  A    between atoms: O_13  and  C_14
REMARK                            x       y       z     vdW  Elec       q    Type
REMARK                         _______ _______ _______ _____ _____    ______ ____
ROOT
ATOM      1  C   UNL     1       0.625  -2.057  -1.319  0.00  0.00    +0.196 C 
ENDROOT
BRANCH   1   2
ATOM      2  C   UNL     1      -0.775  -2.616  -1.308  0.00  0.00    +0.029 A 
ATOM      3  C   UNL     1      -1.520  -3.032  -0.255  0.00  0.00    +0.030 A 
ATOM      4  C   UNL     1      -2.795  -3.514  -0.485  0.00  0.00    +0.025 A 
ATOM      5  C   UNL     1      -3.263  -3.555  -1.757  0.00  0.00    +0.060 A 
ATOM      6  S   UNL     1      -1.885  -2.893  -2.679  0.00  0.00    -0.097 S 
ATOM      7 BR   UNL     1      -3.871  -4.107   0.953  0.00  0.00    -0.050 Br
ENDBRANCH   1   2
BRANCH   1   8
ATOM      8  C   UNL     1       0.564  -0.529  -1.289  0.00  0.00    -0.029 C 
BRANCH   8   9
ATOM      9  N   UNL     1       1.929   0.016  -1.299  0.00  0.00    +0.383 N 
ATOM     10  H   UNL     1       2.430  -0.317  -0.489  0.00  0.00    -0.089 HD
ATOM     11  H   UNL     1       2.405  -0.286  -2.136  0.00  0.00    -0.089 HD
ATOM     12  H   UNL     1       1.889   1.024  -1.279  0.00  0.00    -0.089 HD
ENDBRANCH   8   9
BRANCH   8  14
ATOM     13  C   UNL     1      -0.329   1.448  -0.049  0.00  0.00    +0.002 C 
ATOM     14  C   UNL     1      -0.158  -0.072  -0.020  0.00  0.00    -0.016 C 
ENDBRANCH   8  14
ENDBRANCH   1   8
BRANCH   1  15
ATOM     15  O   UNL     1       1.299  -2.484  -2.504  0.00  0.00    -0.482 OA
BRANCH  15  16
ATOM     16  C   UNL     1       2.643  -2.672  -2.416  0.00  0.00    +0.156 A 
ATOM     17  C   UNL     1       3.288  -2.519  -1.198  0.00  0.00    +0.048 A 
ATOM     18  C   UNL     1       4.653  -2.710  -1.111  0.00  0.00    +0.004 A 
ATOM     19  C   UNL     1       5.378  -3.054  -2.237  0.00  0.00    +0.003 A 
ATOM     20  C   UNL     1       4.739  -3.208  -3.454  0.00  0.00    +0.042 A 
ATOM     21  C   UNL     1       3.372  -3.024  -3.546  0.00  0.00    +0.165 A 
ATOM     22  F   UNL     1       2.746  -3.180  -4.733  0.00  0.00    -0.202 F 
ENDBRANCH  15  16
ENDBRANCH   1  15
TORSDOF 6
