REMARK  Name = ZINC05238798
REMARK  11 active torsions:
REMARK  status: ('A' for Active; 'I' for Inactive)
REMARK    1  A    between atoms: C_1  and  C_2
REMARK    2  A    between atoms: C_2  and  C_3
REMARK    3  A    between atoms: C_3  and  C_5
REMARK    4  A    between atoms: C_3  and  N_6
REMARK    5  A    between atoms: C_7  and  C_9
REMARK    6  A    between atoms: C_9  and  S_10
REMARK    7  A    between atoms: S_10  and  C_11
REMARK    8  A    between atoms: C_17  and  C_22
REMARK    9  A    between atoms: C_25  and  C_28
REMARK   10  A    between atoms: C_28  and  C_29
REMARK   11  A    between atoms: C_28  and  C_30
REMARK                            x       y       z     vdW  Elec       q    Type
REMARK                         _______ _______ _______ _____ _____    ______ ____
ROOT
ATOM      1  C   UNL     1       0.122   0.990  -2.724  0.00  0.00    +0.170 A 
ATOM      2  N   UNL     1      -0.195   1.206  -4.033  0.00  0.00    -0.301 N 
ATOM      3  H   UNL     1      -0.998   1.757  -4.260  0.00  0.00    +0.171 HD
ATOM      4  C   UNL     1       0.554   0.691  -5.026  0.00  0.00    +0.261 A 
ATOM      5  O   UNL     1       0.258   0.893  -6.191  0.00  0.00    -0.267 OA
ATOM      6  C   UNL     1       1.700  -0.096  -4.697  0.00  0.00    +0.080 A 
ATOM      7  C   UNL     1       2.654  -0.752  -5.587  0.00  0.00    +0.004 A 
ATOM      8  C   UNL     1       3.676  -1.453  -5.043  0.00  0.00    +0.056 A 
ATOM      9  S   UNL     1       3.416  -1.272  -3.289  0.00  0.00    -0.076 S 
ATOM     10  C   UNL     1       1.953  -0.268  -3.325  0.00  0.00    +0.117 A 
ATOM     11  N   UNL     1       1.177   0.273  -2.393  0.00  0.00    -0.216 NA
ENDROOT
BRANCH   7  12
ATOM     12  C   UNL     1       2.506  -0.652  -7.058  0.00  0.00    -0.017 A 
ATOM     13  C   UNL     1       1.280  -0.937  -7.659  0.00  0.00    +0.009 A 
ATOM     14  C   UNL     1       1.146  -0.838  -9.028  0.00  0.00    +0.004 A 
ATOM     15  C   UNL     1       2.228  -0.467  -9.806  0.00  0.00    -0.045 A 
ATOM     16  C   UNL     1       3.448  -0.188  -9.217  0.00  0.00    +0.004 A 
ATOM     17  C   UNL     1       3.592  -0.279  -7.847  0.00  0.00    +0.009 A 
BRANCH  15  18
ATOM     18  C   UNL     1       2.078  -0.366 -11.303  0.00  0.00    +0.013 C 
ATOM     19  C   UNL     1       1.664  -1.727 -11.866  0.00  0.00    +0.012 C 
ATOM     20  C   UNL     1       1.005   0.672 -11.638  0.00  0.00    +0.012 C 
ENDBRANCH  15  18
ENDBRANCH   7  12
BRANCH   1  21
ATOM     21  S   UNL     1      -0.888   1.685  -1.458  0.00  0.00    -0.078 S 
BRANCH  21  22
ATOM     22  C   UNL     1      -0.013   1.086   0.008  0.00  0.00    +0.173 C 
BRANCH  22  24
ATOM     23  N   UNL     1      -0.242   1.246   2.466  0.00  0.00    -0.312 N 
ATOM     24  C   UNL     1      -0.718   1.572   1.248  0.00  0.00    +0.224 C 
ATOM     25  O   UNL     1      -1.714   2.256   1.150  0.00  0.00    -0.275 OA
ATOM     26  H   UNL     1       0.555   0.699   2.544  0.00  0.00    +0.149 HD
BRANCH  23  27
ATOM     27  C   UNL     1      -0.927   1.718   3.671  0.00  0.00    +0.070 C 
ATOM     28  C   UNL     1      -0.438   3.126   4.018  0.00  0.00    +0.028 C 
BRANCH  27  30
ATOM     29  C   UNL     1      -1.224  -0.605   4.541  0.00  0.00    +0.005 C 
ATOM     30  C   UNL     1      -0.624   0.772   4.834  0.00  0.00    +0.018 C 
ENDBRANCH  27  30
ENDBRANCH  23  27
ENDBRANCH  22  24
ENDBRANCH  21  22
ENDBRANCH   1  21
TORSDOF 7
