REMARK  Name = ZINC43242547
REMARK  10 active torsions:
REMARK  status: ('A' for Active; 'I' for Inactive)
REMARK    1  A    between atoms: C_1  and  C_2
REMARK    2  A    between atoms: C_2  and  C_3
REMARK    3  A    between atoms: C_3  and  C_5
REMARK    4  A    between atoms: C_3  and  N_22
REMARK    5  A    between atoms: C_5  and  C_7
REMARK    6  A    between atoms: C_5  and  N_13
REMARK    7  A    between atoms: C_10  and  C_12
REMARK    8  A    between atoms: N_13  and  C_14
REMARK    9  A    between atoms: N_13  and  C_15
REMARK   10  A    between atoms: C_15  and  C_16
REMARK                            x       y       z     vdW  Elec       q    Type
REMARK                         _______ _______ _______ _____ _____    ______ ____
ROOT
ATOM      1  C   UNL     1       0.641  -2.062  -1.426  0.00  0.00    -0.014 C 
ENDROOT
BRANCH   1   2
ATOM      2  C   UNL     1       1.439  -2.526  -2.617  0.00  0.00    -0.022 A 
ATOM      3  C   UNL     1       2.664  -3.104  -2.651  0.00  0.00    +0.010 A 
ATOM      4  C   UNL     1       3.208  -3.452  -3.874  0.00  0.00    +0.011 A 
ATOM      5  C   UNL     1       2.499  -3.204  -5.003  0.00  0.00    -0.013 A 
ATOM      6  S   UNL     1       1.012  -2.464  -4.350  0.00  0.00    -0.100 S 
ATOM      7  C   UNL     1       2.869  -3.486  -6.436  0.00  0.00    +0.051 C 
ENDBRANCH   1   2
BRANCH   1   8
ATOM      8  N   UNL     1      -0.774  -2.405  -1.621  0.00  0.00    +0.386 N 
ATOM      9  C   UNL     1      -1.558  -1.917  -0.479  0.00  0.00    -0.095 C 
ATOM     10  H   UNL     1      -1.111  -1.973  -2.469  0.00  0.00    -0.081 HD
BRANCH   8  11
ATOM     11  C   UNL     1      -0.916  -3.863  -1.725  0.00  0.00    -0.042 C 
BRANCH  11  12
ATOM     12  C   UNL     1      -2.347  -4.207  -2.047  0.00  0.00    -0.056 A 
ATOM     13  C   UNL     1      -3.263  -4.421  -1.034  0.00  0.00    +0.024 A 
ATOM     14  C   UNL     1      -4.543  -4.729  -1.359  0.00  0.00    +0.055 A 
ATOM     15  S   UNL     1      -4.482  -4.724  -3.143  0.00  0.00    -0.090 S 
ATOM     16  C   UNL     1      -2.757  -4.306  -3.335  0.00  0.00    +0.048 A 
ATOM     17 BR   UNL     1      -6.011  -5.075  -0.218  0.00  0.00    -0.043 Br
ENDBRANCH  11  12
ENDBRANCH   8  11
ENDBRANCH   1   8
BRANCH   1  18
ATOM     18  C   UNL     1       0.783  -0.546  -1.276  0.00  0.00    +0.042 C 
BRANCH  18  19
ATOM     19  N   UNL     1       0.279   0.115  -2.486  0.00  0.00    -0.328 NA
ATOM     20  H   UNL     1       0.797  -0.179  -3.301  0.00  0.00    +0.118 HD
ATOM     21  H   UNL     1      -0.709  -0.052  -2.606  0.00  0.00    +0.118 HD
ENDBRANCH  18  19
BRANCH  18  23
ATOM     22  C   UNL     1       2.384   1.304  -0.773  0.00  0.00    +0.005 C 
ATOM     23  C   UNL     1       2.257  -0.190  -1.076  0.00  0.00    +0.014 C 
ENDBRANCH  18  23
ENDBRANCH   1  18
TORSDOF 7
