REMARK  Name = ZINC34945518
REMARK  10 active torsions:
REMARK  status: ('A' for Active; 'I' for Inactive)
REMARK    1  A    between atoms: C_1  and  C_2
REMARK    2  A    between atoms: C_2  and  C_4
REMARK    3  A    between atoms: C_2  and  N_10
REMARK    4  A    between atoms: C_11  and  C_13
REMARK    5  A    between atoms: C_13  and  C_14
REMARK    6  A    between atoms: C_14  and  N_15
REMARK    7  A    between atoms: N_15  and  C_16
REMARK    8  A    between atoms: C_16  and  C_18
REMARK    9  A    between atoms: C_16  and  C_19
REMARK   10  A    between atoms: C_25  and  C_27
REMARK                            x       y       z     vdW  Elec       q    Type
REMARK                         _______ _______ _______ _____ _____    ______ ____
ROOT
ATOM      1  N   UNL     1      -5.188  -1.296  -2.700  0.00  0.00    -0.290 N 
ATOM      2  C   UNL     1      -4.880  -2.409  -2.006  0.00  0.00    +0.247 C 
ATOM      3  O   UNL     1      -3.781  -2.916  -2.126  0.00  0.00    -0.270 OA
ENDROOT
BRANCH   2   4
ATOM      4  C   UNL     1      -5.876  -3.013  -1.099  0.00  0.00    +0.041 A 
ATOM      5  C   UNL     1      -7.182  -2.519  -1.066  0.00  0.00    +0.017 A 
ATOM      6  C   UNL     1      -8.111  -3.085  -0.220  0.00  0.00    +0.050 A 
ATOM      7  C   UNL     1      -7.753  -4.145   0.603  0.00  0.00    +0.166 A 
ATOM      8  C   UNL     1      -6.449  -4.641   0.575  0.00  0.00    +0.167 A 
ATOM      9  C   UNL     1      -5.516  -4.082  -0.276  0.00  0.00    +0.062 A 
ATOM     10  O   UNL     1      -6.357  -5.671   1.467  0.00  0.00    -0.453 OA
ATOM     11  C   UNL     1      -7.499  -5.532   2.333  0.00  0.00    +0.466 C 
ATOM     12  O   UNL     1      -8.473  -4.864   1.510  0.00  0.00    -0.453 OA
ENDBRANCH   2   4
BRANCH   1  13
ATOM     13  C   UNL     1      -6.238  -0.397  -2.215  0.00  0.00    +0.103 C 
ATOM     14  C   UNL     1      -5.739   1.049  -2.274  0.00  0.00    +0.033 C 
BRANCH  13  15
ATOM     15  C   UNL     1      -7.463  -0.541  -3.080  0.00  0.00    -0.027 A 
ATOM     16  C   UNL     1      -7.335  -0.932  -4.400  0.00  0.00    +0.005 A 
ATOM     17  C   UNL     1      -8.459  -1.064  -5.193  0.00  0.00    +0.000 A 
ATOM     18  C   UNL     1      -9.711  -0.807  -4.667  0.00  0.00    +0.000 A 
ATOM     19  C   UNL     1      -9.839  -0.417  -3.347  0.00  0.00    +0.000 A 
ATOM     20  C   UNL     1      -8.715  -0.288  -2.552  0.00  0.00    +0.005 A 
ENDBRANCH  13  15
ENDBRANCH   1  13
BRANCH   1  21
ATOM     21  C   UNL     1      -4.473  -0.985  -3.941  0.00  0.00    +0.118 C 
BRANCH  21  22
ATOM     22  C   UNL     1      -3.084  -0.439  -3.606  0.00  0.00    +0.115 C 
BRANCH  22  24
ATOM     23  N   UNL     1      -1.097   0.378  -4.833  0.00  0.00    -0.309 N 
ATOM     24  C   UNL     1      -2.349  -0.119  -4.882  0.00  0.00    +0.215 C 
ATOM     25  O   UNL     1      -2.884  -0.309  -5.954  0.00  0.00    -0.276 OA
ATOM     26  H   UNL     1      -0.670   0.530  -3.975  0.00  0.00    +0.149 HD
BRANCH  23  28
ATOM     27  C   UNL     1      -0.765   2.094  -6.544  0.00  0.00    +0.033 C 
ATOM     28  C   UNL     1      -0.383   0.689  -6.073  0.00  0.00    +0.100 C 
BRANCH  28  29
ATOM     29  C   UNL     1       1.103   0.629  -5.826  0.00  0.00    -0.027 A 
ATOM     30  C   UNL     1       1.627   1.123  -4.647  0.00  0.00    +0.005 A 
ATOM     31  C   UNL     1       2.990   1.068  -4.420  0.00  0.00    +0.000 A 
ATOM     32  C   UNL     1       3.827   0.518  -5.372  0.00  0.00    +0.000 A 
ATOM     33  C   UNL     1       3.302   0.023  -6.551  0.00  0.00    +0.000 A 
ATOM     34  C   UNL     1       1.939   0.074  -6.776  0.00  0.00    +0.005 A 
ENDBRANCH  28  29
ENDBRANCH  23  28
ENDBRANCH  22  24
ENDBRANCH  21  22
ENDBRANCH   1  21
TORSDOF 8
