REMARK  Name = ZINC39597683
REMARK  5 active torsions:
REMARK  status: ('A' for Active; 'I' for Inactive)
REMARK    1  A    between atoms: C_7  and  C_10
REMARK    2  A    between atoms: C_10  and  C_11
REMARK    3  A    between atoms: C_11  and  N_12
REMARK    4  A    between atoms: C_13  and  C_15
REMARK    5  A    between atoms: C_26  and  C_28
REMARK                            x       y       z     vdW  Elec       q    Type
REMARK                         _______ _______ _______ _____ _____    ______ ____
ROOT
ATOM      1  C   UNL     1      -5.925   7.709  -2.243  0.00  0.00    +0.100 C 
ATOM      2  C   UNL     1      -4.786   8.360  -1.427  0.00  0.00    +0.121 C 
ATOM      3  N   UNL     1      -3.867   8.919  -2.446  0.00  0.00    -0.296 N 
ATOM      4  C   UNL     1      -4.765   9.468  -3.490  0.00  0.00    +0.115 C 
ATOM      5  C   UNL     1      -5.910   8.442  -3.595  0.00  0.00    -0.004 C 
ATOM      6  C   UNL     1      -7.240   9.155  -3.825  0.00  0.00    -0.010 C 
ATOM      7  C   UNL     1      -7.223   9.827  -5.200  0.00  0.00    -0.082 C 
ATOM      8  N   UNL     1      -7.002   8.814  -6.239  0.00  0.00    +0.379 N 
ATOM      9  C   UNL     1      -5.681   8.198  -6.066  0.00  0.00    -0.082 C 
ATOM     10  C   UNL     1      -5.633   7.457  -4.727  0.00  0.00    -0.010 C 
ATOM     11  C   UNL     1      -2.520   8.928  -2.428  0.00  0.00    +0.247 C 
ATOM     12  O   UNL     1      -1.920   8.324  -1.559  0.00  0.00    -0.270 OA
ATOM     13  H   UNL     1      -7.715   8.103  -6.171  0.00  0.00    -0.086 HD
ATOM     14  H   UNL     1      -7.052   9.250  -7.148  0.00  0.00    -0.086 HD
ENDROOT
BRANCH  11  15
ATOM     15  C   UNL     1      -1.771   9.670  -3.463  0.00  0.00    +0.037 A 
ATOM     16  C   UNL     1      -2.394  10.693  -4.180  0.00  0.00    +0.014 A 
ATOM     17  C   UNL     1      -1.690  11.382  -5.145  0.00  0.00    +0.016 A 
ATOM     18  C   UNL     1      -0.368  11.062  -5.403  0.00  0.00    +0.018 A 
ATOM     19  C   UNL     1       0.256  10.048  -4.695  0.00  0.00    +0.016 A 
ATOM     20  C   UNL     1      -0.436   9.355  -3.724  0.00  0.00    +0.014 A 
ATOM     21 BR   UNL     1       0.590  12.011  -6.729  0.00  0.00    -0.050 Br
ENDBRANCH  11  15
BRANCH   1  23
ATOM     22  N   UNL     1      -6.677   5.394  -2.683  0.00  0.00    -0.315 N 
ATOM     23  C   UNL     1      -5.656   6.239  -2.440  0.00  0.00    +0.218 C 
ATOM     24  O   UNL     1      -4.520   5.817  -2.380  0.00  0.00    -0.275 OA
ATOM     25  H   UNL     1      -7.585   5.731  -2.731  0.00  0.00    +0.149 HD
BRANCH  22  26
ATOM     26  C   UNL     1      -6.415   3.965  -2.874  0.00  0.00    +0.109 C 
BRANCH  26  27
ATOM     27  C   UNL     1      -7.735   3.235  -3.131  0.00  0.00    +0.056 C 
BRANCH  27  34
ATOM     28  C   UNL     1      -7.237  -0.360  -0.165  0.00  0.00    +0.001 A 
ATOM     29  C   UNL     1      -6.994  -1.565  -0.810  0.00  0.00    +0.002 A 
ATOM     30  C   UNL     1      -6.919  -1.623  -2.185  0.00  0.00    +0.026 A 
ATOM     31  C   UNL     1      -7.089  -0.464  -2.935  0.00  0.00    +0.047 A 
ATOM     32  N   UNL     1      -7.072  -0.198  -4.286  0.00  0.00    -0.360 N 
ATOM     33  C   UNL     1      -7.298   1.134  -4.501  0.00  0.00    +0.087 A 
ATOM     34  C   UNL     1      -7.466   1.765  -3.328  0.00  0.00    -0.021 A 
ATOM     35  C   UNL     1      -7.336   0.754  -2.276  0.00  0.00    +0.003 A 
ATOM     36  C   UNL     1      -7.413   0.789  -0.882  0.00  0.00    +0.010 A 
ATOM     37  H   UNL     1      -6.922  -0.857  -4.982  0.00  0.00    +0.165 HD
ENDBRANCH  27  34
ENDBRANCH  26  27
ENDBRANCH  22  26
ENDBRANCH   1  23
TORSDOF 5
