REMARK  Name = ZINC39684474
REMARK  10 active torsions:
REMARK  status: ('A' for Active; 'I' for Inactive)
REMARK    1  A    between atoms: C_1  and  C_2
REMARK    2  A    between atoms: C_3  and  C_15
REMARK    3  A    between atoms: C_4  and  C_7
REMARK    4  A    between atoms: C_19  and  C_28
REMARK    5  A    between atoms: N_30  and  C_31
REMARK    6  A    between atoms: C_31  and  C_33
REMARK    7  A    between atoms: C_31  and  C_34
REMARK    8  A    between atoms: C_34  and  C_35
REMARK    9  A    between atoms: C_34  and  C_36
REMARK   10  A    between atoms: C_34  and  C_37
REMARK                            x       y       z     vdW  Elec       q    Type
REMARK                         _______ _______ _______ _____ _____    ______ ____
ROOT
ATOM      1  C   UNL     1      -2.528  -0.350   0.191  0.00  0.00    +0.252 C 
ATOM      2  O   UNL     1      -3.245  -0.250  -0.786  0.00  0.00    -0.270 OA
ATOM      3  N   UNL     1      -3.018  -0.078   1.417  0.00  0.00    -0.296 N 
ATOM      4  C   UNL     1      -2.337  -0.238   2.724  0.00  0.00    +0.121 C 
ATOM      5  C   UNL     1      -2.770   0.998   3.544  0.00  0.00    +0.100 C 
ATOM      6  C   UNL     1      -4.098   1.443   2.910  0.00  0.00    -0.004 C 
ATOM      7  C   UNL     1      -4.357   0.456   1.762  0.00  0.00    +0.115 C 
ATOM      8  C   UNL     1      -3.972   2.861   2.360  0.00  0.00    -0.010 C 
ATOM      9  C   UNL     1      -5.321   3.303   1.786  0.00  0.00    -0.082 C 
ATOM     10  N   UNL     1      -6.342   3.254   2.840  0.00  0.00    +0.379 N 
ATOM     11  C   UNL     1      -6.523   1.872   3.298  0.00  0.00    -0.082 C 
ATOM     12  C   UNL     1      -5.225   1.369   3.936  0.00  0.00    -0.010 C 
ATOM     13  H   UNL     1      -6.050   3.829   3.616  0.00  0.00    -0.086 HD
ATOM     14  H   UNL     1      -7.216   3.604   2.475  0.00  0.00    -0.086 HD
ENDROOT
BRANCH   1  17
ATOM     15  C   UNL     1      -0.138   1.506  -0.590  0.00  0.00    +0.090 C 
ATOM     16  C   UNL     1      -0.071   0.027  -0.304  0.00  0.00    +0.147 A 
ATOM     17  C   UNL     1      -1.125  -0.769   0.035  0.00  0.00    +0.106 A 
ATOM     18  C   UNL     1      -0.589  -2.127   0.217  0.00  0.00    +0.130 A 
ATOM     19  N   UNL     1       0.698  -2.062  -0.016  0.00  0.00    -0.077 NA
ATOM     20  O   UNL     1       1.029  -0.729  -0.346  0.00  0.00    -0.359 OA
BRANCH  18  21
ATOM     21  C   UNL     1      -1.359  -3.337   0.592  0.00  0.00    +0.058 A 
ATOM     22  C   UNL     1      -2.522  -3.672  -0.105  0.00  0.00    +0.134 A 
ATOM     23  C   UNL     1      -3.235  -4.802   0.250  0.00  0.00    +0.039 A 
ATOM     24  C   UNL     1      -2.798  -5.599   1.292  0.00  0.00    +0.004 A 
ATOM     25  C   UNL     1      -1.647  -5.272   1.986  0.00  0.00    +0.021 A 
ATOM     26  C   UNL     1      -0.922  -4.149   1.638  0.00  0.00    +0.053 A 
ATOM     27 CL   UNL     1       0.527  -3.746   2.505  0.00  0.00    -0.083 Cl
ATOM     28  F   UNL     1      -2.950  -2.893  -1.123  0.00  0.00    -0.205 F 
ENDBRANCH  18  21
ENDBRANCH   1  17
BRANCH   5  29
ATOM     29  C   UNL     1      -1.739   2.091   3.430  0.00  0.00    +0.218 C 
ATOM     30  O   UNL     1      -1.132   2.246   2.392  0.00  0.00    -0.275 OA
ATOM     31  N   UNL     1      -1.490   2.895   4.483  0.00  0.00    -0.312 N 
ATOM     32  H   UNL     1      -1.922   2.725   5.335  0.00  0.00    +0.149 HD
BRANCH  31  33
ATOM     33  C   UNL     1      -0.569   4.025   4.340  0.00  0.00    +0.075 C 
ATOM     34  C   UNL     1       0.873   3.525   4.451  0.00  0.00    +0.028 C 
BRANCH  33  35
ATOM     35  C   UNL     1      -0.841   5.047   5.446  0.00  0.00    -0.020 C 
ATOM     36  C   UNL     1      -0.632   4.388   6.811  0.00  0.00    +0.012 C 
ATOM     37  C   UNL     1       0.122   6.227   5.297  0.00  0.00    +0.012 C 
ATOM     38  C   UNL     1      -2.282   5.547   5.336  0.00  0.00    +0.012 C 
ENDBRANCH  33  35
ENDBRANCH  31  33
ENDBRANCH   5  29
TORSDOF 5
