REMARK  Name = ZINC23742058
REMARK  9 active torsions:
REMARK  status: ('A' for Active; 'I' for Inactive)
REMARK    1  A    between atoms: C_4  and  C_7
REMARK    2  A    between atoms: C_8  and  C_31
REMARK    3  A    between atoms: C_10  and  C_12
REMARK    4  A    between atoms: C_12  and  C_13
REMARK    5  A    between atoms: C_13  and  C_14
REMARK    6  A    between atoms: N_16  and  C_17
REMARK    7  A    between atoms: C_17  and  C_18
REMARK    8  A    between atoms: C_18  and  C_20
REMARK    9  A    between atoms: C_18  and  N_26
REMARK                            x       y       z     vdW  Elec       q    Type
REMARK                         _______ _______ _______ _____ _____    ______ ____
ROOT
ATOM      1  C   UNL     1      -0.014   7.693  -1.274  0.00  0.00    +0.105 C 
ENDROOT
BRANCH   1   2
ATOM      2  C   UNL     1      -0.986   8.842  -1.356  0.00  0.00    +0.213 C 
ATOM      3  O   UNL     1      -1.532   9.247  -0.351  0.00  0.00    -0.276 OA
ATOM      4  N   UNL     1      -1.249   9.419  -2.545  0.00  0.00    -0.317 N 
ATOM      5  H   UNL     1      -0.754   9.051  -3.456  0.00  0.00    +0.149 HD
BRANCH   4   6
ATOM      6  C   UNL     1      -2.194  10.535  -2.625  0.00  0.00    +0.093 C 
BRANCH   6   7
ATOM      7  C   UNL     1      -2.411  10.917  -4.091  0.00  0.00    -0.020 C 
BRANCH   7   8
ATOM      8  C   UNL     1      -3.095   9.782  -4.809  0.00  0.00    -0.059 A 
ATOM      9  C   UNL     1      -4.461   9.608  -4.683  0.00  0.00    +0.002 A 
ATOM     10  C   UNL     1      -5.089   8.570  -5.345  0.00  0.00    +0.000 A 
ATOM     11  C   UNL     1      -4.351   7.701  -6.126  0.00  0.00    +0.000 A 
ATOM     12  C   UNL     1      -2.985   7.872  -6.248  0.00  0.00    +0.000 A 
ATOM     13  C   UNL     1      -2.357   8.913  -5.589  0.00  0.00    +0.002 A 
ENDBRANCH   7   8
BRANCH   7  14
ATOM     14  N   UNL     1      -3.250  12.120  -4.165  0.00  0.00    +0.385 N 
ATOM     15  C   UNL     1      -2.623  13.252  -3.435  0.00  0.00    -0.078 C 
ATOM     16  C   UNL     1      -3.321  14.495  -4.042  0.00  0.00    -0.020 C 
ATOM     17  C   UNL     1      -3.472  14.114  -5.532  0.00  0.00    -0.020 C 
ATOM     18  C   UNL     1      -3.401  12.576  -5.564  0.00  0.00    -0.078 C 
ATOM     19  H   UNL     1      -4.218  11.837  -3.726  0.00  0.00    -0.081 HD
ENDBRANCH   7  14
ENDBRANCH   6   7
ENDBRANCH   4   6
ENDBRANCH   1   2
BRANCH   1  20
ATOM     20  C   UNL     1       0.102   7.226   0.178  0.00  0.00    +0.105 C 
BRANCH  20  24
ATOM     21  C   UNL     1       2.907   4.960   0.471  0.00  0.00    +0.117 A 
ATOM     22  C   UNL     1       1.884   4.057   0.269  0.00  0.00    +0.163 A 
ATOM     23  O   UNL     1       0.752   4.783   0.135  0.00  0.00    -0.439 OA
ATOM     24  C   UNL     1       1.074   6.077   0.260  0.00  0.00    +0.197 A 
ATOM     25  N   UNL     1       2.356   6.192   0.457  0.00  0.00    -0.213 NA
BRANCH  21  29
ATOM     26  C   UNL     1       7.019   4.038   1.031  0.00  0.00    +0.000 A 
ATOM     27  C   UNL     1       6.282   3.352   0.082  0.00  0.00    +0.001 A 
ATOM     28  C   UNL     1       4.947   3.647  -0.104  0.00  0.00    +0.010 A 
ATOM     29  C   UNL     1       4.340   4.638   0.666  0.00  0.00    +0.004 A 
ATOM     30  C   UNL     1       5.090   5.330   1.617  0.00  0.00    +0.010 A 
ATOM     31  C   UNL     1       6.423   5.023   1.798  0.00  0.00    +0.001 A 
ENDBRANCH  21  29
BRANCH  22  32
ATOM     32  C   UNL     1       2.003   2.587   0.204  0.00  0.00    +0.019 A 
ATOM     33  C   UNL     1       2.721   1.898   1.184  0.00  0.00    +0.011 A 
ATOM     34  C   UNL     1       2.828   0.524   1.117  0.00  0.00    +0.001 A 
ATOM     35  C   UNL     1       2.225  -0.171   0.083  0.00  0.00    +0.000 A 
ATOM     36  C   UNL     1       1.512   0.506  -0.891  0.00  0.00    +0.001 A 
ATOM     37  C   UNL     1       1.397   1.879  -0.837  0.00  0.00    +0.011 A 
ENDBRANCH  22  32
ENDBRANCH  20  24
ENDBRANCH   1  20
TORSDOF 9
