REMARK  Name = ZINC00124000
REMARK  7 active torsions:
REMARK  status: ('A' for Active; 'I' for Inactive)
REMARK    1  A    between atoms: C_1  and  C_2
REMARK    2  A    between atoms: C_2  and  C_3
REMARK    3  A    between atoms: C_6  and  C_9
REMARK    4  A    between atoms: C_19  and  C_25
REMARK    5  A    between atoms: C_20  and  C_21
REMARK    6  A    between atoms: C_21  and  O_23
REMARK    7  A    between atoms: O_23  and  C_24
REMARK                            x       y       z     vdW  Elec       q    Type
REMARK                         _______ _______ _______ _____ _____    ______ ____
ROOT
ATOM      1  C   UNL     1       2.797  -1.919   4.683  0.00  0.00    +0.092 C 
ATOM      2  C   UNL     1       2.627  -0.924   5.804  0.00  0.00    +0.024 C 
ATOM      3  C   UNL     1       1.752  -1.156   6.805  0.00  0.00    +0.015 C 
ATOM      4  C   UNL     1       1.568  -0.159   7.923  0.00  0.00    +0.051 C 
ATOM      5  C   UNL     1       2.881   0.587   8.168  0.00  0.00    +0.014 C 
ATOM      6  C   UNL     1       3.298   1.279   6.866  0.00  0.00    +0.080 C 
ATOM      7  C   UNL     1       3.404   0.247   5.776  0.00  0.00    +0.162 C 
ATOM      8  O   UNL     1       4.175   0.430   4.855  0.00  0.00    -0.292 OA
ATOM      9  N   UNL     1       1.012  -2.308   6.829  0.00  0.00    -0.321 N 
ATOM     10  C   UNL     1       1.397  -3.398   6.099  0.00  0.00    +0.016 C 
ATOM     11  C   UNL     1       2.248  -3.261   5.069  0.00  0.00    +0.065 C 
ATOM     12  C   UNL     1       0.862  -4.762   6.452  0.00  0.00    +0.061 C 
ATOM     13  H   UNL     1       0.208  -2.351   7.369  0.00  0.00    +0.152 HD
ENDROOT
BRANCH   1  17
ATOM     14  C   UNL     1       0.731  -0.503   1.223  0.00  0.00    -0.048 A 
ATOM     15  C   UNL     1       2.097  -0.710   1.176  0.00  0.00    +0.004 A 
ATOM     16  C   UNL     1       2.766  -1.167   2.296  0.00  0.00    +0.005 A 
ATOM     17  C   UNL     1       2.068  -1.419   3.463  0.00  0.00    -0.035 A 
ATOM     18  C   UNL     1       0.702  -1.212   3.510  0.00  0.00    +0.005 A 
ATOM     19  C   UNL     1       0.034  -0.750   2.391  0.00  0.00    +0.004 A 
BRANCH  14  21
ATOM     20  C   UNL     1      -0.019   1.526   0.010  0.00  0.00    +0.009 C 
ATOM     21  C   UNL     1       0.002  -0.004   0.002  0.00  0.00    +0.032 C 
ENDBRANCH  14  21
ENDBRANCH   1  17
BRANCH  11  22
ATOM     22  C   UNL     1       2.635  -4.406   4.334  0.00  0.00    +0.337 C 
ATOM     23  O   UNL     1       2.197  -5.500   4.637  0.00  0.00    -0.245 OA
BRANCH  22  24
ATOM     24  O   UNL     1       3.490  -4.285   3.297  0.00  0.00    -0.465 OA
ATOM     25  C   UNL     1       3.838  -5.483   2.600  0.00  0.00    +0.280 C 
ENDBRANCH  22  24
ENDBRANCH  11  22
TORSDOF 4
