REMARK  Name = ZINC20294923
REMARK  11 active torsions:
REMARK  status: ('A' for Active; 'I' for Inactive)
REMARK    1  A    between atoms: C_1  and  C_2
REMARK    2  A    between atoms: C_3  and  C_28
REMARK    3  A    between atoms: C_4  and  N_10
REMARK    4  A    between atoms: C_6  and  C_7
REMARK    5  A    between atoms: C_11  and  C_13
REMARK    6  A    between atoms: C_13  and  N_14
REMARK    7  A    between atoms: C_20  and  C_22
REMARK    8  A    between atoms: C_28  and  O_30
REMARK    9  A    between atoms: O_30  and  C_31
REMARK   10  A    between atoms: C_31  and  C_32
REMARK   11  A    between atoms: C_31  and  C_33
REMARK                            x       y       z     vdW  Elec       q    Type
REMARK                         _______ _______ _______ _____ _____    ______ ____
ROOT
ATOM      1  N   UNL     1       1.102  -3.891  -0.027  0.00  0.00    -0.281 N 
ATOM      2  C   UNL     1       2.438  -4.066  -0.041  0.00  0.00    +0.201 C 
ATOM      3  O   UNL     1       3.176  -3.103  -0.043  0.00  0.00    -0.278 OA
ATOM      4  H   UNL     1       0.433  -4.765  -0.025  0.00  0.00    +0.155 HD
ENDROOT
BRANCH   1   8
ATOM      5  C   UNL     1      -2.476  -0.372   0.036  0.00  0.00    +0.046 C 
ATOM      6  C   UNL     1      -1.055  -0.873   0.013  0.00  0.00    -0.015 A 
ATOM      7  C   UNL     1      -0.773  -2.231  -0.002  0.00  0.00    +0.091 A 
ATOM      8  C   UNL     1       0.572  -2.616  -0.016  0.00  0.00    +0.087 A 
ATOM      9  S   UNL     1       1.409  -1.098  -0.017  0.00  0.00    -0.068 S 
ATOM     10  C   UNL     1       0.002  -0.004   0.002  0.00  0.00    +0.079 A 
BRANCH  10  11
ATOM     11  C   UNL     1      -0.018   1.460   0.010  0.00  0.00    +0.248 C 
ATOM     12  O   UNL     1      -1.080   2.054   0.018  0.00  0.00    -0.270 OA
ATOM     13  N   UNL     1       1.140   2.150   0.003  0.00  0.00    -0.325 N 
ATOM     14  H   UNL     1       1.125   3.250   0.009  0.00  0.00    +0.145 HD
ATOM     15  H   UNL     1       2.100   1.613  -0.009  0.00  0.00    +0.145 HD
ENDBRANCH  10  11
BRANCH   7  16
ATOM     16  C   UNL     1      -1.848  -3.229   0.004  0.00  0.00    +0.342 C 
ATOM     17  O   UNL     1      -2.284  -3.648   1.059  0.00  0.00    -0.245 OA
BRANCH  16  18
ATOM     18  O   UNL     1      -2.353  -3.683  -1.161  0.00  0.00    -0.458 OA
BRANCH  18  19
ATOM     19  C   UNL     1      -3.414  -4.670  -1.080  0.00  0.00    +0.171 C 
ATOM     20  C   UNL     1      -4.769  -3.959  -1.038  0.00  0.00    +0.052 C 
ATOM     21  C   UNL     1      -3.356  -5.584  -2.306  0.00  0.00    +0.052 C 
ENDBRANCH  18  19
ENDBRANCH  16  18
ENDBRANCH   7  16
ENDBRANCH   1   8
BRANCH   2  22
ATOM     22  C   UNL     1       3.017  -5.457  -0.052  0.00  0.00    +0.019 C 
BRANCH  22  23
ATOM     23  N   UNL     1       4.484  -5.378  -0.066  0.00  0.00    +0.387 N 
ATOM     24  C   UNL     1       4.967  -4.780  -1.318  0.00  0.00    -0.059 C 
ATOM     25  C   UNL     1       6.478  -4.549  -1.220  0.00  0.00    +0.089 C 
ATOM     26  N   UNL     1       7.122  -5.818  -0.847  0.00  0.00    -0.303 N 
ATOM     27  C   UNL     1       6.601  -6.546   0.319  0.00  0.00    +0.089 C 
ATOM     28  C   UNL     1       5.085  -6.699   0.160  0.00  0.00    -0.059 C 
ATOM     29  C   UNL     1       8.162  -6.300  -1.556  0.00  0.00    +0.244 C 
ATOM     30  O   UNL     1       8.681  -7.348  -1.235  0.00  0.00    -0.273 OA
ATOM     31  H   UNL     1       4.796  -4.722   0.760  0.00  0.00    -0.081 HD
BRANCH  29  32
ATOM     32  C   UNL     1       8.680  -5.537  -2.748  0.00  0.00    +0.204 C 
ATOM     33  C   UNL     1       7.604  -5.501  -3.855  0.00  0.00    +0.043 C 
ATOM     34  C   UNL     1       8.450  -5.682  -5.144  0.00  0.00    +0.031 C 
ATOM     35  C   UNL     1       9.568  -6.625  -4.632  0.00  0.00    +0.161 C 
ATOM     36  O   UNL     1       9.831  -6.199  -3.286  0.00  0.00    -0.367 OA
ENDBRANCH  29  32
ENDBRANCH  22  23
ENDBRANCH   2  22
TORSDOF 8
