REMARK  Name = ZINC66908713
REMARK  9 active torsions:
REMARK  status: ('A' for Active; 'I' for Inactive)
REMARK    1  A    between atoms: C_1  and  N_2
REMARK    2  A    between atoms: N_2  and  C_3
REMARK    3  A    between atoms: N_2  and  C_4
REMARK    4  A    between atoms: C_4  and  C_6
REMARK    5  A    between atoms: C_4  and  C_23
REMARK    6  A    between atoms: C_6  and  N_7
REMARK    7  A    between atoms: N_10  and  C_11
REMARK    8  A    between atoms: C_11  and  C_12
REMARK    9  A    between atoms: C_12  and  O_22
REMARK                            x       y       z     vdW  Elec       q    Type
REMARK                         _______ _______ _______ _____ _____    ______ ____
ROOT
ATOM      1  N   UNL     1      -0.052  -2.069   0.524  0.00  0.00    -0.301 N 
ATOM      2  C   UNL     1       0.598  -3.243   0.397  0.00  0.00    +0.300 C 
ATOM      3  O   UNL     1       0.295  -4.013  -0.493  0.00  0.00    -0.253 OA
ATOM      4  N   UNL     1       1.585  -3.563   1.258  0.00  0.00    -0.296 N 
ATOM      5  H   UNL     1       0.190  -1.454   1.234  0.00  0.00    +0.150 HD
ATOM      6  H   UNL     1       1.827  -2.949   1.968  0.00  0.00    +0.150 HD
ENDROOT
BRANCH   1   7
ATOM      7  C   UNL     1      -1.124  -1.721  -0.412  0.00  0.00    +0.095 C 
BRANCH   7   8
ATOM      8  C   UNL     1      -1.778  -0.409   0.027  0.00  0.00    -0.020 C 
BRANCH   8   9
ATOM      9  C   UNL     1      -2.446  -0.604   1.365  0.00  0.00    -0.052 A 
ATOM     10  C   UNL     1      -1.827  -0.178   2.525  0.00  0.00    +0.009 A 
ATOM     11  C   UNL     1      -2.455  -0.368   3.712  0.00  0.00    +0.045 A 
ATOM     12  S   UNL     1      -3.967  -1.171   3.205  0.00  0.00    -0.105 S 
ATOM     13  C   UNL     1      -3.663  -1.193   1.446  0.00  0.00    +0.047 A 
ENDBRANCH   8   9
BRANCH   8  15
ATOM     14  C   UNL     1      -3.452   1.221  -0.515  0.00  0.00    -0.096 C 
ATOM     15  N   UNL     1      -2.782  -0.005  -0.967  0.00  0.00    +0.382 N 
ATOM     16  C   UNL     1      -2.122   0.243  -2.256  0.00  0.00    -0.096 C 
ATOM     17  H   UNL     1      -3.463  -0.742  -1.074  0.00  0.00    -0.082 HD
ENDBRANCH   8  15
ENDBRANCH   7   8
ENDBRANCH   1   7
BRANCH   4  18
ATOM     18  C   UNL     1       2.291  -4.839   1.120  0.00  0.00    +0.145 C 
BRANCH  18  19
ATOM     19  C   UNL     1       3.288  -4.997   2.271  0.00  0.00    +0.107 C 
ATOM     20  C   UNL     1       4.271  -3.829   2.248  0.00  0.00    +0.041 C 
ATOM     21  C   UNL     1       5.385  -4.115   3.263  0.00  0.00    +0.008 C 
ATOM     22  C   UNL     1       6.239  -5.263   2.729  0.00  0.00    +0.035 C 
ATOM     23  C   UNL     1       5.371  -6.429   2.334  0.00  0.00    -0.041 A 
ATOM     24  C   UNL     1       4.017  -6.306   2.120  0.00  0.00    -0.011 A 
ATOM     25  C   UNL     1       3.275  -7.421   1.752  0.00  0.00    +0.007 A 
ATOM     26  C   UNL     1       3.883  -8.650   1.602  0.00  0.00    +0.000 A 
ATOM     27  C   UNL     1       5.242  -8.774   1.821  0.00  0.00    +0.000 A 
ATOM     28  C   UNL     1       5.981  -7.668   2.185  0.00  0.00    +0.004 A 
BRANCH  19  29
ATOM     29  O   UNL     1       2.579  -4.992   3.512  0.00  0.00    -0.382 OA
ATOM     30  H   UNL     1       1.928  -5.702   3.596  0.00  0.00    +0.211 HD
ENDBRANCH  19  29
ENDBRANCH  18  19
ENDBRANCH   4  18
TORSDOF 7
