REMARK  Name = ZINC38905640
REMARK  8 active torsions:
REMARK  status: ('A' for Active; 'I' for Inactive)
REMARK    1  A    between atoms: C_1  and  C_2
REMARK    2  A    between atoms: C_5  and  C_8
REMARK    3  A    between atoms: C_8  and  C_10
REMARK    4  A    between atoms: C_8  and  N_11
REMARK    5  A    between atoms: C_12  and  C_14
REMARK    6  A    between atoms: N_19  and  C_21
REMARK    7  A    between atoms: C_21  and  C_22
REMARK    8  A    between atoms: C_24  and  C_27
REMARK                            x       y       z     vdW  Elec       q    Type
REMARK                         _______ _______ _______ _____ _____    ______ ____
ROOT
ATOM      1  C   UNL     1       2.460  -6.468   1.999  0.00  0.00    +0.058 C 
ATOM      2  C   UNL     1       3.647  -5.511   2.135  0.00  0.00    +0.009 C 
ATOM      3  C   UNL     1       4.620  -6.065   3.180  0.00  0.00    -0.018 C 
ATOM      4  C   UNL     1       5.055  -7.473   2.768  0.00  0.00    -0.078 C 
ATOM      5  N   UNL     1       3.879  -8.346   2.681  0.00  0.00    +0.386 N 
ATOM      6  C   UNL     1       2.974  -7.862   1.631  0.00  0.00    -0.065 C 
ATOM      7  H   UNL     1       3.395  -8.346   3.566  0.00  0.00    -0.081 HD
ENDROOT
BRANCH   1   9
ATOM      8  N   UNL     1       0.959  -4.758   1.029  0.00  0.00    -0.309 N 
ATOM      9  C   UNL     1       1.534  -5.972   0.919  0.00  0.00    +0.215 C 
ATOM     10  O   UNL     1       1.306  -6.665  -0.050  0.00  0.00    -0.276 OA
ATOM     11  H   UNL     1       1.142  -4.204   1.804  0.00  0.00    +0.149 HD
BRANCH   8  12
ATOM     12  C   UNL     1       0.059  -4.275  -0.021  0.00  0.00    +0.100 C 
ATOM     13  C   UNL     1      -1.353  -4.805   0.234  0.00  0.00    +0.033 C 
BRANCH  12  18
ATOM     14  C   UNL     1      -0.018   1.503   0.010  0.00  0.00    +0.044 C 
ATOM     15  C   UNL     1       0.002  -0.004   0.002  0.00  0.00    -0.050 A 
ATOM     16  C   UNL     1       0.006  -0.689  -1.199  0.00  0.00    +0.004 A 
ATOM     17  C   UNL     1       0.025  -2.071  -1.206  0.00  0.00    +0.006 A 
ATOM     18  C   UNL     1       0.040  -2.768  -0.013  0.00  0.00    -0.027 A 
ATOM     19  C   UNL     1       0.037  -2.084   1.188  0.00  0.00    +0.006 A 
ATOM     20  C   UNL     1       0.023  -0.702   1.195  0.00  0.00    +0.004 A 
ENDBRANCH  12  18
ENDBRANCH   8  12
ENDBRANCH   1   9
BRANCH   5  21
ATOM     21  C   UNL     1       4.309  -9.714   2.361  0.00  0.00    +0.022 C 
BRANCH  21  22
ATOM     22  C   UNL     1       5.130 -10.261   3.500  0.00  0.00    +0.211 A 
ATOM     23  N   UNL     1       4.668 -10.924   4.522  0.00  0.00    -0.193 NA
ATOM     24  C   UNL     1       5.675 -11.261   5.346  0.00  0.00    +0.202 A 
ATOM     25  N   UNL     1       6.797 -10.808   4.843  0.00  0.00    -0.056 NA
ATOM     26  O   UNL     1       6.459 -10.154   3.630  0.00  0.00    -0.340 OA
BRANCH  24  27
ATOM     27  C   UNL     1       5.539 -12.021   6.614  0.00  0.00    +0.023 A 
ATOM     28  C   UNL     1       4.284 -12.453   7.038  0.00  0.00    +0.013 A 
ATOM     29  C   UNL     1       4.163 -13.158   8.218  0.00  0.00    +0.016 A 
ATOM     30  C   UNL     1       5.285 -13.436   8.980  0.00  0.00    +0.018 A 
ATOM     31  C   UNL     1       6.534 -13.008   8.563  0.00  0.00    +0.016 A 
ATOM     32  C   UNL     1       6.666 -12.308   7.381  0.00  0.00    +0.013 A 
ATOM     33 BR   UNL     1       5.111 -14.403  10.596  0.00  0.00    -0.050 Br
ENDBRANCH  24  27
ENDBRANCH  21  22
ENDBRANCH   5  21
TORSDOF 6
