REMARK  Name = ZINC63361957
REMARK  7 active torsions:
REMARK  status: ('A' for Active; 'I' for Inactive)
REMARK    1  A    between atoms: C_1  and  C_2
REMARK    2  A    between atoms: C_2  and  C_3
REMARK    3  A    between atoms: C_3  and  C_5
REMARK    4  A    between atoms: C_3  and  N_6
REMARK    5  A    between atoms: C_7  and  C_9
REMARK    6  A    between atoms: C_14  and  N_15
REMARK    7  A    between atoms: C_18  and  C_34
REMARK                            x       y       z     vdW  Elec       q    Type
REMARK                         _______ _______ _______ _____ _____    ______ ____
ROOT
ATOM      1  N   UNL     1       1.911   0.280   6.149  0.00  0.00    -0.192 N 
ATOM      2  C   UNL     1       2.842   1.242   5.982  0.00  0.00    +0.253 C 
ATOM      3  O   UNL     1       2.649   2.408   5.713  0.00  0.00    -0.272 OA
ATOM      4  C   UNL     1       4.177   0.565   6.202  0.00  0.00    +0.137 C 
ATOM      5  C   UNL     1       5.024   0.643   4.926  0.00  0.00    +0.139 C 
ATOM      6  C   UNL     1       6.053  -0.478   5.022  0.00  0.00    -0.034 C 
ATOM      7  C   UNL     1       7.246   0.101   4.927  0.00  0.00    -0.001 A 
ATOM      8  C   UNL     1       8.605  -0.462   4.894  0.00  0.00    +0.010 A 
ATOM      9  C   UNL     1       9.622   0.434   4.798  0.00  0.00    +0.001 A 
ATOM     10  C   UNL     1       9.426   1.817   4.734  0.00  0.00    +0.002 A 
ATOM     11  C   UNL     1       8.211   2.421   4.753  0.00  0.00    +0.026 A 
ATOM     12  C   UNL     1       7.062   1.582   4.848  0.00  0.00    +0.043 A 
ATOM     13  N   UNL     1       5.787   1.892   4.868  0.00  0.00    -0.375 N 
ATOM     14  C   UNL     1       5.683  -1.923   5.251  0.00  0.00    +0.052 C 
ATOM     15  C   UNL     1       4.761  -1.967   6.485  0.00  0.00    +0.115 C 
ATOM     16  N   UNL     1       3.808  -0.857   6.386  0.00  0.00    -0.268 N 
ATOM     17  C   UNL     1       2.471  -0.909   6.411  0.00  0.00    +0.317 C 
ATOM     18  O   UNL     1       1.836  -1.919   6.641  0.00  0.00    -0.252 OA
ATOM     19  C   UNL     1       4.911   1.130   7.421  0.00  0.00    +0.044 C 
ATOM     20  H   UNL     1       5.411   2.786   4.850  0.00  0.00    +0.160 HD
ENDROOT
BRANCH   1  26
ATOM     21  C   UNL     1      -0.126   0.362   4.835  0.00  0.00    +0.059 A 
ATOM     22  C   UNL     1      -1.504   0.578   4.764  0.00  0.00    +0.015 A 
ATOM     23  C   UNL     1      -2.204   0.926   5.899  0.00  0.00    +0.001 A 
ATOM     24  C   UNL     1      -1.548   1.064   7.111  0.00  0.00    +0.002 A 
ATOM     25  C   UNL     1      -0.185   0.855   7.196  0.00  0.00    +0.025 A 
ATOM     26  C   UNL     1       0.535   0.498   6.064  0.00  0.00    +0.058 A 
BRANCH  21  28
ATOM     27  N   UNL     1      -0.008  -0.140   2.444  0.00  0.00    -0.309 N 
ATOM     28  C   UNL     1       0.630  -0.011   3.624  0.00  0.00    +0.246 C 
ATOM     29  O   UNL     1       1.829  -0.202   3.690  0.00  0.00    -0.270 OA
ATOM     30  H   UNL     1      -0.965   0.013   2.391  0.00  0.00    +0.149 HD
BRANCH  27  31
ATOM     31  C   UNL     1       0.742  -0.511   1.242  0.00  0.00    +0.070 C 
ATOM     32  C   UNL     1       0.872  -2.034   1.171  0.00  0.00    +0.028 C 
BRANCH  31  34
ATOM     33  C   UNL     1      -0.019   1.526   0.010  0.00  0.00    +0.005 C 
ATOM     34  C   UNL     1       0.002  -0.004   0.002  0.00  0.00    +0.018 C 
ENDBRANCH  31  34
ENDBRANCH  27  31
ENDBRANCH  21  28
ENDBRANCH   1  26
TORSDOF 4
