REMARK  Name = ZINC13064117
REMARK  14 active torsions:
REMARK  status: ('A' for Active; 'I' for Inactive)
REMARK    1  A    between atoms: C_1  and  C_2
REMARK    2  A    between atoms: C_2  and  C_3
REMARK    3  A    between atoms: C_3  and  C_5
REMARK    4  A    between atoms: C_3  and  N_68
REMARK    5  A    between atoms: N_9  and  C_10
REMARK    6  A    between atoms: C_10  and  C_11
REMARK    7  A    between atoms: C_14  and  O_17
REMARK    8  A    between atoms: O_17  and  C_18
REMARK    9  A    between atoms: C_19  and  C_20
REMARK   10  A    between atoms: C_19  and  N_68
REMARK   11  A    between atoms: C_25  and  C_26
REMARK   12  A    between atoms: C_25  and  N_68
REMARK   13  A    between atoms: C_30  and  O_38
REMARK   14  A    between atoms: O_38  and  C_39
REMARK                            x       y       z     vdW  Elec       q    Type
REMARK                         _______ _______ _______ _____ _____    ______ ____
ROOT
ATOM      1  N   UNL     1      -1.959   1.529   1.534  0.00  0.00    +0.394 N 
ATOM      2  H   UNL     1      -2.275   1.967   2.406  0.00  0.00    -0.080 HD
ENDROOT
BRANCH   1   3
ATOM      3  C   UNL     1      -0.562   1.936   1.270  0.00  0.00    +0.003 C 
BRANCH   3   4
ATOM      4  C   UNL     1      -0.232   1.771  -0.191  0.00  0.00    +0.138 A 
ATOM      5  N   UNL     1      -0.955   2.175  -1.207  0.00  0.00    -0.115 NA
ATOM      6  N   UNL     1      -0.336   1.851  -2.289  0.00  0.00    -0.023 NA
ATOM      7  N   UNL     1       0.759   1.244  -1.990  0.00  0.00    -0.044 NA
ATOM      8  N   UNL     1       0.859   1.175  -0.706  0.00  0.00    -0.226 N 
BRANCH   8   9
ATOM      9  C   UNL     1       1.954   0.562   0.050  0.00  0.00    +0.182 C 
BRANCH   9  10
ATOM     10  C   UNL     1       1.776  -0.934   0.069  0.00  0.00    -0.026 A 
ATOM     11  C   UNL     1       0.971  -1.521   1.028  0.00  0.00    +0.009 A 
ATOM     12  C   UNL     1       0.802  -2.892   1.044  0.00  0.00    +0.046 A 
ATOM     13  C   UNL     1       1.450  -3.681   0.104  0.00  0.00    +0.120 A 
ATOM     14  C   UNL     1       2.262  -3.090  -0.853  0.00  0.00    +0.046 A 
ATOM     15  C   UNL     1       2.423  -1.718  -0.868  0.00  0.00    +0.009 A 
BRANCH  13  16
ATOM     16  O   UNL     1       1.289  -5.030   0.121  0.00  0.00    -0.495 OA
ATOM     17  C   UNL     1       0.439  -5.569   1.135  0.00  0.00    +0.277 C 
ENDBRANCH  13  16
ENDBRANCH   9  10
ENDBRANCH   8   9
ENDBRANCH   3   4
BRANCH   3  19
ATOM     18  C   UNL     1      -0.704   3.567   3.158  0.00  0.00    +0.002 C 
ATOM     19  C   UNL     1      -0.398   3.405   1.667  0.00  0.00    -0.011 C 
ENDBRANCH   3  19
ENDBRANCH   1   3
BRANCH   1  20
ATOM     20  C   UNL     1      -2.038   0.060   1.678  0.00  0.00    -0.002 C 
BRANCH  20  21
ATOM     21  C   UNL     1      -1.589  -0.312   3.068  0.00  0.00    +0.089 A 
ATOM     22  C   UNL     1      -2.393  -0.514   4.127  0.00  0.00    +0.042 A 
ATOM     23  C   UNL     1      -1.558  -0.842   5.219  0.00  0.00    +0.041 A 
ATOM     24  C   UNL     1      -0.292  -0.821   4.762  0.00  0.00    +0.195 A 
ATOM     25  O   UNL     1      -0.318  -0.505   3.457  0.00  0.00    -0.470 OA
ENDBRANCH  20  21
ENDBRANCH   1  20
BRANCH   1  26
ATOM     26  C   UNL     1      -2.832   1.976   0.428  0.00  0.00    -0.036 C 
BRANCH  26  27
ATOM     27  C   UNL     1      -4.266   1.900   0.884  0.00  0.00    +0.001 A 
ATOM     28  C   UNL     1      -4.856   2.987   1.441  0.00  0.00    +0.017 A 
ATOM     29  C   UNL     1      -6.252   2.883   1.870  0.00  0.00    +0.002 A 
ATOM     30  C   UNL     1      -6.913   3.973   2.446  0.00  0.00    +0.055 A 
ATOM     31  C   UNL     1      -8.228   3.839   2.844  0.00  0.00    +0.121 A 
ATOM     32  C   UNL     1      -8.895   2.628   2.674  0.00  0.00    +0.047 A 
ATOM     33  C   UNL     1      -8.254   1.548   2.108  0.00  0.00    +0.030 A 
ATOM     34  C   UNL     1      -6.929   1.661   1.700  0.00  0.00    +0.049 A 
ATOM     35  N   UNL     1      -6.270   0.591   1.131  0.00  0.00    -0.322 N 
ATOM     36  H   UNL     1      -6.738  -0.251   1.013  0.00  0.00    +0.169 HD
ATOM     37  C   UNL     1      -4.989   0.698   0.736  0.00  0.00    +0.251 A 
ATOM     38  O   UNL     1      -4.439  -0.269   0.236  0.00  0.00    -0.268 OA
BRANCH  31  39
ATOM     39  O   UNL     1      -8.876   4.895   3.405  0.00  0.00    -0.495 OA
ATOM     40  C   UNL     1     -10.236   4.689   3.794  0.00  0.00    +0.277 C 
ENDBRANCH  31  39
ENDBRANCH  26  27
ENDBRANCH   1  26
TORSDOF 11
