REMARK  Name = ZINC09282631
REMARK  10 active torsions:
REMARK  status: ('A' for Active; 'I' for Inactive)
REMARK    1  A    between atoms: C_1  and  C_2
REMARK    2  A    between atoms: C_2  and  N_3
REMARK    3  A    between atoms: N_3  and  C_4
REMARK    4  A    between atoms: N_3  and  C_6
REMARK    5  A    between atoms: C_4  and  C_5
REMARK    6  A    between atoms: C_9  and  C_12
REMARK    7  A    between atoms: C_20  and  O_34
REMARK    8  A    between atoms: C_23  and  C_24
REMARK    9  A    between atoms: C_23  and  N_69
REMARK   10  A    between atoms: N_26  and  C_27
REMARK                            x       y       z     vdW  Elec       q    Type
REMARK                         _______ _______ _______ _____ _____    ______ ____
ROOT
ATOM      1  C   UNL     1       1.235   2.051  -0.348  0.00  0.00    -0.031 C 
ATOM      2  C   UNL     1       1.117   3.575  -0.398  0.00  0.00    +0.011 C 
ATOM      3  C   UNL     1       2.509   4.207  -0.425  0.00  0.00    +0.005 C 
ATOM      4  C   UNL     1       2.372   5.731  -0.467  0.00  0.00    +0.000 C 
ATOM      5  C   UNL     1       1.595   6.144  -1.718  0.00  0.00    +0.003 C 
ATOM      6  C   UNL     1       0.205   5.502  -1.696  0.00  0.00    +0.035 C 
ATOM      7  C   UNL     1       0.354   3.980  -1.662  0.00  0.00    +0.066 C 
ATOM      8  C   UNL     1      -1.027   3.321  -1.645  0.00  0.00    +0.016 C 
ATOM      9  C   UNL     1      -0.855   1.802  -1.555  0.00  0.00    -0.075 C 
ATOM     10  N   UNL     1      -0.126   1.470  -0.312  0.00  0.00    +0.390 N 
ATOM     11  H   UNL     1      -0.635   1.864   0.487  0.00  0.00    -0.080 HD
ENDROOT
BRANCH   1  15
ATOM     12  C   UNL     1       3.329   0.895   3.194  0.00  0.00    +0.030 A 
ATOM     13  C   UNL     1       3.994   0.941   1.976  0.00  0.00    +0.023 A 
ATOM     14  C   UNL     1       3.314   1.315   0.833  0.00  0.00    +0.004 A 
ATOM     15  C   UNL     1       1.973   1.644   0.901  0.00  0.00    -0.060 A 
ATOM     16  C   UNL     1       1.309   1.605   2.114  0.00  0.00    +0.004 A 
ATOM     17  C   UNL     1       1.981   1.227   3.259  0.00  0.00    +0.023 A 
BRANCH  12  18
ATOM     18  N   UNL     1       4.013   0.518   4.352  0.00  0.00    -0.330 N 
BRANCH  18  20
ATOM     19  C   UNL     1       2.715  -0.924   5.841  0.00  0.00    +0.024 C 
ATOM     20  C   UNL     1       3.310   0.471   5.636  0.00  0.00    +0.102 C 
ENDBRANCH  18  20
BRANCH  18  21
ATOM     21  C   UNL     1       5.435   0.170   4.282  0.00  0.00    +0.102 C 
ATOM     22  C   UNL     1       6.279   1.426   4.499  0.00  0.00    +0.024 C 
ENDBRANCH  18  21
ENDBRANCH  12  18
ENDBRANCH   1  15
BRANCH   7  23
ATOM     23  O   UNL     1       1.077   3.545  -2.815  0.00  0.00    -0.388 OA
ATOM     24  H   UNL     1       0.651   3.768  -3.654  0.00  0.00    +0.210 HD
ENDBRANCH   7  23
BRANCH  10  25
ATOM     25  C   UNL     1      -0.043   0.004  -0.153  0.00  0.00    +0.020 C 
BRANCH  25  26
ATOM     26  C   UNL     1      -1.428  -0.535   0.098  0.00  0.00    +0.201 C 
ATOM     27  O   UNL     1      -2.377   0.220   0.121  0.00  0.00    -0.278 OA
ATOM     28  N   UNL     1      -1.612  -1.855   0.297  0.00  0.00    -0.287 N 
ATOM     29  H   UNL     1      -0.866  -2.468   0.203  0.00  0.00    +0.155 HD
BRANCH  28  30
ATOM     30  C   UNL     1      -2.879  -2.342   0.639  0.00  0.00    +0.033 A 
ATOM     31  C   UNL     1      -3.731  -1.574   1.421  0.00  0.00    +0.025 A 
ATOM     32  C   UNL     1      -4.982  -2.054   1.754  0.00  0.00    +0.022 A 
ATOM     33  C   UNL     1      -5.384  -3.304   1.316  0.00  0.00    +0.041 A 
ATOM     34  C   UNL     1      -4.535  -4.074   0.540  0.00  0.00    +0.022 A 
ATOM     35  C   UNL     1      -3.284  -3.596   0.201  0.00  0.00    +0.025 A 
ATOM     36 CL   UNL     1      -6.955  -3.908   1.740  0.00  0.00    -0.084 Cl
ENDBRANCH  28  30
ENDBRANCH  25  26
ENDBRANCH  10  25
TORSDOF 8
