REMARK  Name = ZINC20892122
REMARK  3 active torsions:
REMARK  status: ('A' for Active; 'I' for Inactive)
REMARK    1  A    between atoms: C_1  and  C_2
REMARK    2  A    between atoms: N_5  and  C_7
REMARK    3  A    between atoms: C_19  and  C_21
REMARK                            x       y       z     vdW  Elec       q    Type
REMARK                         _______ _______ _______ _____ _____    ______ ____
ROOT
ATOM      1  C   UNL     1      -1.165   2.898   2.403  0.00  0.00    +0.068 C 
ATOM      2  C   UNL     1      -2.666   3.010   2.335  0.00  0.00    +0.067 A 
ATOM      3  C   UNL     1      -3.418   3.283   1.173  0.00  0.00    +0.033 A 
ATOM      4  C   UNL     1      -4.723   3.304   1.521  0.00  0.00    +0.133 A 
ATOM      5  N   UNL     1      -4.784   3.043   2.872  0.00  0.00    -0.218 N 
ATOM      6  N   UNL     1      -3.482   2.869   3.341  0.00  0.00    -0.170 NA
ATOM      7  N   UNL     1      -5.864   3.526   0.788  0.00  0.00    -0.269 N 
ATOM      8  C   UNL     1      -6.122   3.742  -0.467  0.00  0.00    +0.228 C 
ATOM      9  O   UNL     1      -7.301   3.790  -0.745  0.00  0.00    -0.275 OA
ATOM     10  C   UNL     1      -5.205   3.938  -1.610  0.00  0.00    +0.166 C 
ATOM     11  S   UNL     1      -3.750   2.885  -1.532  0.00  0.00    -0.138 S 
ATOM     12  C   UNL     1      -2.769   3.495  -0.159  0.00  0.00    +0.112 C 
ATOM     13  H   UNL     1      -6.844   3.546   1.288  0.00  0.00    +0.156 HD
ENDROOT
BRANCH   5  14
ATOM     14  C   UNL     1      -5.953   2.966   3.643  0.00  0.00    +0.068 A 
ATOM     15  C   UNL     1      -6.002   3.568   4.893  0.00  0.00    +0.030 A 
ATOM     16  C   UNL     1      -7.157   3.496   5.648  0.00  0.00    +0.040 A 
ATOM     17  C   UNL     1      -8.260   2.814   5.164  0.00  0.00    +0.124 A 
ATOM     18  C   UNL     1      -8.211   2.209   3.919  0.00  0.00    +0.040 A 
ATOM     19  C   UNL     1      -7.061   2.283   3.159  0.00  0.00    +0.030 A 
ATOM     20  F   UNL     1      -9.386   2.740   5.906  0.00  0.00    -0.205 F 
ENDBRANCH   5  14
BRANCH  12  21
ATOM     21  C   UNL     1      -1.437   2.791  -0.166  0.00  0.00    -0.030 A 
ATOM     22  C   UNL     1      -1.385   1.411  -0.225  0.00  0.00    +0.008 A 
ATOM     23  C   UNL     1      -0.164   0.764  -0.226  0.00  0.00    +0.038 A 
ATOM     24  C   UNL     1       1.008   1.499  -0.178  0.00  0.00    +0.123 A 
ATOM     25  C   UNL     1       0.956   2.881  -0.124  0.00  0.00    +0.038 A 
ATOM     26  C   UNL     1      -0.267   3.526  -0.117  0.00  0.00    +0.008 A 
ATOM     27  F   UNL     1       2.203   0.867  -0.184  0.00  0.00    -0.205 F 
ENDBRANCH  12  21
TORSDOF 2
