REMARK  Name = ZINC12442234
REMARK  8 active torsions:
REMARK  status: ('A' for Active; 'I' for Inactive)
REMARK    1  A    between atoms: C_1  and  C_2
REMARK    2  A    between atoms: C_7  and  N_8
REMARK    3  A    between atoms: C_13  and  N_59
REMARK    4  A    between atoms: C_16  and  C_18
REMARK    5  A    between atoms: C_16  and  C_19
REMARK    6  A    between atoms: C_20  and  C_21
REMARK    7  A    between atoms: C_20  and  N_59
REMARK    8  A    between atoms: C_26  and  C_27
REMARK                            x       y       z     vdW  Elec       q    Type
REMARK                         _______ _______ _______ _____ _____    ______ ____
ROOT
ATOM      1  N   UNL     1      -7.733   5.960   2.277  0.00  0.00    -0.236 N 
ATOM      2  C   UNL     1      -6.484   6.230   1.854  0.00  0.00    +0.047 A 
ATOM      3  C   UNL     1      -5.766   5.079   1.918  0.00  0.00    -0.020 A 
ATOM      4  C   UNL     1      -6.605   4.075   2.398  0.00  0.00    +0.137 A 
ATOM      5  N   UNL     1      -7.787   4.600   2.615  0.00  0.00    -0.174 NA
ATOM      6  C   UNL     1      -4.315   4.965   1.524  0.00  0.00    -0.037 C 
ATOM      7  C   UNL     1      -3.943   6.193   0.685  0.00  0.00    -0.005 C 
ATOM      8  C   UNL     1      -4.395   7.464   1.409  0.00  0.00    -0.031 C 
ATOM      9  C   UNL     1      -5.926   7.550   1.386  0.00  0.00    +0.062 C 
ATOM     10  C   UNL     1      -3.804   8.688   0.708  0.00  0.00    +0.011 C 
ATOM     11  C   UNL     1      -3.909   7.423   2.860  0.00  0.00    +0.011 C 
ENDROOT
BRANCH   1  18
ATOM     12  C   UNL     1     -10.240   5.233   1.143  0.00  0.00    +0.046 C 
ATOM     13  C   UNL     1     -10.030   6.560   1.825  0.00  0.00    -0.025 A 
ATOM     14  C   UNL     1     -11.073   7.462   1.918  0.00  0.00    +0.005 A 
ATOM     15  C   UNL     1     -10.879   8.683   2.537  0.00  0.00    +0.000 A 
ATOM     16  C   UNL     1      -9.644   9.002   3.071  0.00  0.00    +0.002 A 
ATOM     17  C   UNL     1      -8.600   8.103   2.986  0.00  0.00    +0.028 A 
ATOM     18  C   UNL     1      -8.791   6.876   2.365  0.00  0.00    +0.069 A 
ENDBRANCH   1  18
BRANCH   6  19
ATOM     19  N   UNL     1      -4.112   3.744   0.722  0.00  0.00    +0.386 N 
ATOM     20  H   UNL     1      -3.289   3.867   0.120  0.00  0.00    -0.085 HD
ATOM     21  H   UNL     1      -4.941   3.580   0.139  0.00  0.00    -0.085 HD
BRANCH  19  22
ATOM     22  C   UNL     1      -3.900   2.581   1.604  0.00  0.00    -0.042 C 
BRANCH  22  23
ATOM     23  C   UNL     1      -3.696   1.350   0.758  0.00  0.00    -0.019 A 
ATOM     24  C   UNL     1      -4.628   0.414   0.478  0.00  0.00    +0.107 A 
ATOM     25  N   UNL     1      -4.053  -0.527  -0.302  0.00  0.00    -0.284 N 
ATOM     26  H   UNL     1      -4.501  -1.345  -0.662  0.00  0.00    +0.188 HD
ATOM     27  N   UNL     1      -2.719  -0.159  -0.517  0.00  0.00    -0.174 NA
ATOM     28  C   UNL     1      -2.499   0.974   0.117  0.00  0.00    +0.094 A 
BRANCH  28  29
ATOM     29  C   UNL     1      -1.217   1.720   0.154  0.00  0.00    +0.002 A 
ATOM     30  C   UNL     1      -0.007   1.029   0.166  0.00  0.00    +0.010 A 
ATOM     31  C   UNL     1       1.183   1.728   0.195  0.00  0.00    +0.001 A 
ATOM     32  C   UNL     1       1.176   3.111   0.218  0.00  0.00    +0.000 A 
ATOM     33  C   UNL     1      -0.022   3.801   0.212  0.00  0.00    +0.001 A 
ATOM     34  C   UNL     1      -1.218   3.113   0.183  0.00  0.00    +0.010 A 
ENDBRANCH  28  29
ENDBRANCH  22  23
ENDBRANCH  19  22
ENDBRANCH   6  19
TORSDOF 5
