REMARK  Name = ZINC11691842
REMARK  7 active torsions:
REMARK  status: ('A' for Active; 'I' for Inactive)
REMARK    1  A    between atoms: C_1  and  C_2
REMARK    2  A    between atoms: C_2  and  O_3
REMARK    3  A    between atoms: O_3  and  C_4
REMARK    4  A    between atoms: C_9  and  N_10
REMARK    5  A    between atoms: C_11  and  N_27
REMARK    6  A    between atoms: C_12  and  C_15
REMARK    7  A    between atoms: C_17  and  C_20
REMARK                            x       y       z     vdW  Elec       q    Type
REMARK                         _______ _______ _______ _____ _____    ______ ____
ROOT
ATOM      1  N   UNL     1       1.160   3.491  -0.011  0.00  0.00    -0.195 N 
ATOM      2  C   UNL     1       0.059   4.291  -0.072  0.00  0.00    +0.153 A 
ATOM      3  C   UNL     1       0.523   5.597  -0.006  0.00  0.00    +0.191 A 
ATOM      4  N   UNL     1       1.864   5.560   0.090  0.00  0.00    -0.122 NA
ATOM      5  N   UNL     1       2.270   4.340   0.096  0.00  0.00    -0.058 NA
ENDROOT
BRANCH   1  11
ATOM      6  C   UNL     1       1.938   1.378   0.883  0.00  0.00    +0.146 A 
ATOM      7  C   UNL     1       1.953  -0.007   0.845  0.00  0.00    +0.048 A 
ATOM      8  C   UNL     1       1.215  -0.681  -0.110  0.00  0.00    +0.004 A 
ATOM      9  C   UNL     1       0.461   0.023  -1.030  0.00  0.00    +0.002 A 
ATOM     10  C   UNL     1       0.441   1.405  -0.999  0.00  0.00    +0.031 A 
ATOM     11  C   UNL     1       1.179   2.088  -0.044  0.00  0.00    +0.111 A 
BRANCH   6  12
ATOM     12  O   UNL     1       2.663   2.042   1.821  0.00  0.00    -0.490 OA
BRANCH  12  14
ATOM     13  C   UNL     1       4.164   2.165   3.712  0.00  0.00    +0.048 C 
ATOM     14  C   UNL     1       3.419   1.249   2.739  0.00  0.00    +0.226 C 
ENDBRANCH  12  14
ENDBRANCH   6  12
ENDBRANCH   1  11
BRANCH   3  15
ATOM     15  C   UNL     1      -0.307   6.811  -0.037  0.00  0.00    +0.282 A 
ATOM     16  N   UNL     1       0.121   8.062   0.024  0.00  0.00    -0.186 NA
ATOM     17  C   UNL     1      -0.989   8.826  -0.037  0.00  0.00    +0.202 A 
ATOM     18  N   UNL     1      -2.015   8.019  -0.131  0.00  0.00    -0.056 NA
ATOM     19  O   UNL     1      -1.646   6.864  -0.138  0.00  0.00    -0.331 OA
BRANCH  17  20
ATOM     20  C   UNL     1      -1.038  10.309  -0.005  0.00  0.00    +0.023 A 
ATOM     21  C   UNL     1       0.140  11.044   0.105  0.00  0.00    +0.013 A 
ATOM     22  C   UNL     1       0.090  12.423   0.129  0.00  0.00    +0.016 A 
ATOM     23  C   UNL     1      -1.129  13.075   0.056  0.00  0.00    +0.018 A 
ATOM     24  C   UNL     1      -2.302  12.349  -0.047  0.00  0.00    +0.016 A 
ATOM     25  C   UNL     1      -2.262  10.970  -0.077  0.00  0.00    +0.013 A 
ATOM     26 BR   UNL     1      -1.191  14.965   0.099  0.00  0.00    -0.050 Br
ENDBRANCH  17  20
ENDBRANCH   3  15
BRANCH   2  27
ATOM     27  N   UNL     1      -1.258   3.883  -0.177  0.00  0.00    -0.341 N 
ATOM     28  H   UNL     1      -1.480   2.940  -0.126  0.00  0.00    +0.144 HD
ATOM     29  H   UNL     1      -1.961   4.540  -0.301  0.00  0.00    +0.144 HD
ENDBRANCH   2  27
TORSDOF 6
