REMARK  Name = ZINC29957148
REMARK  7 active torsions:
REMARK  status: ('A' for Active; 'I' for Inactive)
REMARK    1  A    between atoms: C_4  and  C_7
REMARK    2  A    between atoms: C_7  and  C_9
REMARK    3  A    between atoms: C_7  and  N_23
REMARK    4  A    between atoms: C_17  and  C_19
REMARK    5  A    between atoms: C_24  and  C_26
REMARK    6  A    between atoms: C_26  and  C_27
REMARK    7  A    between atoms: C_30  and  N_33
REMARK                            x       y       z     vdW  Elec       q    Type
REMARK                         _______ _______ _______ _____ _____    ______ ____
ROOT
ATOM      1  C   UNL     1       2.484   1.047  -0.015  0.00  0.00    +0.134 C 
ENDROOT
BRANCH   1   2
ATOM      2  C   UNL     1       1.170   1.784   0.001  0.00  0.00    -0.021 A 
ATOM      3  C   UNL     1       1.158   3.172   0.008  0.00  0.00    +0.008 A 
ATOM      4  C   UNL     1      -0.022   3.859   0.022  0.00  0.00    +0.030 A 
ATOM      5  C   UNL     1      -1.234   3.162   0.030  0.00  0.00    +0.089 A 
ATOM      6  C   UNL     1      -1.222   1.757   0.017  0.00  0.00    +0.067 A 
ATOM      7  C   UNL     1      -0.013   1.076   0.008  0.00  0.00    +0.033 A 
ATOM      8  N   UNL     1      -2.546   1.365   0.022  0.00  0.00    -0.335 N 
ATOM      9  H   UNL     1      -2.803   0.296   0.018  0.00  0.00    +0.167 HD
ATOM     10  C   UNL     1      -3.303   2.496   0.031  0.00  0.00    +0.213 A 
ATOM     11  N   UNL     1      -2.536   3.547   0.044  0.00  0.00    -0.224 NA
BRANCH  10  12
ATOM     12  C   UNL     1      -4.809   2.526   0.039  0.00  0.00    +0.450 C 
ATOM     13  F   UNL     1      -5.251   3.812  -0.294  0.00  0.00    -0.163 F 
ATOM     14  F   UNL     1      -5.299   1.608  -0.896  0.00  0.00    -0.163 F 
ATOM     15  F   UNL     1      -5.276   2.188   1.313  0.00  0.00    -0.163 F 
ENDBRANCH  10  12
ENDBRANCH   1   2
BRANCH   1  19
ATOM     16  C   UNL     1       4.106   0.940   3.935  0.00  0.00    +0.000 A 
ATOM     17  C   UNL     1       3.441  -0.162   3.431  0.00  0.00    +0.000 A 
ATOM     18  C   UNL     1       2.917  -0.127   2.152  0.00  0.00    +0.006 A 
ATOM     19  C   UNL     1       3.056   1.010   1.378  0.00  0.00    -0.023 A 
ATOM     20  C   UNL     1       3.725   2.110   1.881  0.00  0.00    +0.006 A 
ATOM     21  C   UNL     1       4.246   2.077   3.161  0.00  0.00    +0.000 A 
ENDBRANCH   1  19
BRANCH   1  22
ATOM     22  N   UNL     1       3.419   1.736  -0.909  0.00  0.00    -0.304 N 
ATOM     23  C   UNL     1       4.431   1.053  -1.481  0.00  0.00    +0.218 C 
ATOM     24  O   UNL     1       4.566  -0.131  -1.257  0.00  0.00    -0.275 OA
ATOM     25  H   UNL     1       3.296   2.809  -1.112  0.00  0.00    +0.150 HD
BRANCH  23  26
ATOM     26  C   UNL     1       5.393   1.761  -2.400  0.00  0.00    +0.130 C 
BRANCH  26  27
ATOM     27  C   UNL     1       6.421   0.780  -2.903  0.00  0.00    -0.038 A 
ATOM     28  C   UNL     1       7.597   0.593  -2.202  0.00  0.00    +0.006 A 
ATOM     29  C   UNL     1       8.539  -0.310  -2.662  0.00  0.00    +0.033 A 
ATOM     30  C   UNL     1       8.307  -1.018  -3.826  0.00  0.00    +0.126 A 
ATOM     31  C   UNL     1       7.132  -0.826  -4.529  0.00  0.00    +0.033 A 
ATOM     32  C   UNL     1       6.189   0.073  -4.068  0.00  0.00    +0.006 A 
BRANCH  30  33
ATOM     33  N   UNL     1       9.317  -1.980  -4.320  0.00  0.00    +0.056 N 
ATOM     34  O   UNL     1       9.113  -2.604  -5.346  0.00  0.00    -0.126 OA
ATOM     35  O   UNL     1      10.352  -2.149  -3.701  0.00  0.00    -0.126 OA
ENDBRANCH  30  33
ENDBRANCH  26  27
ENDBRANCH  23  26
ENDBRANCH   1  22
TORSDOF 7
