REMARK  Name = ZINC13769624
REMARK  6 active torsions:
REMARK  status: ('A' for Active; 'I' for Inactive)
REMARK    1  A    between atoms: C_1  and  O_2
REMARK    2  A    between atoms: O_2  and  C_3
REMARK    3  A    between atoms: C_6  and  C_9
REMARK    4  A    between atoms: N_17  and  C_20
REMARK    5  A    between atoms: C_28  and  N_32
REMARK    6  A    between atoms: C_29  and  C_30
REMARK                            x       y       z     vdW  Elec       q    Type
REMARK                         _______ _______ _______ _____ _____    ______ ____
ROOT
ATOM      1  C   UNL     1       2.505  -2.503  -4.381  0.00  0.00    +0.075 C 
ATOM      2  C   UNL     1       1.540  -3.454  -5.030  0.00  0.00    +0.110 C 
ATOM      3  C   UNL     1       1.061  -4.475  -3.951  0.00  0.00    +0.152 C 
ATOM      4  C   UNL     1      -0.169  -5.005  -4.635  0.00  0.00    +0.240 C 
ATOM      5  O   UNL     1      -0.638  -6.117  -4.529  0.00  0.00    -0.274 OA
ATOM      6  N   UNL     1      -0.648  -3.987  -5.397  0.00  0.00    -0.209 N 
ATOM      7  C   UNL     1       0.219  -2.957  -5.523  0.00  0.00    +0.232 C 
ATOM      8  O   UNL     1      -0.029  -1.853  -5.956  0.00  0.00    -0.274 OA
ATOM      9  S   UNL     1       2.426  -5.653  -3.788  0.00  0.00    -0.096 S 
ATOM     10  C   UNL     1       3.804  -4.554  -3.616  0.00  0.00    +0.074 C 
ATOM     11  C   UNL     1       3.719  -3.252  -3.903  0.00  0.00    +0.064 C 
ENDROOT
BRANCH   6  12
ATOM     12  C   UNL     1      -1.922  -4.001  -5.984  0.00  0.00    +0.044 A 
ATOM     13  C   UNL     1      -2.343  -2.927  -6.756  0.00  0.00    +0.025 A 
ATOM     14  C   UNL     1      -3.598  -2.943  -7.333  0.00  0.00    +0.017 A 
ATOM     15  C   UNL     1      -4.434  -4.029  -7.143  0.00  0.00    +0.018 A 
ATOM     16  C   UNL     1      -4.016  -5.101  -6.375  0.00  0.00    +0.017 A 
ATOM     17  C   UNL     1      -2.761  -5.092  -5.800  0.00  0.00    +0.025 A 
ATOM     18 BR   UNL     1      -6.151  -4.047  -7.935  0.00  0.00    -0.050 Br
ENDBRANCH   6  12
BRANCH   1  22
ATOM     19  C   UNL     1       0.607  -0.607  -1.055  0.00  0.00    +0.120 A 
ATOM     20  C   UNL     1       1.259  -1.819  -0.885  0.00  0.00    +0.046 A 
ATOM     21  C   UNL     1       1.871  -2.431  -1.962  0.00  0.00    +0.008 A 
ATOM     22  C   UNL     1       1.835  -1.835  -3.209  0.00  0.00    -0.038 A 
ATOM     23  C   UNL     1       1.186  -0.626  -3.381  0.00  0.00    +0.008 A 
ATOM     24  C   UNL     1       0.567  -0.014  -2.309  0.00  0.00    +0.046 A 
BRANCH  19  26
ATOM     25  C   UNL     1       0.084  -0.672   1.263  0.00  0.00    +0.277 C 
ATOM     26  O   UNL     1       0.003  -0.004   0.002  0.00  0.00    -0.495 OA
ENDBRANCH  19  26
ENDBRANCH   1  22
BRANCH  10  27
ATOM     27  N   UNL     1       5.008  -5.061  -3.189  0.00  0.00    -0.352 N 
ATOM     28  H   UNL     1       5.093  -6.006  -2.988  0.00  0.00    +0.143 HD
ATOM     29  H   UNL     1       5.774  -4.474  -3.090  0.00  0.00    +0.143 HD
ENDBRANCH  10  27
BRANCH  11  30
ATOM     30  C   UNL     1       4.912  -2.483  -3.713  0.00  0.00    +0.098 C 
ATOM     31  N   UNL     1       5.859  -1.873  -3.562  0.00  0.00    -0.191 NA
ENDBRANCH  11  30
TORSDOF 5
