REMARK  Name = ZINC38738985
REMARK  5 active torsions:
REMARK  status: ('A' for Active; 'I' for Inactive)
REMARK    1  A    between atoms: C_1  and  C_2
REMARK    2  A    between atoms: C_8  and  N_10
REMARK    3  A    between atoms: N_16  and  C_19
REMARK    4  A    between atoms: C_19  and  C_20
REMARK    5  A    between atoms: C_25  and  C_30
REMARK                            x       y       z     vdW  Elec       q    Type
REMARK                         _______ _______ _______ _____ _____    ______ ____
ROOT
ATOM      1  N   UNL     1       2.209  -0.207   3.555  0.00  0.00    -0.296 N 
ATOM      2  C   UNL     1       2.795   0.128   2.388  0.00  0.00    +0.303 C 
ATOM      3  O   UNL     1       2.218  -0.076   1.338  0.00  0.00    -0.253 OA
ATOM      4  N   UNL     1       4.021   0.688   2.386  0.00  0.00    -0.283 N 
ATOM      5  C   UNL     1       4.630   1.166   1.136  0.00  0.00    +0.124 C 
ATOM      6  C   UNL     1       5.106   2.608   1.346  0.00  0.00    +0.104 C 
ATOM      7  N   UNL     1       5.981   2.664   2.525  0.00  0.00    -0.292 NA
ATOM      8  C   UNL     1       5.254   2.292   3.746  0.00  0.00    +0.104 C 
ATOM      9  C   UNL     1       4.782   0.843   3.635  0.00  0.00    +0.124 C 
ATOM     10  H   UNL     1       2.698  -0.114   4.387  0.00  0.00    +0.151 HD
ENDROOT
BRANCH   1  17
ATOM     11  C   UNL     1       1.593  -2.751   4.795  0.00  0.00    +0.009 C 
ATOM     12  C   UNL     1       0.617  -1.573   4.812  0.00  0.00    +0.006 C 
ATOM     13  C   UNL     1      -0.820  -2.101   4.823  0.00  0.00    +0.005 C 
ATOM     14  C   UNL     1      -1.796  -0.923   4.840  0.00  0.00    +0.000 C 
ATOM     15  C   UNL     1      -1.578  -0.062   3.593  0.00  0.00    +0.002 C 
ATOM     16  C   UNL     1      -0.142   0.466   3.582  0.00  0.00    +0.022 C 
ATOM     17  C   UNL     1       0.834  -0.713   3.565  0.00  0.00    +0.077 C 
ENDBRANCH   1  17
BRANCH   7  18
ATOM     18  C   UNL     1       6.595   3.992   2.662  0.00  0.00    +0.158 C 
BRANCH  18  19
ATOM     19  C   UNL     1       7.663   3.944   3.723  0.00  0.00    +0.138 C 
ATOM     20  N   UNL     1       7.894   2.806   4.338  0.00  0.00    -0.160 NA
ATOM     21  C   UNL     1       8.826   2.692   5.288  0.00  0.00    +0.272 C 
ATOM     22  O   UNL     1       9.024   1.624   5.846  0.00  0.00    -0.268 OA
ATOM     23  C   UNL     1       9.620   3.899   5.650  0.00  0.00    +0.076 C 
ATOM     24  C   UNL     1      10.626   3.990   6.603  0.00  0.00    -0.009 C 
ATOM     25  C   UNL     1      11.274   5.346   6.773  0.00  0.00    +0.113 C 
ATOM     26  S   UNL     1      10.354   6.342   5.532  0.00  0.00    -0.100 S 
ATOM     27  C   UNL     1       9.280   5.068   4.918  0.00  0.00    +0.112 C 
ATOM     28  N   UNL     1       8.338   5.046   3.998  0.00  0.00    -0.226 NA
BRANCH  24  29
ATOM     29  C   UNL     1      11.018   2.885   7.366  0.00  0.00    +0.017 A 
ATOM     30  C   UNL     1      12.249   2.216   7.383  0.00  0.00    +0.016 A 
ATOM     31  C   UNL     1      12.333   1.158   8.245  0.00  0.00    +0.008 A 
ATOM     32  C   UNL     1      11.251   0.834   9.005  0.00  0.00    +0.046 A 
ATOM     33  S   UNL     1      10.086   1.966   8.576  0.00  0.00    -0.097 S 
ENDBRANCH  24  29
ENDBRANCH  18  19
ENDBRANCH   7  18
TORSDOF 4
