REMARK  Name = ZINC40322806
REMARK  12 active torsions:
REMARK  status: ('A' for Active; 'I' for Inactive)
REMARK    1  A    between atoms: C_1  and  C_2
REMARK    2  A    between atoms: C_2  and  C_3
REMARK    3  A    between atoms: C_3  and  O_4
REMARK    4  A    between atoms: O_4  and  C_5
REMARK    5  A    between atoms: C_8  and  C_11
REMARK    6  A    between atoms: C_11  and  C_13
REMARK    7  A    between atoms: C_11  and  N_32
REMARK    8  A    between atoms: C_13  and  N_14
REMARK    9  A    between atoms: C_15  and  C_17
REMARK   10  A    between atoms: C_20  and  S_22
REMARK   11  A    between atoms: S_22  and  C_25
REMARK   12  A    between atoms: C_28  and  C_31
REMARK                            x       y       z     vdW  Elec       q    Type
REMARK                         _______ _______ _______ _____ _____    ______ ____
ROOT
ATOM      1  N   UNL     1      -6.849  -3.841  -2.238  0.00  0.00    -0.310 N 
ATOM      2  C   UNL     1      -7.125  -3.995  -3.549  0.00  0.00    +0.279 C 
ATOM      3  O   UNL     1      -7.124  -5.107  -4.044  0.00  0.00    -0.267 OA
ATOM      4  H   UNL     1      -6.850  -2.955  -1.843  0.00  0.00    +0.149 HD
ENDROOT
BRANCH   2   5
ATOM      5  C   UNL     1      -7.425  -2.823  -4.377  0.00  0.00    +0.192 A 
ATOM      6  C   UNL     1      -7.724  -2.838  -5.710  0.00  0.00    +0.056 A 
ATOM      7  C   UNL     1      -7.939  -1.504  -6.089  0.00  0.00    +0.070 A 
ATOM      8  C   UNL     1      -7.764  -0.743  -4.987  0.00  0.00    +0.246 A 
ATOM      9  O   UNL     1      -7.459  -1.542  -3.956  0.00  0.00    -0.433 OA
BRANCH   8  10
ATOM     10  S   UNL     1      -7.918   1.011  -4.915  0.00  0.00    +0.058 S 
ATOM     11  O   UNL     1      -7.142   1.441  -3.805  0.00  0.00    -0.161 OA
ATOM     12  O   UNL     1      -7.694   1.492  -6.233  0.00  0.00    -0.161 OA
BRANCH  10  13
ATOM     13  C   UNL     1      -9.598   1.371  -4.525  0.00  0.00    +0.097 A 
ATOM     14  C   UNL     1     -10.523   1.532  -5.539  0.00  0.00    +0.028 A 
ATOM     15  C   UNL     1     -11.841   1.815  -5.234  0.00  0.00    +0.005 A 
ATOM     16  C   UNL     1     -12.234   1.937  -3.914  0.00  0.00    -0.050 A 
ATOM     17  C   UNL     1     -11.309   1.776  -2.900  0.00  0.00    +0.005 A 
ATOM     18  C   UNL     1      -9.991   1.488  -3.205  0.00  0.00    +0.028 A 
ATOM     19  C   UNL     1     -13.671   2.246  -3.581  0.00  0.00    +0.044 C 
ENDBRANCH  10  13
ENDBRANCH   8  10
ENDBRANCH   2   5
BRANCH   1  20
ATOM     20  C   UNL     1      -6.550  -5.012  -1.410  0.00  0.00    +0.094 C 
BRANCH  20  21
ATOM     21  C   UNL     1      -6.148  -4.555  -0.006  0.00  0.00    -0.020 C 
BRANCH  21  25
ATOM     22  C   UNL     1      -2.477  -2.377  -0.212  0.00  0.00    +0.121 A 
ATOM     23  C   UNL     1      -3.684  -1.698  -0.127  0.00  0.00    +0.046 A 
ATOM     24  C   UNL     1      -4.869  -2.405  -0.061  0.00  0.00    +0.005 A 
ATOM     25  C   UNL     1      -4.854  -3.787  -0.079  0.00  0.00    -0.059 A 
ATOM     26  C   UNL     1      -3.652  -4.466  -0.164  0.00  0.00    +0.005 A 
ATOM     27  C   UNL     1      -2.465  -3.764  -0.237  0.00  0.00    +0.046 A 
BRANCH  22  28
ATOM     28  O   UNL     1      -1.310  -1.685  -0.278  0.00  0.00    -0.492 OA
BRANCH  28  29
ATOM     29  C   UNL     1      -1.398  -0.259  -0.248  0.00  0.00    +0.229 C 
BRANCH  29  31
ATOM     30  C   UNL     1      -0.089   1.868  -0.299  0.00  0.00    +0.007 C 
ATOM     31  C   UNL     1       0.006   0.341  -0.331  0.00  0.00    +0.038 C 
ENDBRANCH  29  31
ENDBRANCH  28  29
ENDBRANCH  22  28
ENDBRANCH  21  25
BRANCH  21  32
ATOM     32  N   UNL     1      -5.973  -5.729   0.860  0.00  0.00    +0.385 N 
ATOM     33  C   UNL     1      -5.597  -5.301   2.231  0.00  0.00    -0.078 C 
ATOM     34  C   UNL     1      -5.999  -6.516   3.104  0.00  0.00    -0.020 C 
ATOM     35  C   UNL     1      -7.308  -7.002   2.439  0.00  0.00    -0.020 C 
ATOM     36  C   UNL     1      -7.255  -6.454   1.001  0.00  0.00    -0.078 C 
ATOM     37  H   UNL     1      -5.268  -6.341   0.479  0.00  0.00    -0.081 HD
ENDBRANCH  21  32
ENDBRANCH  20  21
ENDBRANCH   1  20
TORSDOF 10
