REMARK  Name = ZINC32124433
REMARK  11 active torsions:
REMARK  status: ('A' for Active; 'I' for Inactive)
REMARK    1  A    between atoms: C_1  and  O_2
REMARK    2  A    between atoms: O_2  and  C_3
REMARK    3  A    between atoms: C_5  and  C_11
REMARK    4  A    between atoms: C_7  and  O_9
REMARK    5  A    between atoms: O_9  and  C_10
REMARK    6  A    between atoms: N_24  and  C_25
REMARK    7  A    between atoms: C_25  and  C_27
REMARK    8  A    between atoms: C_25  and  C_34
REMARK    9  A    between atoms: C_27  and  C_28
REMARK   10  A    between atoms: C_34  and  O_36
REMARK   11  A    between atoms: O_36  and  C_37
REMARK                            x       y       z     vdW  Elec       q    Type
REMARK                         _______ _______ _______ _____ _____    ______ ____
ROOT
ATOM      1  C   UNL     1      -2.534  -4.173   0.014  0.00  0.00    +0.156 C 
ATOM      2  C   UNL     1      -2.688  -4.685   1.424  0.00  0.00    +0.064 A 
ATOM      3  C   UNL     1      -3.820  -5.237   1.911  0.00  0.00    +0.066 A 
ATOM      4  N   UNL     1      -3.598  -5.569   3.187  0.00  0.00    -0.240 NA
ATOM      5  C   UNL     1      -2.372  -5.247   3.508  0.00  0.00    +0.197 A 
ATOM      6  N   UNL     1      -1.771  -4.692   2.429  0.00  0.00    -0.346 N 
ATOM      7  H   UNL     1      -0.860  -4.362   2.382  0.00  0.00    +0.167 HD
ATOM      8  C   UNL     1      -5.085  -5.430   1.113  0.00  0.00    +0.076 C 
ATOM      9  C   UNL     1      -5.034  -4.523  -0.123  0.00  0.00    +0.116 C 
ATOM     10  N   UNL     1      -3.707  -4.634  -0.751  0.00  0.00    -0.273 N 
ATOM     11  C   UNL     1      -3.567  -5.145  -1.990  0.00  0.00    +0.304 C 
ATOM     12  O   UNL     1      -2.456  -5.318  -2.454  0.00  0.00    -0.253 OA
ATOM     13  N   UNL     1      -4.657  -5.465  -2.715  0.00  0.00    -0.286 N 
ATOM     14  H   UNL     1      -5.542  -5.258  -2.375  0.00  0.00    +0.151 HD
ENDROOT
BRANCH   1  17
ATOM     15  C   UNL     1      -3.452  -0.558   0.625  0.00  0.00    +0.124 A 
ATOM     16  C   UNL     1      -3.496  -1.945   0.620  0.00  0.00    +0.051 A 
ATOM     17  C   UNL     1      -2.484  -2.667   0.018  0.00  0.00    -0.014 A 
ATOM     18  C   UNL     1      -1.425  -2.010  -0.580  0.00  0.00    +0.051 A 
ATOM     19  C   UNL     1      -1.377  -0.624  -0.578  0.00  0.00    +0.124 A 
ATOM     20  C   UNL     1      -2.394   0.103   0.020  0.00  0.00    +0.091 A 
BRANCH  15  22
ATOM     21  C   UNL     1      -4.341   1.577   1.180  0.00  0.00    +0.277 C 
ATOM     22  O   UNL     1      -4.448   0.152   1.218  0.00  0.00    -0.495 OA
ENDBRANCH  15  22
BRANCH  19  23
ATOM     23  O   UNL     1      -0.336   0.022  -1.167  0.00  0.00    -0.495 OA
ATOM     24  C   UNL     1      -0.351   1.450  -1.127  0.00  0.00    +0.277 C 
ENDBRANCH  19  23
ENDBRANCH   1  17
BRANCH  13  25
ATOM     25  C   UNL     1      -4.506  -6.123  -4.014  0.00  0.00    +0.187 C 
BRANCH  25  26
ATOM     26  C   UNL     1      -4.280  -5.082  -5.081  0.00  0.00    +0.328 C 
ATOM     27  O   UNL     1      -4.248  -3.911  -4.786  0.00  0.00    -0.249 OA
BRANCH  26  28
ATOM     28  O   UNL     1      -4.114  -5.457  -6.359  0.00  0.00    -0.467 OA
ATOM     29  C   UNL     1      -3.904  -4.418  -7.318  0.00  0.00    +0.280 C 
ENDBRANCH  26  28
ENDBRANCH  25  26
BRANCH  25  30
ATOM     30  C   UNL     1      -5.775  -6.915  -4.336  0.00  0.00    +0.069 C 
BRANCH  30  31
ATOM     31  C   UNL     1      -5.935  -8.034  -3.338  0.00  0.00    -0.045 A 
ATOM     32  C   UNL     1      -5.370  -9.270  -3.591  0.00  0.00    +0.004 A 
ATOM     33  C   UNL     1      -5.517 -10.296  -2.676  0.00  0.00    +0.000 A 
ATOM     34  C   UNL     1      -6.227 -10.086  -1.509  0.00  0.00    +0.000 A 
ATOM     35  C   UNL     1      -6.791  -8.849  -1.256  0.00  0.00    +0.000 A 
ATOM     36  C   UNL     1      -6.641  -7.822  -2.169  0.00  0.00    +0.004 A 
ENDBRANCH  30  31
ENDBRANCH  25  30
ENDBRANCH  13  25
TORSDOF 8
