REMARK  Name = ZINC08444248
REMARK  12 active torsions:
REMARK  status: ('A' for Active; 'I' for Inactive)
REMARK    1  A    between atoms: C_1  and  C_2
REMARK    2  A    between atoms: C_3  and  C_25
REMARK    3  A    between atoms: C_15  and  C_19
REMARK    4  A    between atoms: C_16  and  N_18
REMARK    5  A    between atoms: C_19  and  O_21
REMARK    6  A    between atoms: O_21  and  C_22
REMARK    7  A    between atoms: C_22  and  C_23
REMARK    8  A    between atoms: C_22  and  C_24
REMARK    9  A    between atoms: C_25  and  O_27
REMARK   10  A    between atoms: O_27  and  C_28
REMARK   11  A    between atoms: C_28  and  C_29
REMARK   12  A    between atoms: C_28  and  C_30
REMARK                            x       y       z     vdW  Elec       q    Type
REMARK                         _______ _______ _______ _____ _____    ______ ____
ROOT
ATOM      1  C   UNL     1       2.748   4.464  -2.448  0.00  0.00    +0.087 C 
ATOM      2  C   UNL     1       2.464   3.709  -1.175  0.00  0.00    +0.116 C 
ATOM      3  C   UNL     1       1.643   2.650  -1.220  0.00  0.00    +0.098 C 
ATOM      4  C   UNL     1       1.328   1.867   0.021  0.00  0.00    +0.145 C 
ATOM      5  C   UNL     1       2.027   0.531  -0.004  0.00  0.00    -0.001 A 
ATOM      6  C   UNL     1       3.353   0.164  -0.045  0.00  0.00    +0.022 A 
ATOM      7  C   UNL     1       3.700  -1.177  -0.059  0.00  0.00    +0.018 A 
ATOM      8  C   UNL     1       2.710  -2.143  -0.032  0.00  0.00    +0.017 A 
ATOM      9  C   UNL     1       1.380  -1.778   0.009  0.00  0.00    +0.025 A 
ATOM     10  C   UNL     1       1.024  -0.431   0.024  0.00  0.00    +0.038 A 
ATOM     11  N   UNL     1      -0.230   0.180   0.064  0.00  0.00    -0.284 N 
ATOM     12  C   UNL     1      -0.142   1.522   0.065  0.00  0.00    +0.237 C 
ATOM     13  O   UNL     1      -1.067   2.306   0.091  0.00  0.00    -0.274 OA
ATOM     14 BR   UNL     1       5.520  -1.685  -0.114  0.00  0.00    -0.050 Br
ATOM     15  C   UNL     1       1.719   2.643   1.246  0.00  0.00    +0.117 C 
ATOM     16  C   UNL     1       2.545   3.718   1.145  0.00  0.00    +0.195 C 
ATOM     17  O   UNL     1       3.042   4.119  -0.037  0.00  0.00    -0.446 OA
ATOM     18  H   UNL     1      -1.069  -0.307   0.088  0.00  0.00    +0.155 HD
ENDROOT
BRANCH  16  19
ATOM     19  N   UNL     1       2.881   4.409   2.278  0.00  0.00    -0.329 N 
ATOM     20  H   UNL     1       2.603   4.080   3.147  0.00  0.00    +0.145 HD
ATOM     21  H   UNL     1       3.396   5.229   2.212  0.00  0.00    +0.145 HD
ENDBRANCH  16  19
BRANCH  15  22
ATOM     22  C   UNL     1       1.228   2.256   2.502  0.00  0.00    +0.342 C 
ATOM     23  O   UNL     1       1.731   1.315   3.089  0.00  0.00    -0.245 OA
BRANCH  22  24
ATOM     24  O   UNL     1       0.197   2.927   3.060  0.00  0.00    -0.458 OA
BRANCH  24  25
ATOM     25  C   UNL     1      -0.252   2.479   4.341  0.00  0.00    +0.171 C 
ATOM     26  C   UNL     1      -0.817   3.664   5.127  0.00  0.00    +0.052 C 
ATOM     27  C   UNL     1      -1.342   1.421   4.158  0.00  0.00    +0.052 C 
ENDBRANCH  24  25
ENDBRANCH  22  24
ENDBRANCH  15  22
BRANCH   3  28
ATOM     28  C   UNL     1       1.067   2.265  -2.456  0.00  0.00    +0.340 C 
ATOM     29  O   UNL     1       1.317   2.894  -3.466  0.00  0.00    -0.245 OA
BRANCH  28  30
ATOM     30  O   UNL     1       0.240   1.200  -2.511  0.00  0.00    -0.459 OA
BRANCH  30  31
ATOM     31  C   UNL     1      -0.306   0.869  -3.790  0.00  0.00    +0.171 C 
ATOM     32  C   UNL     1       0.626  -0.112  -4.504  0.00  0.00    +0.052 C 
ATOM     33  C   UNL     1      -1.681   0.223  -3.605  0.00  0.00    +0.052 C 
ENDBRANCH  30  31
ENDBRANCH  28  30
ENDBRANCH   3  28
TORSDOF 7
