REMARK  Name = ZINC12326842
REMARK  9 active torsions:
REMARK  status: ('A' for Active; 'I' for Inactive)
REMARK    1  A    between atoms: C_1  and  C_2
REMARK    2  A    between atoms: C_2  and  C_9
REMARK    3  A    between atoms: C_3  and  C_4
REMARK    4  A    between atoms: C_9  and  N_67
REMARK    5  A    between atoms: C_21  and  N_26
REMARK    6  A    between atoms: C_23  and  O_25
REMARK    7  A    between atoms: C_27  and  C_29
REMARK    8  A    between atoms: C_29  and  O_30
REMARK    9  A    between atoms: O_30  and  C_31
REMARK                            x       y       z     vdW  Elec       q    Type
REMARK                         _______ _______ _______ _____ _____    ______ ____
ROOT
ATOM      1  C   UNL     1      -4.313  -6.412  -0.478  0.00  0.00    -0.077 C 
ATOM      2  C   UNL     1      -4.562  -5.787   0.898  0.00  0.00    -0.005 C 
ATOM      3  C   UNL     1      -5.135  -4.384   0.718  0.00  0.00    +0.021 C 
ATOM      4  C   UNL     1      -6.408  -4.436  -0.123  0.00  0.00    -0.005 C 
ATOM      5  C   UNL     1      -6.099  -5.103  -1.466  0.00  0.00    -0.077 C 
ATOM      6  C   UNL     1      -5.417  -3.754   2.061  0.00  0.00    -0.034 A 
ATOM      7  C   UNL     1      -6.011  -4.277   3.197  0.00  0.00    +0.004 A 
ATOM      8  C   UNL     1      -6.165  -3.497   4.325  0.00  0.00    +0.000 A 
ATOM      9  C   UNL     1      -5.724  -2.186   4.323  0.00  0.00    +0.000 A 
ATOM     10  C   UNL     1      -5.131  -1.661   3.192  0.00  0.00    +0.006 A 
ATOM     11  C   UNL     1      -4.976  -2.442   2.059  0.00  0.00    -0.021 A 
ATOM     12  C   UNL     1      -4.369  -2.108   0.713  0.00  0.00    +0.133 C 
ATOM     13  C   UNL     1      -4.095  -3.472   0.043  0.00  0.00    +0.149 C 
ATOM     14  N   UNL     1      -5.593  -6.470  -1.216  0.00  0.00    +0.382 N 
ATOM     15  H   UNL     1      -6.281  -6.981  -0.650  0.00  0.00    -0.081 HD
ENDROOT
BRANCH  12  16
ATOM     16  N   UNL     1      -3.117  -1.368   0.889  0.00  0.00    -0.303 N 
ATOM     17  C   UNL     1      -3.141  -0.027   1.025  0.00  0.00    +0.251 C 
ATOM     18  O   UNL     1      -4.198   0.566   1.000  0.00  0.00    -0.272 OA
ATOM     19  H   UNL     1      -2.272  -1.843   0.909  0.00  0.00    +0.149 HD
BRANCH  17  20
ATOM     20  C   UNL     1      -1.853   0.735   1.206  0.00  0.00    +0.324 C 
BRANCH  20  21
ATOM     21  O   UNL     1      -2.138   2.130   1.326  0.00  0.00    -0.483 OA
BRANCH  21  22
ATOM     22  C   UNL     1      -1.078   2.963   1.497  0.00  0.00    +0.121 A 
ATOM     23  C   UNL     1       0.209   2.448   1.553  0.00  0.00    +0.045 A 
ATOM     24  C   UNL     1       1.285   3.298   1.722  0.00  0.00    +0.004 A 
ATOM     25  C   UNL     1       1.079   4.660   1.844  0.00  0.00    +0.000 A 
ATOM     26  C   UNL     1      -0.203   5.175   1.794  0.00  0.00    +0.004 A 
ATOM     27  C   UNL     1      -1.282   4.330   1.621  0.00  0.00    +0.045 A 
ENDBRANCH  21  22
ENDBRANCH  20  21
ENDBRANCH  17  20
ENDBRANCH  12  16
BRANCH  13  28
ATOM     28  O   UNL     1      -4.320  -3.401  -1.367  0.00  0.00    -0.389 OA
ATOM     29  H   UNL     1      -3.746  -2.772  -1.825  0.00  0.00    +0.210 HD
ENDBRANCH  13  28
BRANCH  14  30
ATOM     30  C   UNL     1      -5.405  -7.180  -2.498  0.00  0.00    -0.048 C 
BRANCH  30  32
ATOM     31  C   UNL     1      -7.577  -8.611  -2.714  0.00  0.00    +0.037 C 
ATOM     32  C   UNL     1      -6.755  -7.417  -3.124  0.00  0.00    -0.086 C 
ATOM     33  C   UNL     1      -7.221  -6.571  -4.038  0.00  0.00    +0.043 C 
BRANCH  33  34
ATOM     34  C   UNL     1      -8.595  -6.718  -4.543  0.00  0.00    +0.128 A 
ATOM     35  C   UNL     1      -9.156  -5.998  -5.554  0.00  0.00    +0.049 A 
ATOM     36  C   UNL     1     -10.475  -6.468  -5.703  0.00  0.00    +0.042 A 
ATOM     37  C   UNL     1     -10.656  -7.435  -4.782  0.00  0.00    +0.195 A 
ATOM     38  O   UNL     1      -9.519  -7.583  -4.083  0.00  0.00    -0.464 OA
ENDBRANCH  33  34
ENDBRANCH  30  32
ENDBRANCH  14  30
TORSDOF 8
