REMARK  Name = ZINC14014038
REMARK  8 active torsions:
REMARK  status: ('A' for Active; 'I' for Inactive)
REMARK    1  A    between atoms: C_1  and  C_2
REMARK    2  A    between atoms: C_5  and  N_9
REMARK    3  A    between atoms: C_6  and  C_8
REMARK    4  A    between atoms: C_21  and  C_23
REMARK    5  A    between atoms: C_23  and  C_24
REMARK    6  A    between atoms: N_26  and  C_27
REMARK    7  A    between atoms: C_27  and  C_29
REMARK    8  A    between atoms: C_27  and  C_30
REMARK                            x       y       z     vdW  Elec       q    Type
REMARK                         _______ _______ _______ _____ _____    ______ ____
ROOT
ATOM      1  N   UNL     1      -1.305  -1.126   0.234  0.00  0.00    -0.214 N 
ATOM      2  C   UNL     1      -2.511  -0.494   0.253  0.00  0.00    +0.171 A 
ATOM      3  C   UNL     1      -3.494  -1.496   0.283  0.00  0.00    +0.103 A 
ATOM      4  C   UNL     1      -2.818  -2.736   0.281  0.00  0.00    +0.150 A 
ATOM      5  N   UNL     1      -1.535  -2.507   0.246  0.00  0.00    -0.172 NA
ATOM      6  C   UNL     1      -4.853  -1.117   0.306  0.00  0.00    +0.266 A 
ATOM      7  O   UNL     1      -5.724  -1.968   0.332  0.00  0.00    -0.267 OA
ATOM      8  N   UNL     1      -5.192   0.213   0.300  0.00  0.00    -0.283 N 
ATOM      9  C   UNL     1      -4.171   1.119   0.271  0.00  0.00    +0.174 A 
ATOM     10  N   UNL     1      -2.900   0.785   0.249  0.00  0.00    -0.203 NA
ATOM     11  S   UNL     1      -4.919   2.735   0.270  0.00  0.00    -0.085 S 
ATOM     12  C   UNL     1      -6.683   2.246   0.311  0.00  0.00    +0.103 C 
ATOM     13  C   UNL     1      -6.565   0.716   0.323  0.00  0.00    +0.112 C 
ENDROOT
BRANCH   1  18
ATOM     14  C   UNL     1       3.775   1.399   0.105  0.00  0.00    +0.044 C 
ATOM     15  C   UNL     1       2.426   0.728   0.140  0.00  0.00    -0.050 A 
ATOM     16  C   UNL     1       1.423   1.151  -0.714  0.00  0.00    +0.005 A 
ATOM     17  C   UNL     1       0.186   0.539  -0.685  0.00  0.00    +0.028 A 
ATOM     18  C   UNL     1      -0.051  -0.502   0.203  0.00  0.00    +0.071 A 
ATOM     19  C   UNL     1       0.957  -0.924   1.059  0.00  0.00    -0.025 A 
ATOM     20  C   UNL     1       2.193  -0.308   1.025  0.00  0.00    +0.008 A 
ATOM     21  C   UNL     1       0.704  -2.053   2.024  0.00  0.00    +0.046 C 
ENDBRANCH   1  18
BRANCH  13  22
ATOM     22  C   UNL     1      -7.304   0.163  -0.897  0.00  0.00    +0.121 C 
BRANCH  22  23
ATOM     23  C   UNL     1      -8.760   0.544  -0.817  0.00  0.00    +0.215 C 
ATOM     24  O   UNL     1      -9.160   1.221   0.106  0.00  0.00    -0.276 OA
ATOM     25  N   UNL     1      -9.618   0.132  -1.771  0.00  0.00    -0.309 N 
ATOM     26  H   UNL     1      -9.299  -0.410  -2.510  0.00  0.00    +0.149 HD
BRANCH  25  27
ATOM     27  C   UNL     1     -11.033   0.502  -1.694  0.00  0.00    +0.100 C 
ATOM     28  C   UNL     1     -11.233   1.885  -2.317  0.00  0.00    +0.033 C 
BRANCH  27  29
ATOM     29  C   UNL     1     -11.860  -0.511  -2.443  0.00  0.00    -0.027 A 
ATOM     30  C   UNL     1     -11.406  -1.020  -3.646  0.00  0.00    +0.005 A 
ATOM     31  C   UNL     1     -12.162  -1.953  -4.330  0.00  0.00    +0.000 A 
ATOM     32  C   UNL     1     -13.376  -2.369  -3.818  0.00  0.00    +0.000 A 
ATOM     33  C   UNL     1     -13.833  -1.856  -2.618  0.00  0.00    +0.000 A 
ATOM     34  C   UNL     1     -13.074  -0.927  -1.931  0.00  0.00    +0.005 A 
ENDBRANCH  27  29
ENDBRANCH  25  27
ENDBRANCH  22  23
ENDBRANCH  13  22
TORSDOF 5
