REMARK  Name = ZINC00716436
REMARK  7 active torsions:
REMARK  status: ('A' for Active; 'I' for Inactive)
REMARK    1  A    between atoms: C_1  and  O_2
REMARK    2  A    between atoms: O_2  and  C_3
REMARK    3  A    between atoms: C_6  and  C_10
REMARK    4  A    between atoms: C_8  and  O_9
REMARK    5  A    between atoms: C_12  and  C_30
REMARK    6  A    between atoms: C_13  and  N_29
REMARK    7  A    between atoms: N_14  and  C_22
REMARK                            x       y       z     vdW  Elec       q    Type
REMARK                         _______ _______ _______ _____ _____    ______ ____
ROOT
ATOM      1  C   UNL     1       1.590   0.100   6.141  0.00  0.00    +0.097 C 
ATOM      2  C   UNL     1       3.041   0.448   6.302  0.00  0.00    +0.077 C 
ATOM      3  C   UNL     1       4.011  -0.482   6.109  0.00  0.00    +0.107 C 
ATOM      4  N   UNL     1       3.673  -1.773   5.768  0.00  0.00    -0.259 N 
ATOM      5  C   UNL     1       2.409  -2.245   6.004  0.00  0.00    +0.025 C 
ATOM      6  C   UNL     1       1.379  -1.392   6.189  0.00  0.00    +0.025 C 
ATOM      7  C   UNL     1       0.078  -1.868   6.432  0.00  0.00    +0.162 C 
ATOM      8  O   UNL     1      -0.824  -1.074   6.610  0.00  0.00    -0.292 OA
ATOM      9  C   UNL     1      -0.217  -3.342   6.477  0.00  0.00    +0.080 C 
ATOM     10  C   UNL     1       0.786  -4.078   5.582  0.00  0.00    +0.014 C 
ATOM     11  C   UNL     1       2.200  -3.739   6.058  0.00  0.00    +0.052 C 
ENDROOT
BRANCH   4  12
ATOM     12  C   UNL     1       4.627  -2.608   5.175  0.00  0.00    +0.058 A 
ATOM     13  C   UNL     1       4.743  -2.661   3.792  0.00  0.00    +0.025 A 
ATOM     14  C   UNL     1       5.686  -3.486   3.211  0.00  0.00    +0.002 A 
ATOM     15  C   UNL     1       6.515  -4.258   4.003  0.00  0.00    +0.002 A 
ATOM     16  C   UNL     1       6.403  -4.208   5.380  0.00  0.00    +0.022 A 
ATOM     17  C   UNL     1       5.465  -3.381   5.969  0.00  0.00    +0.063 A 
ATOM     18 CL   UNL     1       5.330  -3.314   7.699  0.00  0.00    -0.082 Cl
ENDBRANCH   4  12
BRANCH   1  22
ATOM     19  C   UNL     1       0.204   1.587   2.378  0.00  0.00    +0.161 A 
ATOM     20  C   UNL     1       1.189   0.613   2.421  0.00  0.00    +0.050 A 
ATOM     21  C   UNL     1       1.639   0.138   3.639  0.00  0.00    +0.008 A 
ATOM     22  C   UNL     1       1.100   0.625   4.816  0.00  0.00    -0.031 A 
ATOM     23  C   UNL     1       0.114   1.593   4.780  0.00  0.00    +0.053 A 
ATOM     24  C   UNL     1      -0.338   2.077   3.562  0.00  0.00    +0.159 A 
BRANCH  19  26
ATOM     25  C   UNL     1       0.366   1.510   0.007  0.00  0.00    +0.277 C 
ATOM     26  O   UNL     1      -0.235   2.059   1.181  0.00  0.00    -0.491 OA
ENDBRANCH  19  26
BRANCH  24  27
ATOM     27  O   UNL     1      -1.308   3.029   3.525  0.00  0.00    -0.503 OA
ATOM     28  H   UNL     1      -2.207   2.674   3.492  0.00  0.00    +0.292 HD
ENDBRANCH  24  27
ENDBRANCH   1  22
BRANCH   3  29
ATOM     29  N   UNL     1       5.333  -0.136   6.254  0.00  0.00    -0.345 N 
ATOM     30  H   UNL     1       5.572   0.773   6.495  0.00  0.00    +0.144 HD
ATOM     31  H   UNL     1       6.027  -0.799   6.116  0.00  0.00    +0.144 HD
ENDBRANCH   3  29
BRANCH   2  32
ATOM     32  C   UNL     1       3.408   1.783   6.665  0.00  0.00    +0.099 C 
ATOM     33  N   UNL     1       3.699   2.843   6.954  0.00  0.00    -0.191 NA
ENDBRANCH   2  32
TORSDOF 6
