REMARK  Name = ZINC40321403
REMARK  6 active torsions:
REMARK  status: ('A' for Active; 'I' for Inactive)
REMARK    1  A    between atoms: C_1  and  C_2
REMARK    2  A    between atoms: C_2  and  C_4
REMARK    3  A    between atoms: C_2  and  N_13
REMARK    4  A    between atoms: N_13  and  C_14
REMARK    5  A    between atoms: C_15  and  C_17
REMARK    6  A    between atoms: C_19  and  N_23
REMARK                            x       y       z     vdW  Elec       q    Type
REMARK                         _______ _______ _______ _____ _____    ______ ____
ROOT
ATOM      1  N   UNL     1      -1.495  -0.543   0.128  0.00  0.00    -0.290 N 
ATOM      2  C   UNL     1      -2.487  -0.175  -0.885  0.00  0.00    +0.133 C 
ATOM      3  C   UNL     1      -1.772  -1.513   1.021  0.00  0.00    +0.263 C 
ATOM      4  O   UNL     1      -0.996  -1.742   1.931  0.00  0.00    -0.268 OA
ENDROOT
BRANCH   3   5
ATOM      5  C   UNL     1      -3.008  -2.293   0.898  0.00  0.00    +0.104 A 
ATOM      6  C   UNL     1      -3.495  -3.197   1.818  0.00  0.00    +0.055 A 
ATOM      7  C   UNL     1      -4.694  -3.707   1.301  0.00  0.00    +0.043 A 
ATOM      8  C   UNL     1      -4.911  -3.115   0.097  0.00  0.00    +0.106 A 
ATOM      9  N   UNL     1      -3.893  -2.250  -0.154  0.00  0.00    -0.355 N 
ATOM     10  H   UNL     1      -3.805  -1.695  -0.945  0.00  0.00    +0.166 HD
BRANCH   7  11
ATOM     11  N   UNL     1      -5.524  -4.661   1.918  0.00  0.00    -0.357 N 
ATOM     12  H   UNL     1      -5.283  -5.027   2.783  0.00  0.00    +0.142 HD
ATOM     13  H   UNL     1      -6.338  -4.953   1.478  0.00  0.00    +0.142 HD
ENDBRANCH   7  11
ENDBRANCH   3   5
BRANCH   1  15
ATOM     14  C   UNL     1      -0.424   1.639   0.397  0.00  0.00    +0.036 C 
ATOM     15  C   UNL     1      -0.201   0.143   0.169  0.00  0.00    +0.139 C 
BRANCH  15  16
ATOM     16  C   UNL     1       0.519  -0.064  -1.139  0.00  0.00    +0.126 A 
ATOM     17  C   UNL     1       1.832  -0.300  -1.263  0.00  0.00    +0.055 A 
ATOM     18  C   UNL     1       2.090  -0.435  -2.702  0.00  0.00    +0.020 A 
ATOM     19  C   UNL     1       3.227  -0.680  -3.470  0.00  0.00    +0.011 A 
ATOM     20  C   UNL     1       3.124  -0.748  -4.832  0.00  0.00    +0.001 A 
ATOM     21  C   UNL     1       1.895  -0.573  -5.452  0.00  0.00    +0.004 A 
ATOM     22  C   UNL     1       0.760  -0.330  -4.710  0.00  0.00    +0.047 A 
ATOM     23  C   UNL     1       0.843  -0.258  -3.324  0.00  0.00    +0.135 A 
ATOM     24  O   UNL     1      -0.064  -0.044  -2.350  0.00  0.00    -0.458 OA
ENDBRANCH  15  16
ENDBRANCH   1  15
TORSDOF 4
