REMARK  Name = ZINC08883327
REMARK  6 active torsions:
REMARK  status: ('A' for Active; 'I' for Inactive)
REMARK    1  A    between atoms: C_4  and  C_7
REMARK    2  A    between atoms: C_7  and  C_29
REMARK    3  A    between atoms: N_10  and  C_14
REMARK    4  A    between atoms: C_14  and  C_15
REMARK    5  A    between atoms: C_21  and  C_22
REMARK    6  A    between atoms: C_21  and  N_60
REMARK                            x       y       z     vdW  Elec       q    Type
REMARK                         _______ _______ _______ _____ _____    ______ ____
ROOT
ATOM      1  C   UNL     1       1.053   0.247  -0.891  0.00  0.00    +0.164 C 
ATOM      2  C   UNL     1       1.068  -0.450   0.455  0.00  0.00    +0.256 C 
ATOM      3  O   UNL     1       0.190  -0.449   1.290  0.00  0.00    -0.272 OA
ATOM      4  N   UNL     1       2.266  -1.071   0.527  0.00  0.00    -0.221 N 
ATOM      5  C   UNL     1       2.996  -0.865  -0.576  0.00  0.00    +0.310 C 
ATOM      6  O   UNL     1       4.109  -1.324  -0.744  0.00  0.00    -0.252 OA
ATOM      7  N   UNL     1       2.361  -0.094  -1.476  0.00  0.00    -0.278 N 
ATOM      8  H   UNL     1       2.699   0.183  -2.342  0.00  0.00    +0.152 HD
ENDROOT
BRANCH   1  12
ATOM      9  C   UNL     1       0.687   4.473  -0.391  0.00  0.00    +0.000 A 
ATOM     10  C   UNL     1       1.939   3.895  -0.486  0.00  0.00    +0.000 A 
ATOM     11  C   UNL     1       2.057   2.527  -0.648  0.00  0.00    +0.006 A 
ATOM     12  C   UNL     1       0.924   1.738  -0.714  0.00  0.00    -0.011 A 
ATOM     13  C   UNL     1      -0.328   2.317  -0.625  0.00  0.00    +0.006 A 
ATOM     14  C   UNL     1      -0.446   3.685  -0.458  0.00  0.00    +0.000 A 
ENDBRANCH   1  12
BRANCH   1  15
ATOM     15  C   UNL     1      -0.067  -0.282  -1.750  0.00  0.00    -0.011 A 
ATOM     16  C   UNL     1      -1.303  -0.543  -1.190  0.00  0.00    +0.006 A 
ATOM     17  C   UNL     1      -2.331  -1.024  -1.979  0.00  0.00    +0.000 A 
ATOM     18  C   UNL     1      -2.120  -1.254  -3.325  0.00  0.00    +0.000 A 
ATOM     19  C   UNL     1      -0.882  -0.999  -3.884  0.00  0.00    +0.000 A 
ATOM     20  C   UNL     1       0.145  -0.513  -3.096  0.00  0.00    +0.006 A 
ENDBRANCH   1  15
BRANCH   4  21
ATOM     21  C   UNL     1       2.710  -1.871   1.670  0.00  0.00    +0.147 C 
BRANCH  21  22
ATOM     22  C   UNL     1       3.441  -0.972   2.669  0.00  0.00    +0.120 C 
ATOM     23  C   UNL     1       4.013  -1.827   3.803  0.00  0.00    -0.045 C 
ATOM     24  C   UNL     1       3.677   0.015   5.336  0.00  0.00    -0.050 C 
ATOM     25  C   UNL     1       3.108   0.852   4.186  0.00  0.00    +0.142 C 
ATOM     26  O   UNL     1       2.524  -0.019   3.214  0.00  0.00    -0.379 OA
ATOM     27  N   UNL     1       4.666  -0.935   4.786  0.00  0.00    +0.386 N 
ATOM     28  H   UNL     1       5.410  -0.408   4.316  0.00  0.00    -0.081 HD
BRANCH  27  29
ATOM     29  C   UNL     1       5.260  -1.736   5.878  0.00  0.00    -0.041 C 
BRANCH  29  30
ATOM     30  C   UNL     1       5.827  -0.805   6.918  0.00  0.00    -0.046 A 
ATOM     31  C   UNL     1       5.200  -0.672   8.143  0.00  0.00    +0.003 A 
ATOM     32  C   UNL     1       5.722   0.179   9.099  0.00  0.00    +0.000 A 
ATOM     33  C   UNL     1       6.867   0.905   8.827  0.00  0.00    +0.001 A 
ATOM     34  C   UNL     1       7.492   0.777   7.601  0.00  0.00    +0.020 A 
ATOM     35  C   UNL     1       6.972  -0.078   6.646  0.00  0.00    +0.042 A 
ATOM     36 CL   UNL     1       7.757  -0.240   5.106  0.00  0.00    -0.083 Cl
ENDBRANCH  29  30
ENDBRANCH  27  29
ENDBRANCH  21  22
ENDBRANCH   4  21
TORSDOF 6
