REMARK  Name = ZINC18199143
REMARK  9 active torsions:
REMARK  status: ('A' for Active; 'I' for Inactive)
REMARK    1  A    between atoms: C_1  and  C_2
REMARK    2  A    between atoms: C_2  and  C_4
REMARK    3  A    between atoms: C_2  and  C_14
REMARK    4  A    between atoms: C_4  and  C_5
REMARK    5  A    between atoms: C_19  and  C_24
REMARK    6  A    between atoms: C_27  and  O_32
REMARK    7  A    between atoms: C_28  and  O_30
REMARK    8  A    between atoms: O_30  and  C_31
REMARK    9  A    between atoms: O_32  and  C_33
REMARK                            x       y       z     vdW  Elec       q    Type
REMARK                         _______ _______ _______ _____ _____    ______ ____
ROOT
ATOM      1  C   UNL     1       7.740   3.577  -0.207  0.00  0.00    +0.149 C 
ATOM      2  C   UNL     1       6.436   2.814  -0.280  0.00  0.00    +0.037 C 
ATOM      3  C   UNL     1       5.807   2.359   0.826  0.00  0.00    +0.020 C 
ATOM      4  C   UNL     1       4.505   1.601   0.722  0.00  0.00    +0.060 C 
ATOM      5  C   UNL     1       3.721   2.088  -0.497  0.00  0.00    +0.032 C 
ATOM      6  C   UNL     1       4.586   1.877  -1.744  0.00  0.00    +0.088 C 
ATOM      7  C   UNL     1       5.893   2.597  -1.559  0.00  0.00    +0.163 C 
ATOM      8  O   UNL     1       6.493   2.999  -2.536  0.00  0.00    -0.292 OA
ATOM      9  N   UNL     1       6.322   2.559   2.084  0.00  0.00    -0.287 N 
ATOM     10  C   UNL     1       7.642   2.963   2.191  0.00  0.00    +0.220 A 
ATOM     11  N   UNL     1       8.325   3.439   1.121  0.00  0.00    -0.223 N 
ATOM     12  N   UNL     1       9.610   3.742   1.570  0.00  0.00    -0.132 NA
ATOM     13  C   UNL     1       9.641   3.449   2.852  0.00  0.00    +0.233 A 
ATOM     14  N   UNL     1       8.442   2.978   3.223  0.00  0.00    -0.180 NA
ATOM     15  N   UNL     1      10.745   3.604   3.691  0.00  0.00    -0.326 N 
ATOM     16  H   UNL     1       5.776   2.421   2.874  0.00  0.00    +0.155 HD
ATOM     17  H   UNL     1      10.680   3.362   4.628  0.00  0.00    +0.145 HD
ATOM     18  H   UNL     1      11.578   3.954   3.338  0.00  0.00    +0.145 HD
ENDROOT
BRANCH   5  19
ATOM     19  C   UNL     1       2.442   1.301  -0.627  0.00  0.00    -0.040 A 
ATOM     20  C   UNL     1       2.490  -0.072  -0.779  0.00  0.00    +0.008 A 
ATOM     21  C   UNL     1       1.321  -0.799  -0.899  0.00  0.00    +0.049 A 
ATOM     22  C   UNL     1       0.096  -0.151  -0.867  0.00  0.00    +0.161 A 
ATOM     23  C   UNL     1       0.048   1.231  -0.713  0.00  0.00    +0.162 A 
ATOM     24  C   UNL     1       1.224   1.954  -0.593  0.00  0.00    +0.053 A 
BRANCH  23  25
ATOM     25  O   UNL     1      -1.152   1.872  -0.686  0.00  0.00    -0.491 OA
ATOM     26  C   UNL     1      -1.125   3.292  -0.525  0.00  0.00    +0.277 C 
ENDBRANCH  23  25
BRANCH  22  27
ATOM     27  O   UNL     1      -1.056  -0.864  -0.985  0.00  0.00    -0.491 OA
ATOM     28  C   UNL     1      -0.929  -2.279  -1.140  0.00  0.00    +0.277 C 
ENDBRANCH  22  27
ENDBRANCH   5  19
BRANCH   1  30
ATOM     29  C   UNL     1       6.615   5.649   0.618  0.00  0.00    +0.010 C 
ATOM     30  C   UNL     1       7.480   5.056  -0.496  0.00  0.00    +0.019 C 
BRANCH  30  31
ATOM     31  C   UNL     1       8.812   5.805  -0.562  0.00  0.00    +0.041 C 
BRANCH  31  32
ATOM     32  C   UNL     1       8.567   7.229  -0.990  0.00  0.00    -0.043 A 
ATOM     33  C   UNL     1       8.586   7.559  -2.332  0.00  0.00    +0.007 A 
ATOM     34  C   UNL     1       8.358   8.863  -2.730  0.00  0.00    +0.050 A 
ATOM     35  C   UNL     1       8.119   9.845  -1.782  0.00  0.00    +0.166 A 
ATOM     36  C   UNL     1       8.105   9.514  -0.429  0.00  0.00    +0.166 A 
ATOM     37  C   UNL     1       8.330   8.204  -0.038  0.00  0.00    +0.053 A 
ATOM     38  O   UNL     1       7.852  10.644   0.294  0.00  0.00    -0.453 OA
ATOM     39  C   UNL     1       7.307  11.588  -0.647  0.00  0.00    +0.466 C 
ATOM     40  O   UNL     1       7.874  11.183  -1.906  0.00  0.00    -0.453 OA
ENDBRANCH  31  32
ENDBRANCH  30  31
ENDBRANCH   1  30
TORSDOF 6
