REMARK  Name = ZINC05125108
REMARK  10 active torsions:
REMARK  status: ('A' for Active; 'I' for Inactive)
REMARK    1  A    between atoms: C_1  and  C_2
REMARK    2  A    between atoms: C_2  and  C_3
REMARK    3  A    between atoms: C_3  and  C_4
REMARK    4  A    between atoms: C_4  and  C_6
REMARK    5  A    between atoms: C_4  and  C_7
REMARK    6  A    between atoms: C_7  and  O_8
REMARK    7  A    between atoms: O_8  and  C_9
REMARK    8  A    between atoms: C_9  and  C_11
REMARK    9  A    between atoms: C_12  and  C_26
REMARK   10  A    between atoms: C_17  and  C_19
REMARK                            x       y       z     vdW  Elec       q    Type
REMARK                         _______ _______ _______ _____ _____    ______ ____
ROOT
ATOM      1  C   UNL     1      -0.479   1.994   6.261  0.00  0.00    +0.078 C 
ATOM      2  C   UNL     1       0.023   1.946   7.514  0.00  0.00    +0.021 C 
ATOM      3  N   UNL     1      -0.659   2.484   8.568  0.00  0.00    -0.273 N 
ATOM      4  C   UNL     1      -1.854   3.077   8.454  0.00  0.00    +0.304 C 
ATOM      5  O   UNL     1      -2.387   3.522   9.452  0.00  0.00    -0.252 OA
ATOM      6  N   UNL     1      -2.485   3.197   7.269  0.00  0.00    -0.288 N 
ATOM      7  C   UNL     1      -1.829   2.654   6.067  0.00  0.00    +0.143 C 
ATOM      8  C   UNL     1       1.361   1.294   7.752  0.00  0.00    +0.061 C 
ATOM      9  H   UNL     1      -0.257   2.430   9.449  0.00  0.00    +0.156 HD
ATOM     10  H   UNL     1      -3.350   3.631   7.209  0.00  0.00    +0.151 HD
ENDROOT
BRANCH   7  11
ATOM     11  C   UNL     1      -2.758   1.639   5.451  0.00  0.00    -0.022 A 
ATOM     12  C   UNL     1      -3.339   0.665   6.241  0.00  0.00    +0.007 A 
ATOM     13  C   UNL     1      -4.195  -0.262   5.677  0.00  0.00    +0.015 A 
ATOM     14  C   UNL     1      -4.460  -0.222   4.320  0.00  0.00    +0.018 A 
ATOM     15  C   UNL     1      -3.874   0.749   3.529  0.00  0.00    +0.015 A 
ATOM     16  C   UNL     1      -3.023   1.680   4.095  0.00  0.00    +0.007 A 
ATOM     17 BR   UNL     1      -5.625  -1.495   3.546  0.00  0.00    -0.050 Br
ENDBRANCH   7  11
BRANCH   1  18
ATOM     18  C   UNL     1       0.229   1.443   5.168  0.00  0.00    +0.339 C 
ATOM     19  O   UNL     1       0.840   2.172   4.409  0.00  0.00    -0.245 OA
BRANCH  18  20
ATOM     20  O   UNL     1       0.227   0.109   4.966  0.00  0.00    -0.461 OA
BRANCH  20  21
ATOM     21  C   UNL     1       0.877  -0.370   3.788  0.00  0.00    +0.235 C 
BRANCH  21  22
ATOM     22  C   UNL     1       0.671  -1.882   3.670  0.00  0.00    +0.024 C 
ATOM     23  C   UNL     1       1.352  -2.583   4.846  0.00  0.00    +0.011 C 
BRANCH  22  24
ATOM     24  C   UNL     1       1.280  -2.379   2.357  0.00  0.00    +0.006 C 
BRANCH  24  26
ATOM     25  C   UNL     1       1.575  -4.363   0.868  0.00  0.00    +0.004 C 
ATOM     26  C   UNL     1       0.966  -3.866   2.180  0.00  0.00    -0.003 C 
ENDBRANCH  24  26
ENDBRANCH  22  24
ENDBRANCH  21  22
ENDBRANCH  20  21
ENDBRANCH  18  20
ENDBRANCH   1  18
TORSDOF 7
