REMARK  Name = ZINC39469610
REMARK  5 active torsions:
REMARK  status: ('A' for Active; 'I' for Inactive)
REMARK    1  A    between atoms: C_4  and  C_7
REMARK    2  A    between atoms: C_7  and  C_8
REMARK    3  A    between atoms: P_17  and  S_27
REMARK    4  A    between atoms: S_27  and  O_30
REMARK    5  A    between atoms: O_30  and  C_31
REMARK                            x       y       z     vdW  Elec       q    Type
REMARK                         _______ _______ _______ _____ _____    ______ ____
ROOT
ATOM      1  C   UNL     1       4.164  -0.959   1.377  0.00  0.00    -0.029 C 
ATOM      2  C   UNL     1       3.894  -2.119   1.972  0.00  0.00    -0.018 C 
ATOM      3  C   UNL     1       4.345  -2.348   3.389  0.00  0.00    +0.016 C 
ATOM      4  C   UNL     1       3.494  -3.423   4.054  0.00  0.00    -0.003 C 
ATOM      5  C   UNL     1       2.039  -2.958   4.188  0.00  0.00    -0.020 C 
ATOM      6  C   UNL     1       1.269  -4.085   4.889  0.00  0.00    +0.158 C 
ATOM      7  O   UNL     1      -0.119  -3.724   5.000  0.00  0.00    -0.301 OA
ATOM      8  P   UNL     1      -0.471  -2.262   5.622  0.00  0.00    +0.431 P 
ATOM      9  O   UNL     1      -0.396  -2.301   7.100  0.00  0.00    -0.246 OA
ATOM     10  N   UNL     1       0.681  -1.246   5.017  0.00  0.00    -0.271 NA
ATOM     11  N   UNL     1       1.977  -1.712   4.955  0.00  0.00    +0.398 N 
ATOM     12  C   UNL     1       2.752  -0.657   4.282  0.00  0.00    -0.046 C 
ATOM     13  C   UNL     1       4.211  -1.046   4.184  0.00  0.00    +0.006 C 
ATOM     14  C   UNL     1       4.939   0.051   3.444  0.00  0.00    -0.005 C 
ATOM     15  C   UNL     1       4.916   0.074   2.112  0.00  0.00    +0.040 C 
ATOM     16 CL   UNL     1       5.762   1.317   1.244  0.00  0.00    -0.084 Cl
ATOM     17  H   UNL     1       0.453  -0.352   4.717  0.00  0.00    +0.113 HD
ATOM     18  H   UNL     1       2.330  -1.868   5.887  0.00  0.00    -0.055 HD
ENDROOT
BRANCH   8  19
ATOM     19  S   UNL     1      -2.402  -1.644   5.002  0.00  0.00    +0.209 S 
ATOM     20  O   UNL     1      -2.686  -0.438   5.698  0.00  0.00    -0.126 OA
ATOM     21  O   UNL     1      -2.418  -1.726   3.583  0.00  0.00    -0.126 OA
BRANCH  19  22
ATOM     22  O   UNL     1      -3.391  -2.683   5.509  0.00  0.00    -0.339 OA
BRANCH  22  23
ATOM     23  C   UNL     1      -3.638  -2.606   6.843  0.00  0.00    +0.157 A 
ATOM     24  C   UNL     1      -2.854  -3.322   7.737  0.00  0.00    +0.048 A 
ATOM     25  C   UNL     1      -3.107  -3.242   9.093  0.00  0.00    +0.004 A 
ATOM     26  C   UNL     1      -4.139  -2.450   9.559  0.00  0.00    +0.000 A 
ATOM     27  C   UNL     1      -4.922  -1.736   8.671  0.00  0.00    +0.004 A 
ATOM     28  C   UNL     1      -4.670  -1.808   7.314  0.00  0.00    +0.048 A 
ENDBRANCH  22  23
ENDBRANCH  19  22
ENDBRANCH   8  19
BRANCH   1  29
ATOM     29  C   UNL     1       3.711  -0.707  -0.038  0.00  0.00    +0.071 C 
BRANCH  29  33
ATOM     30  C   UNL     1      -0.017   1.378   0.010  0.00  0.00    +0.000 A 
ATOM     31  C   UNL     1       1.171   2.086   0.002  0.00  0.00    +0.000 A 
ATOM     32  C   UNL     1       2.377   1.411  -0.013  0.00  0.00    +0.004 A 
ATOM     33  C   UNL     1       2.396   0.029  -0.020  0.00  0.00    -0.043 A 
ATOM     34  C   UNL     1       1.208  -0.679  -0.012  0.00  0.00    +0.004 A 
ATOM     35  C   UNL     1       0.002  -0.004   0.002  0.00  0.00    +0.000 A 
ENDBRANCH  29  33
ENDBRANCH   1  29
TORSDOF 5
