REMARK  Name = ZINC14476000
REMARK  6 active torsions:
REMARK  status: ('A' for Active; 'I' for Inactive)
REMARK    1  A    between atoms: C_1  and  N_2
REMARK    2  A    between atoms: N_2  and  C_3
REMARK    3  A    between atoms: C_9  and  C_11
REMARK    4  A    between atoms: C_18  and  C_27
REMARK    5  A    between atoms: C_29  and  N_34
REMARK    6  A    between atoms: C_32  and  O_33
REMARK                            x       y       z     vdW  Elec       q    Type
REMARK                         _______ _______ _______ _____ _____    ______ ____
ROOT
ATOM      1  C   UNL     1       0.669   5.539   0.723  0.00  0.00    +0.058 A 
ATOM      2  C   UNL     1       1.553   6.251  -0.088  0.00  0.00    +0.015 A 
ATOM      3  C   UNL     1       1.569   6.018  -1.446  0.00  0.00    +0.001 A 
ATOM      4  C   UNL     1       0.717   5.081  -2.002  0.00  0.00    +0.006 A 
ATOM      5  C   UNL     1      -0.168   4.362  -1.212  0.00  0.00    -0.019 A 
ATOM      6  C   UNL     1      -0.199   4.587   0.154  0.00  0.00    +0.044 A 
ATOM      7  N   UNL     1      -1.061   3.905   0.998  0.00  0.00    -0.336 N 
ATOM      8  C   UNL     1      -1.435   2.594   0.466  0.00  0.00    +0.108 C 
ATOM      9  C   UNL     1      -2.092   2.769  -0.905  0.00  0.00    +0.029 C 
ATOM     10  C   UNL     1      -1.054   3.356  -1.886  0.00  0.00    +0.049 C 
ATOM     11  C   UNL     1      -0.251   2.156  -2.335  0.00  0.00    -0.023 C 
ATOM     12  C   UNL     1      -0.925   1.052  -2.134  0.00  0.00    -0.030 C 
ATOM     13  C   UNL     1      -2.280   1.358  -1.528  0.00  0.00    +0.033 C 
ATOM     14  H   UNL     1      -1.462   4.241   1.966  0.00  0.00    +0.147 HD
ENDROOT
BRANCH   8  15
ATOM     15  C   UNL     1      -0.202   1.739   0.326  0.00  0.00    +0.017 A 
ATOM     16  C   UNL     1       1.011   2.320   0.011  0.00  0.00    +0.041 A 
ATOM     17  C   UNL     1       2.142   1.536  -0.122  0.00  0.00    +0.127 A 
ATOM     18  C   UNL     1       2.061   0.167   0.058  0.00  0.00    +0.036 A 
ATOM     19  C   UNL     1       0.851  -0.419   0.374  0.00  0.00    +0.048 A 
ATOM     20  C   UNL     1      -0.285   0.366   0.509  0.00  0.00    +0.122 A 
BRANCH  17  21
ATOM     21  N   UNL     1       3.440   2.161  -0.460  0.00  0.00    +0.056 N 
ATOM     22  O   UNL     1       4.436   1.471  -0.579  0.00  0.00    -0.126 OA
ATOM     23  O   UNL     1       3.511   3.367  -0.620  0.00  0.00    -0.126 OA
ENDBRANCH  17  21
BRANCH  20  24
ATOM     24  O   UNL     1      -1.477  -0.208   0.819  0.00  0.00    -0.506 OA
ATOM     25  H   UNL     1      -1.542  -1.297   0.963  0.00  0.00    +0.292 HD
ENDBRANCH  20  24
ENDBRANCH   8  15
BRANCH   1  28
ATOM     26  C   UNL     1       3.031   5.301   2.245  0.00  0.00    +0.132 C 
ATOM     27  N   UNL     1       1.785   5.722   2.890  0.00  0.00    -0.297 N 
ATOM     28  C   UNL     1       0.644   5.783   2.177  0.00  0.00    +0.248 C 
ATOM     29  O   UNL     1      -0.407   6.040   2.732  0.00  0.00    -0.270 OA
BRANCH  27  30
ATOM     30  C   UNL     1       1.781   6.078   4.312  0.00  0.00    +0.076 C 
ATOM     31  C   UNL     1       2.734   7.251   4.547  0.00  0.00    +0.022 C 
ATOM     32  C   UNL     1       2.730   7.622   6.031  0.00  0.00    +0.002 C 
ATOM     33  C   UNL     1       3.186   6.420   6.859  0.00  0.00    +0.000 C 
ATOM     34  C   UNL     1       2.232   5.247   6.624  0.00  0.00    +0.002 C 
ATOM     35  C   UNL     1       2.237   4.875   5.140  0.00  0.00    +0.022 C 
ENDBRANCH  27  30
ENDBRANCH   1  28
TORSDOF 5
