REMARK  Name = ZINC35347525
REMARK  8 active torsions:
REMARK  status: ('A' for Active; 'I' for Inactive)
REMARK    1  A    between atoms: C_1  and  C_2
REMARK    2  A    between atoms: C_5  and  C_8
REMARK    3  A    between atoms: C_8  and  C_10
REMARK    4  A    between atoms: C_12  and  C_24
REMARK    5  A    between atoms: C_18  and  C_19
REMARK    6  A    between atoms: C_18  and  O_23
REMARK    7  A    between atoms: C_27  and  C_29
REMARK    8  A    between atoms: C_33  and  N_35
REMARK                            x       y       z     vdW  Elec       q    Type
REMARK                         _______ _______ _______ _____ _____    ______ ____
ROOT
ATOM      1  C   UNL     1       0.356  -5.611   0.957  0.00  0.00    +0.147 C 
ATOM      2  C   UNL     1      -0.722  -4.997   1.858  0.00  0.00    +0.156 C 
ATOM      3  N   UNL     1      -2.036  -5.212   1.250  0.00  0.00    -0.289 N 
ATOM      4  C   UNL     1      -2.276  -6.273   0.465  0.00  0.00    +0.302 C 
ATOM      5  O   UNL     1      -3.389  -6.410  -0.007  0.00  0.00    -0.253 OA
ATOM      6  N   UNL     1      -1.339  -7.189   0.180  0.00  0.00    -0.264 N 
ATOM      7  C   UNL     1       0.020  -7.089   0.726  0.00  0.00    +0.243 C 
ATOM      8  H   UNL     1      -2.747  -4.574   1.418  0.00  0.00    +0.151 HD
ATOM      9  H   UNL     1      -1.562  -7.934  -0.400  0.00  0.00    +0.153 HD
ENDROOT
BRANCH   2  10
ATOM     10  C   UNL     1      -0.679  -5.654   3.213  0.00  0.00    +0.127 A 
ATOM     11  C   UNL     1      -1.747  -6.090   3.909  0.00  0.00    +0.047 A 
ATOM     12  C   UNL     1      -1.261  -6.633   5.115  0.00  0.00    +0.050 A 
ATOM     13  C   UNL     1       0.092  -6.498   5.088  0.00  0.00    +0.135 A 
ATOM     14  O   UNL     1       0.431  -5.908   3.926  0.00  0.00    -0.458 OA
BRANCH  13  15
ATOM     15  C   UNL     1       1.028  -6.929   6.147  0.00  0.00    +0.019 A 
ATOM     16  C   UNL     1       0.543  -7.542   7.304  0.00  0.00    +0.012 A 
ATOM     17  C   UNL     1       1.422  -7.942   8.289  0.00  0.00    +0.003 A 
ATOM     18  C   UNL     1       2.781  -7.736   8.133  0.00  0.00    +0.033 A 
ATOM     19  C   UNL     1       3.268  -7.130   6.989  0.00  0.00    +0.127 A 
ATOM     20  C   UNL     1       2.401  -6.730   5.993  0.00  0.00    +0.044 A 
BRANCH  19  21
ATOM     21  N   UNL     1       4.724  -6.913   6.830  0.00  0.00    +0.056 N 
ATOM     22  O   UNL     1       5.486  -7.266   7.700  0.00  0.00    -0.126 OA
ATOM     23  O   UNL     1       5.151  -6.383   5.831  0.00  0.00    -0.126 OA
ENDBRANCH  19  21
ENDBRANCH  13  15
ENDBRANCH   2  10
BRANCH   7  24
ATOM     24  C   UNL     1       0.093  -7.843   2.055  0.00  0.00    +0.436 C 
ATOM     25  F   UNL     1      -1.109  -7.677   2.752  0.00  0.00    -0.166 F 
ATOM     26  F   UNL     1       0.305  -9.204   1.808  0.00  0.00    -0.166 F 
ATOM     27  F   UNL     1       1.150  -7.338   2.821  0.00  0.00    -0.166 F 
ENDBRANCH   7  24
BRANCH   1  28
ATOM     28  C   UNL     1       0.384  -4.886  -0.364  0.00  0.00    +0.173 C 
ATOM     29  O   UNL     1      -0.316  -5.265  -1.278  0.00  0.00    -0.292 OA
BRANCH  28  34
ATOM     30  C   UNL     1       3.811  -0.324  -1.066  0.00  0.00    +0.044 C 
ATOM     31  C   UNL     1       2.913  -1.520  -0.882  0.00  0.00    -0.050 A 
ATOM     32  C   UNL     1       2.116  -1.950  -1.929  0.00  0.00    +0.004 A 
ATOM     33  C   UNL     1       1.291  -3.044  -1.768  0.00  0.00    +0.011 A 
ATOM     34  C   UNL     1       1.262  -3.719  -0.544  0.00  0.00    +0.018 A 
ATOM     35  C   UNL     1       2.070  -3.279   0.509  0.00  0.00    +0.011 A 
ATOM     36  C   UNL     1       2.894  -2.187   0.331  0.00  0.00    +0.004 A 
ENDBRANCH  28  34
ENDBRANCH   1  28
BRANCH   7  37
ATOM     37  O   UNL     1       0.955  -7.652  -0.196  0.00  0.00    -0.364 OA
ATOM     38  H   UNL     1       0.802  -8.587  -0.389  0.00  0.00    +0.212 HD
ENDBRANCH   7  37
TORSDOF 7
