REMARK  Name = ZINC32912532
REMARK  3 active torsions:
REMARK  status: ('A' for Active; 'I' for Inactive)
REMARK    1  A    between atoms: C_4  and  O_23
REMARK    2  A    between atoms: C_5  and  N_7
REMARK    3  A    between atoms: C_11  and  C_13
REMARK                            x       y       z     vdW  Elec       q    Type
REMARK                         _______ _______ _______ _____ _____    ______ ____
ROOT
ATOM      1  N   UNL     1      -4.981   1.364  -3.490  0.00  0.00    -0.266 N 
ATOM      2  C   UNL     1      -4.149   0.926  -2.524  0.00  0.00    +0.310 C 
ATOM      3  O   UNL     1      -4.464  -0.026  -1.837  0.00  0.00    -0.252 OA
ATOM      4  N   UNL     1      -2.968   1.543  -2.320  0.00  0.00    -0.240 N 
ATOM      5  C   UNL     1      -2.137   1.105  -1.355  0.00  0.00    +0.224 C 
ATOM      6  O   UNL     1      -2.450   0.156  -0.669  0.00  0.00    -0.275 OA
ATOM      7  H   UNL     1      -4.730   2.269  -4.063  0.00  0.00    +0.156 HD
ATOM      8  H   UNL     1      -2.683   2.404  -2.942  0.00  0.00    +0.159 HD
ENDROOT
BRANCH   5   9
ATOM      9  C   UNL     1      -0.817   1.795  -1.127  0.00  0.00    +0.083 C 
ATOM     10  C   UNL     1      -1.020   3.279  -0.595  0.00  0.00    +0.021 C 
ATOM     11  C   UNL     1      -0.327   3.247   0.804  0.00  0.00    +0.013 C 
ATOM     12  C   UNL     1      -0.690   1.797   1.292  0.00  0.00    +0.016 C 
ATOM     13  C   UNL     1      -0.033   1.111   0.039  0.00  0.00    +0.024 C 
ATOM     14  C   UNL     1       1.328   1.818   0.038  0.00  0.00    -0.027 C 
ATOM     15  C   UNL     1       1.159   3.048   0.479  0.00  0.00    -0.027 C 
ENDBRANCH   5   9
BRANCH   1  20
ATOM     16  C   UNL     1      -8.031  -0.636  -3.010  0.00  0.00    +0.002 A 
ATOM     17  C   UNL     1      -8.505  -0.714  -4.306  0.00  0.00    +0.004 A 
ATOM     18  C   UNL     1      -7.813  -0.104  -5.336  0.00  0.00    +0.047 A 
ATOM     19  C   UNL     1      -6.642   0.587  -5.071  0.00  0.00    +0.138 A 
ATOM     20  C   UNL     1      -6.165   0.666  -3.764  0.00  0.00    +0.077 A 
ATOM     21  C   UNL     1      -6.862   0.048  -2.737  0.00  0.00    +0.027 A 
BRANCH  19  22
ATOM     22  O   UNL     1      -5.960   1.188  -6.083  0.00  0.00    -0.505 OA
ATOM     23  H   UNL     1      -5.031   1.736  -5.870  0.00  0.00    +0.292 HD
ENDBRANCH  19  22
ENDBRANCH   1  20
TORSDOF 3
