REMARK  Name = ZINC35855438
REMARK  4 active torsions:
REMARK  status: ('A' for Active; 'I' for Inactive)
REMARK    1  A    between atoms: C_1  and  C_2
REMARK    2  A    between atoms: C_2  and  C_3
REMARK    3  A    between atoms: N_22  and  C_25
REMARK    4  A    between atoms: C_30  and  C_31
REMARK                            x       y       z     vdW  Elec       q    Type
REMARK                         _______ _______ _______ _____ _____    ______ ____
ROOT
ATOM      1  C   UNL     1      -1.647  -1.240   0.581  0.00  0.00    -0.047 A 
ATOM      2  C   UNL     1      -2.280  -1.682   1.729  0.00  0.00    +0.005 A 
ATOM      3  C   UNL     1      -3.548  -2.221   1.662  0.00  0.00    +0.024 A 
ATOM      4  C   UNL     1      -4.202  -2.324   0.437  0.00  0.00    +0.036 A 
ATOM      5  C   UNL     1      -3.556  -1.875  -0.712  0.00  0.00    -0.027 A 
ATOM      6  C   UNL     1      -2.292  -1.333  -0.639  0.00  0.00    +0.008 A 
ATOM      7  C   UNL     1      -4.511  -2.123  -1.845  0.00  0.00    +0.053 C 
ATOM      8  C   UNL     1      -3.905  -3.058  -2.897  0.00  0.00    +0.089 C 
ATOM      9  C   UNL     1      -3.408  -2.113  -4.025  0.00  0.00    +0.074 C 
ATOM     10  C   UNL     1      -3.747  -0.692  -3.540  0.00  0.00    -0.054 C 
ATOM     11  N   UNL     1      -4.856  -0.875  -2.546  0.00  0.00    +0.395 N 
ATOM     12  C   UNL     1      -6.075  -1.094  -3.360  0.00  0.00    -0.076 C 
ATOM     13  C   UNL     1      -5.922  -0.159  -4.577  0.00  0.00    -0.020 C 
ATOM     14  C   UNL     1      -4.370   0.106  -4.701  0.00  0.00    -0.016 C 
ATOM     15  C   UNL     1      -4.285  -2.480  -5.200  0.00  0.00    +0.228 C 
ATOM     16  O   UNL     1      -4.232  -1.973  -6.300  0.00  0.00    -0.275 OA
ATOM     17  N   UNL     1      -5.130  -3.453  -4.837  0.00  0.00    -0.209 N 
ATOM     18  C   UNL     1      -5.001  -3.865  -3.556  0.00  0.00    +0.229 C 
ATOM     19  O   UNL     1      -5.652  -4.734  -3.016  0.00  0.00    -0.275 OA
ATOM     20  C   UNL     1      -5.725  -2.741  -1.203  0.00  0.00    +0.212 C 
ATOM     21  O   UNL     1      -6.739  -3.097  -1.764  0.00  0.00    -0.277 OA
ATOM     22  N   UNL     1      -5.466  -2.823   0.116  0.00  0.00    -0.286 N 
ATOM     23  H   UNL     1      -6.085  -3.187   0.768  0.00  0.00    +0.155 HD
ATOM     24  H   UNL     1      -4.939  -0.091  -1.917  0.00  0.00    -0.079 HD
ENDROOT
BRANCH  17  25
ATOM     25  C   UNL     1      -6.071  -4.006  -5.716  0.00  0.00    +0.056 A 
ATOM     26  C   UNL     1      -7.347  -3.464  -5.800  0.00  0.00    +0.024 A 
ATOM     27  C   UNL     1      -8.273  -4.012  -6.667  0.00  0.00    +0.002 A 
ATOM     28  C   UNL     1      -7.930  -5.098  -7.450  0.00  0.00    +0.001 A 
ATOM     29  C   UNL     1      -6.661  -5.640  -7.369  0.00  0.00    +0.014 A 
ATOM     30  C   UNL     1      -5.729  -5.093  -6.508  0.00  0.00    +0.077 A 
BRANCH  30  31
ATOM     31  C   UNL     1      -4.343  -5.681  -6.425  0.00  0.00    +0.419 C 
ATOM     32  F   UNL     1      -4.245  -6.769  -7.298  0.00  0.00    -0.166 F 
ATOM     33  F   UNL     1      -3.403  -4.709  -6.782  0.00  0.00    -0.166 F 
ATOM     34  F   UNL     1      -4.096  -6.109  -5.116  0.00  0.00    -0.166 F 
ENDBRANCH  30  31
ENDBRANCH  17  25
BRANCH   1  36
ATOM     35  C   UNL     1      -0.360   0.857   0.887  0.00  0.00    +0.009 C 
ATOM     36  C   UNL     1      -0.262  -0.653   0.661  0.00  0.00    +0.032 C 
ENDBRANCH   1  36
TORSDOF 3
