REMARK  Name = ZINC48571988
REMARK  8 active torsions:
REMARK  status: ('A' for Active; 'I' for Inactive)
REMARK    1  A    between atoms: C_1  and  C_2
REMARK    2  A    between atoms: C_5  and  C_8
REMARK    3  A    between atoms: C_9  and  C_19
REMARK    4  A    between atoms: N_11  and  C_13
REMARK    5  A    between atoms: N_20  and  N_21
REMARK    6  A    between atoms: C_22  and  C_24
REMARK    7  A    between atoms: C_24  and  N_25
REMARK    8  A    between atoms: C_26  and  C_28
REMARK                            x       y       z     vdW  Elec       q    Type
REMARK                         _______ _______ _______ _____ _____    ______ ____
ROOT
ATOM      1  C   UNL     1       1.729  -4.688   1.958  0.00  0.00    +0.142 C 
ATOM      2  N   UNL     1       1.830  -3.429   2.255  0.00  0.00    -0.188 NA
ENDROOT
BRANCH   1   4
ATOM      3  C   UNL     1       0.062  -4.255  -0.024  0.00  0.00    +0.102 A 
ATOM      4  C   UNL     1       0.827  -5.121   0.876  0.00  0.00    +0.040 A 
ATOM      5  C   UNL     1       0.541  -6.409   0.517  0.00  0.00    +0.124 A 
ATOM      6  N   UNL     1      -0.325  -6.372  -0.517  0.00  0.00    -0.239 N 
ATOM      7  N   UNL     1      -0.614  -5.041  -0.834  0.00  0.00    -0.166 NA
BRANCH   3  12
ATOM      8  C   UNL     1       0.004   1.503  -0.004  0.00  0.00    +0.044 C 
ATOM      9  C   UNL     1       0.019  -0.004  -0.010  0.00  0.00    -0.050 A 
ATOM     10  C   UNL     1      -1.168  -0.704  -0.125  0.00  0.00    +0.004 A 
ATOM     11  C   UNL     1      -1.160  -2.084  -0.130  0.00  0.00    +0.010 A 
ATOM     12  C   UNL     1       0.047  -2.772  -0.020  0.00  0.00    +0.003 A 
ATOM     13  C   UNL     1       1.241  -2.061   0.095  0.00  0.00    +0.010 A 
ATOM     14  C   UNL     1       1.221  -0.681   0.094  0.00  0.00    +0.004 A 
ENDBRANCH   3  12
BRANCH   6  15
ATOM     15  C   UNL     1      -0.856  -7.492  -1.168  0.00  0.00    +0.065 A 
ATOM     16  C   UNL     1      -0.501  -8.770  -0.755  0.00  0.00    +0.028 A 
ATOM     17  C   UNL     1      -1.026  -9.873  -1.399  0.00  0.00    +0.002 A 
ATOM     18  C   UNL     1      -1.905  -9.706  -2.454  0.00  0.00    +0.000 A 
ATOM     19  C   UNL     1      -2.260  -8.435  -2.868  0.00  0.00    +0.002 A 
ATOM     20  C   UNL     1      -1.743  -7.328  -2.224  0.00  0.00    +0.028 A 
ENDBRANCH   6  15
ENDBRANCH   1   4
BRANCH   2  21
ATOM     21  N   UNL     1       2.687  -3.017   3.284  0.00  0.00    -0.206 N 
ATOM     22  C   UNL     1       2.792  -1.709   3.591  0.00  0.00    +0.249 C 
ATOM     23  O   UNL     1       2.143  -0.888   2.978  0.00  0.00    -0.272 OA
ATOM     24  H   UNL     1       3.206  -3.674   3.774  0.00  0.00    +0.177 HD
BRANCH  22  25
ATOM     25  C   UNL     1       3.714  -1.267   4.698  0.00  0.00    +0.202 C 
BRANCH  25  26
ATOM     26  N   UNL     1       3.648   0.190   4.835  0.00  0.00    -0.303 N 
ATOM     27  C   UNL     1       4.394   0.814   5.769  0.00  0.00    +0.245 C 
ATOM     28  O   UNL     1       5.122   0.167   6.497  0.00  0.00    -0.270 OA
ATOM     29  H   UNL     1       3.068   0.707   4.254  0.00  0.00    +0.150 HD
BRANCH  27  30
ATOM     30  C   UNL     1       4.328   2.284   5.907  0.00  0.00    +0.038 A 
ATOM     31  C   UNL     1       3.489   3.029   5.076  0.00  0.00    +0.014 A 
ATOM     32  C   UNL     1       3.431   4.400   5.210  0.00  0.00    +0.022 A 
ATOM     33  C   UNL     1       4.203   5.039   6.165  0.00  0.00    +0.059 A 
ATOM     34  C   UNL     1       5.038   4.305   6.993  0.00  0.00    +0.060 A 
ATOM     35  C   UNL     1       5.099   2.932   6.873  0.00  0.00    +0.034 A 
ATOM     36 CL   UNL     1       6.002   5.115   8.189  0.00  0.00    -0.082 Cl
ATOM     37 CL   UNL     1       4.125   6.766   6.327  0.00  0.00    -0.082 Cl
ENDBRANCH  27  30
ENDBRANCH  25  26
ENDBRANCH  22  25
ENDBRANCH   2  21
TORSDOF 7
