REMARK  Name = ZINC09860268
REMARK  10 active torsions:
REMARK  status: ('A' for Active; 'I' for Inactive)
REMARK    1  A    between atoms: C_1  and  C_2
REMARK    2  A    between atoms: C_7  and  C_39
REMARK    3  A    between atoms: C_9  and  C_10
REMARK    4  A    between atoms: C_9  and  N_72
REMARK    5  A    between atoms: C_10  and  N_11
REMARK    6  A    between atoms: C_12  and  C_14
REMARK    7  A    between atoms: C_14  and  C_15
REMARK    8  A    between atoms: C_15  and  C_16
REMARK    9  A    between atoms: C_16  and  C_17
REMARK   10  A    between atoms: C_31  and  C_33
REMARK                            x       y       z     vdW  Elec       q    Type
REMARK                         _______ _______ _______ _____ _____    ______ ____
ROOT
ATOM      1  C   UNL     1       3.834   5.239   1.996  0.00  0.00    +0.139 A 
ATOM      2  N   UNL     1       2.839   4.454   2.306  0.00  0.00    -0.132 NA
ATOM      3  N   UNL     1       1.851   5.147   2.747  0.00  0.00    -0.108 NA
ATOM      4  C   UNL     1       2.163   6.425   2.741  0.00  0.00    +0.259 A 
ATOM      5  N   UNL     1       3.438   6.516   2.263  0.00  0.00    -0.263 N 
ATOM      6  C   UNL     1       4.070   7.748   2.131  0.00  0.00    +0.062 A 
ATOM      7  C   UNL     1       5.365   7.841   1.645  0.00  0.00    +0.027 A 
ATOM      8  C   UNL     1       5.969   9.077   1.526  0.00  0.00    +0.002 A 
ATOM      9  C   UNL     1       5.291  10.230   1.888  0.00  0.00    +0.001 A 
ATOM     10  C   UNL     1       4.004  10.156   2.378  0.00  0.00    +0.013 A 
ATOM     11  C   UNL     1       3.382   8.916   2.499  0.00  0.00    +0.043 A 
ATOM     12  C   UNL     1       2.007   8.793   3.013  0.00  0.00    +0.169 A 
ATOM     13  N   UNL     1       1.452   7.550   3.114  0.00  0.00    -0.177 N 
ATOM     14  N   UNL     1       0.159   7.738   3.625  0.00  0.00    -0.142 NA
ATOM     15  C   UNL     1      -0.000   9.033   3.801  0.00  0.00    +0.182 A 
ATOM     16  N   UNL     1       1.118   9.668   3.431  0.00  0.00    -0.206 NA
ENDROOT
BRANCH  15  17
ATOM     17  C   UNL     1      -1.225   9.686   4.326  0.00  0.00    +0.021 A 
ATOM     18  C   UNL     1      -1.272  11.070   4.474  0.00  0.00    +0.011 A 
ATOM     19  C   UNL     1      -2.415  11.672   4.958  0.00  0.00    +0.001 A 
ATOM     20  C   UNL     1      -3.510  10.902   5.307  0.00  0.00    +0.000 A 
ATOM     21  C   UNL     1      -3.468   9.527   5.168  0.00  0.00    +0.001 A 
ATOM     22  C   UNL     1      -2.331   8.915   4.679  0.00  0.00    +0.011 A 
ENDBRANCH  15  17
BRANCH   1  23
ATOM     23  C   UNL     1       5.171   4.814   1.446  0.00  0.00    +0.077 C 
BRANCH  23  24
ATOM     24  C   UNL     1       5.160   4.945  -0.078  0.00  0.00    +0.017 C 
BRANCH  24  25
ATOM     25  C   UNL     1       6.518   4.513  -0.637  0.00  0.00    +0.096 C 
BRANCH  25  27
ATOM     26  N   UNL     1       7.604   4.315  -2.851  0.00  0.00    -0.317 N 
ATOM     27  C   UNL     1       6.507   4.642  -2.138  0.00  0.00    +0.213 C 
ATOM     28  O   UNL     1       5.512   5.040  -2.706  0.00  0.00    -0.276 OA
ATOM     29  H   UNL     1       8.400   3.997  -2.397  0.00  0.00    +0.149 HD
BRANCH  26  30
ATOM     30  C   UNL     1       7.593   4.440  -4.310  0.00  0.00    +0.085 C 
BRANCH  30  31
ATOM     31  C   UNL     1       8.951   4.009  -4.869  0.00  0.00    -0.059 C 
BRANCH  31  39
ATOM     32  C   UNL     1       8.149   1.926  -6.583  0.00  0.00    -0.013 C 
ATOM     33  C   UNL     1       7.957   3.389  -6.988  0.00  0.00    -0.071 C 
ATOM     34  C   UNL     1       8.104   3.522  -8.505  0.00  0.00    -0.016 C 
ATOM     35  C   UNL     1       7.931   4.991  -8.903  0.00  0.00    -0.003 C 
ATOM     36  C   UNL     1       8.967   5.838  -8.160  0.00  0.00    -0.016 C 
ATOM     37  C   UNL     1       8.796   5.638  -6.652  0.00  0.00    -0.071 C 
ATOM     38  C   UNL     1       9.842   6.468  -5.906  0.00  0.00    -0.013 C 
ATOM     39  N   UNL     1       8.998   4.209  -6.332  0.00  0.00    +0.384 N 
ATOM     40  H   UNL     1       9.919   3.918  -6.679  0.00  0.00    -0.081 HD
ENDBRANCH  31  39
ENDBRANCH  30  31
ENDBRANCH  26  30
ENDBRANCH  25  27
ENDBRANCH  24  25
ENDBRANCH  23  24
ENDBRANCH   1  23
TORSDOF 8
