REMARK  Name = ZINC21239429
REMARK  12 active torsions:
REMARK  status: ('A' for Active; 'I' for Inactive)
REMARK    1  A    between atoms: C_1  and  O_2
REMARK    2  A    between atoms: O_2  and  C_3
REMARK    3  A    between atoms: C_6  and  O_39
REMARK    4  A    between atoms: C_7  and  C_9
REMARK    5  A    between atoms: C_14  and  C_19
REMARK    6  A    between atoms: C_21  and  O_29
REMARK    7  A    between atoms: C_22  and  O_27
REMARK    8  A    between atoms: C_23  and  O_25
REMARK    9  A    between atoms: O_25  and  C_26
REMARK   10  A    between atoms: O_27  and  C_28
REMARK   11  A    between atoms: O_29  and  C_30
REMARK   12  A    between atoms: O_39  and  C_40
REMARK                            x       y       z     vdW  Elec       q    Type
REMARK                         _______ _______ _______ _____ _____    ______ ____
ROOT
ATOM      1  C   UNL     1      -2.149   3.055   2.570  0.00  0.00    +0.140 C 
ATOM      2  C   UNL     1      -1.478   2.594   1.298  0.00  0.00    +0.037 C 
ATOM      3  C   UNL     1      -1.471   3.253   0.127  0.00  0.00    +0.017 C 
ATOM      4  C   UNL     1      -0.732   2.682  -1.072  0.00  0.00    +0.059 C 
ATOM      5  C   UNL     1      -0.781   1.155  -1.035  0.00  0.00    +0.032 C 
ATOM      6  C   UNL     1      -0.113   0.698   0.267  0.00  0.00    +0.088 C 
ATOM      7  C   UNL     1      -0.813   1.349   1.422  0.00  0.00    +0.163 C 
ATOM      8  O   UNL     1      -0.813   0.786   2.499  0.00  0.00    -0.292 OA
ATOM      9  N   UNL     1      -2.088   4.440  -0.101  0.00  0.00    -0.316 N 
ATOM     10  C   UNL     1      -2.010   5.546   0.737  0.00  0.00    +0.052 A 
ATOM     11  C   UNL     1      -1.465   6.748   0.323  0.00  0.00    +0.025 A 
ATOM     12  C   UNL     1      -1.517   7.844   1.167  0.00  0.00    +0.002 A 
ATOM     13  C   UNL     1      -2.107   7.736   2.414  0.00  0.00    +0.002 A 
ATOM     14  C   UNL     1      -2.634   6.529   2.837  0.00  0.00    +0.025 A 
ATOM     15  C   UNL     1      -2.569   5.426   2.001  0.00  0.00    +0.049 A 
ATOM     16  N   UNL     1      -3.045   4.179   2.401  0.00  0.00    -0.331 N 
ATOM     17  H   UNL     1      -2.703   4.576  -1.002  0.00  0.00    +0.152 HD
ATOM     18  H   UNL     1      -4.122   4.057   2.588  0.00  0.00    +0.147 HD
ENDROOT
BRANCH   1  23
ATOM     19  C   UNL     1       1.191   4.037   4.040  0.00  0.00    +0.121 A 
ATOM     20  C   UNL     1       0.880   4.148   5.387  0.00  0.00    +0.049 A 
ATOM     21  C   UNL     1      -0.409   3.905   5.820  0.00  0.00    +0.049 A 
ATOM     22  C   UNL     1      -1.392   3.551   4.908  0.00  0.00    +0.126 A 
ATOM     23  C   UNL     1      -1.081   3.441   3.561  0.00  0.00    +0.022 A 
ATOM     24  C   UNL     1       0.209   3.678   3.128  0.00  0.00    +0.055 A 
BRANCH  19  26
ATOM     25  C   UNL     1       3.422   4.636   4.607  0.00  0.00    +0.277 C 
ATOM     26  O   UNL     1       2.460   4.275   3.613  0.00  0.00    -0.495 OA
ENDBRANCH  19  26
BRANCH  22  27
ATOM     27  O   UNL     1      -2.661   3.313   5.334  0.00  0.00    -0.495 OA
ATOM     28  C   UNL     1      -2.910   3.445   6.735  0.00  0.00    +0.277 C 
ENDBRANCH  22  27
ENDBRANCH   1  23
BRANCH   5  29
ATOM     29  C   UNL     1      -0.036   0.591  -2.217  0.00  0.00    -0.036 A 
ATOM     30  C   UNL     1       1.296   0.907  -2.407  0.00  0.00    +0.053 A 
ATOM     31  C   UNL     1       1.987   0.386  -3.490  0.00  0.00    +0.165 A 
ATOM     32  C   UNL     1       1.335  -0.447  -4.392  0.00  0.00    +0.204 A 
ATOM     33  C   UNL     1      -0.005  -0.757  -4.201  0.00  0.00    +0.165 A 
ATOM     34  C   UNL     1      -0.688  -0.237  -3.112  0.00  0.00    +0.053 A 
BRANCH  33  35
ATOM     35  O   UNL     1      -0.648  -1.571  -5.081  0.00  0.00    -0.491 OA
ATOM     36  C   UNL     1      -2.026  -1.849  -4.822  0.00  0.00    +0.277 C 
ENDBRANCH  33  35
BRANCH  32  37
ATOM     37  O   UNL     1       2.009  -0.956  -5.460  0.00  0.00    -0.488 OA
ATOM     38  C   UNL     1       1.996  -0.185  -6.663  0.00  0.00    +0.277 C 
ENDBRANCH  32  37
BRANCH  31  39
ATOM     39  O   UNL     1       3.300   0.693  -3.673  0.00  0.00    -0.491 OA
ATOM     40  C   UNL     1       3.905   1.554  -2.706  0.00  0.00    +0.277 C 
ENDBRANCH  31  39
ENDBRANCH   5  29
TORSDOF 7
