REMARK  Name = ZINC39710620
REMARK  11 active torsions:
REMARK  status: ('A' for Active; 'I' for Inactive)
REMARK    1  A    between atoms: C_1  and  C_2
REMARK    2  A    between atoms: C_7  and  C_14
REMARK    3  A    between atoms: C_14  and  C_16
REMARK    4  A    between atoms: C_14  and  N_27
REMARK    5  A    between atoms: N_21  and  C_22
REMARK    6  A    between atoms: N_27  and  C_28
REMARK    7  A    between atoms: N_27  and  C_37
REMARK    8  A    between atoms: C_28  and  C_29
REMARK    9  A    between atoms: C_32  and  O_35
REMARK   10  A    between atoms: O_35  and  C_36
REMARK   11  A    between atoms: C_37  and  C_38
REMARK                            x       y       z     vdW  Elec       q    Type
REMARK                         _______ _______ _______ _____ _____    ______ ____
ROOT
ATOM      1  C   UNL     1       1.294  -5.631   1.381  0.00  0.00    -0.009 C 
ENDROOT
BRANCH   1   8
ATOM      2  C   UNL     1      -1.160   1.363   0.257  0.00  0.00    +0.044 C 
ATOM      3  C   UNL     1      -0.910  -0.123   0.217  0.00  0.00    -0.049 A 
ATOM      4  C   UNL     1      -0.823  -0.754  -1.024  0.00  0.00    +0.004 A 
ATOM      5  C   UNL     1      -0.599  -2.090  -1.124  0.00  0.00    +0.010 A 
ATOM      6  C   UNL     1      -0.447  -2.873   0.102  0.00  0.00    -0.007 A 
ATOM      7  C   UNL     1      -0.220  -4.217   0.051  0.00  0.00    -0.006 C 
ATOM      8  C   UNL     1      -0.075  -4.949   1.371  0.00  0.00    +0.088 C 
ATOM      9  C   UNL     1      -0.193  -4.130   2.636  0.00  0.00    +0.223 C 
ATOM     10  O   UNL     1      -0.085  -4.666   3.723  0.00  0.00    -0.275 OA
ATOM     11  N   UNL     1      -0.415  -2.828   2.557  0.00  0.00    -0.285 N 
ATOM     12  C   UNL     1      -0.543  -2.181   1.399  0.00  0.00    +0.041 A 
ATOM     13  C   UNL     1      -0.773  -0.793   1.391  0.00  0.00    +0.027 A 
ATOM     14  H   UNL     1      -0.488  -2.321   3.381  0.00  0.00    +0.155 HD
ENDBRANCH   1   8
BRANCH   1  15
ATOM     15  C   UNL     1       2.394  -4.568   1.395  0.00  0.00    +0.205 C 
ATOM     16  N   UNL     1       2.230  -3.676   2.550  0.00  0.00    -0.152 NA
ATOM     17  N   UNL     1       2.049  -2.526   2.143  0.00  0.00    -0.070 NA
ATOM     18  N   UNL     1       2.057  -2.435   0.752  0.00  0.00    -0.179 N 
ATOM     19  N   UNL     1       2.271  -3.682   0.218  0.00  0.00    -0.185 NA
ATOM     20  H   UNL     1       1.932  -1.620   0.241  0.00  0.00    +0.191 HD
BRANCH  19  21
ATOM     21  C   UNL     1       3.496  -3.708  -0.592  0.00  0.00    +0.080 C 
ATOM     22  C   UNL     1       4.684  -3.166   0.230  0.00  0.00    +0.021 C 
ATOM     23  C   UNL     1       5.525  -2.371  -0.799  0.00  0.00    +0.002 C 
ATOM     24  C   UNL     1       4.443  -1.705  -1.685  0.00  0.00    +0.002 C 
ATOM     25  C   UNL     1       3.343  -2.780  -1.809  0.00  0.00    +0.021 C 
ENDBRANCH  19  21
ENDBRANCH   1  15
BRANCH   1  26
ATOM     26  N   UNL     1       1.412  -6.474   2.578  0.00  0.00    +0.392 N 
ATOM     27  H   UNL     1       1.398  -5.892   3.402  0.00  0.00    -0.080 HD
BRANCH  26  28
ATOM     28  C   UNL     1       2.676  -7.221   2.529  0.00  0.00    -0.042 C 
BRANCH  28  29
ATOM     29  C   UNL     1       2.736  -8.024   1.255  0.00  0.00    -0.064 A 
ATOM     30  C   UNL     1       2.148  -9.275   1.200  0.00  0.00    +0.005 A 
ATOM     31  C   UNL     1       2.202 -10.013   0.033  0.00  0.00    +0.046 A 
ATOM     32  C   UNL     1       2.845  -9.499  -1.083  0.00  0.00    +0.120 A 
ATOM     33  C   UNL     1       3.433  -8.243  -1.025  0.00  0.00    +0.046 A 
ATOM     34  C   UNL     1       3.372  -7.507   0.142  0.00  0.00    +0.005 A 
BRANCH  32  35
ATOM     35  O   UNL     1       2.899 -10.223  -2.232  0.00  0.00    -0.495 OA
ATOM     36  C   UNL     1       3.671  -9.681  -3.305  0.00  0.00    +0.277 C 
ENDBRANCH  32  35
ENDBRANCH  28  29
ENDBRANCH  26  28
BRANCH  26  37
ATOM     37  C   UNL     1       0.287  -7.418   2.626  0.00  0.00    -0.002 C 
BRANCH  37  38
ATOM     38  C   UNL     1       0.326  -8.180   3.925  0.00  0.00    +0.089 A 
ATOM     39  C   UNL     1      -0.352  -7.864   5.043  0.00  0.00    +0.042 A 
ATOM     40  C   UNL     1      -0.024  -8.841   6.011  0.00  0.00    +0.041 A 
ATOM     41  C   UNL     1       0.834  -9.696   5.426  0.00  0.00    +0.195 A 
ATOM     42  O   UNL     1       1.038  -9.294   4.161  0.00  0.00    -0.470 OA
ENDBRANCH  37  38
ENDBRANCH  26  37
ENDBRANCH   1  26
TORSDOF 9
