REMARK  Name = ZINC08789146
REMARK  11 active torsions:
REMARK  status: ('A' for Active; 'I' for Inactive)
REMARK    1  A    between atoms: C_1  and  C_2
REMARK    2  A    between atoms: C_2  and  C_11
REMARK    3  A    between atoms: N_3  and  N_4
REMARK    4  A    between atoms: N_4  and  C_5
REMARK    5  A    between atoms: C_11  and  O_40
REMARK    6  A    between atoms: C_12  and  O_36
REMARK    7  A    between atoms: C_17  and  C_35
REMARK    8  A    between atoms: C_27  and  C_34
REMARK    9  A    between atoms: C_30  and  O_33
REMARK   10  A    between atoms: O_36  and  C_37
REMARK   11  A    between atoms: C_37  and  C_39
REMARK                            x       y       z     vdW  Elec       q    Type
REMARK                         _______ _______ _______ _____ _____    ______ ____
ROOT
ATOM      1  C   UNL     1       0.419  -0.307  -6.636  0.00  0.00    +0.147 C 
ATOM      2  C   UNL     1       0.646   1.051  -7.345  0.00  0.00    +0.214 C 
ATOM      3  C   UNL     1       0.116   2.145  -6.378  0.00  0.00    +0.052 C 
ATOM      4  C   UNL     1       0.202   1.462  -5.009  0.00  0.00    +0.005 C 
ATOM      5  C   UNL     1      -0.306   0.033  -5.337  0.00  0.00    +0.009 C 
ATOM      6  C   UNL     1       0.013  -0.840  -4.138  0.00  0.00    +0.010 C 
ATOM      7  C   UNL     1      -0.821  -0.312  -2.960  0.00  0.00    +0.005 C 
ATOM      8  C   UNL     1      -0.532   1.160  -2.677  0.00  0.00    +0.003 C 
ATOM      9  C   UNL     1      -0.707   2.027  -3.932  0.00  0.00    +0.001 C 
ATOM     10  C   UNL     1      -0.270   3.456  -3.590  0.00  0.00    +0.031 C 
ATOM     11  C   UNL     1      -1.060   3.945  -2.412  0.00  0.00    -0.027 C 
ATOM     12  C   UNL     1      -1.552   3.149  -1.524  0.00  0.00    -0.065 C 
ATOM     13  C   UNL     1      -1.434   1.654  -1.558  0.00  0.00    -0.008 C 
ATOM     14  C   UNL     1      -0.916   1.153  -0.207  0.00  0.00    +0.014 C 
ATOM     15  C   UNL     1      -1.815   1.685   0.911  0.00  0.00    +0.032 C 
ATOM     16  C   UNL     1      -1.750   3.212   0.942  0.00  0.00    +0.119 C 
ATOM     17  C   UNL     1      -2.313   3.774  -0.367  0.00  0.00    +0.062 C 
ATOM     18  C   UNL     1      -2.831   1.070  -1.778  0.00  0.00    +0.016 C 
ATOM     19  C   UNL     1      -1.817   0.053  -5.577  0.00  0.00    +0.015 C 
ENDROOT
BRANCH   1  21
ATOM     20  C   UNL     1      -0.764  -2.601  -7.024  0.00  0.00    +0.065 C 
ATOM     21  C   UNL     1      -0.435  -1.206  -7.491  0.00  0.00    +0.069 C 
ATOM     22  N   UNL     1      -0.882  -0.786  -8.615  0.00  0.00    -0.189 NA
BRANCH  22  23
ATOM     23  N   UNL     1      -1.780  -1.571  -9.350  0.00  0.00    -0.238 N 
ATOM     24  H   UNL     1      -2.013  -2.460  -9.040  0.00  0.00    +0.174 HD
BRANCH  23  25
ATOM     25  C   UNL     1      -2.341  -1.073 -10.527  0.00  0.00    +0.048 A 
ATOM     26  C   UNL     1      -1.933   0.158 -11.027  0.00  0.00    +0.025 A 
ATOM     27  C   UNL     1      -2.485   0.644 -12.195  0.00  0.00    +0.002 A 
ATOM     28  C   UNL     1      -3.451  -0.087 -12.862  0.00  0.00    +0.000 A 
ATOM     29  C   UNL     1      -3.864  -1.310 -12.365  0.00  0.00    +0.002 A 
ATOM     30  C   UNL     1      -3.311  -1.805 -11.200  0.00  0.00    +0.025 A 
ENDBRANCH  23  25
ENDBRANCH  22  23
ENDBRANCH   1  21
BRANCH  16  31
ATOM     31  O   UNL     1      -2.523   3.700   2.041  0.00  0.00    -0.391 OA
ATOM     32  H   UNL     1      -2.527   4.663   2.123  0.00  0.00    +0.210 HD
ENDBRANCH  16  31
BRANCH   1  33
ATOM     33  O   UNL     1       1.672  -0.934  -6.354  0.00  0.00    -0.378 OA
ATOM     34  H   UNL     1       2.178  -1.173  -7.142  0.00  0.00    +0.211 HD
ENDBRANCH   1  33
BRANCH   2  35
ATOM     35  O   UNL     1       2.062   1.252  -7.596  0.00  0.00    -0.458 OA
BRANCH  35  36
ATOM     36  C   UNL     1       2.393   1.982  -8.672  0.00  0.00    +0.304 C 
ATOM     37  O   UNL     1       1.528   2.439  -9.382  0.00  0.00    -0.251 OA
ATOM     38  C   UNL     1       3.844   2.233  -8.996  0.00  0.00    +0.136 C 
ENDBRANCH  35  36
ENDBRANCH   2  35
TORSDOF 7
