REMARK  Name = ZINC20883837
REMARK  11 active torsions:
REMARK  status: ('A' for Active; 'I' for Inactive)
REMARK    1  A    between atoms: C_1  and  C_2
REMARK    2  A    between atoms: C_2  and  O_3
REMARK    3  A    between atoms: O_3  and  C_4
REMARK    4  A    between atoms: C_5  and  C_12
REMARK    5  A    between atoms: C_9  and  O_10
REMARK    6  A    between atoms: O_10  and  C_11
REMARK    7  A    between atoms: C_17  and  C_22
REMARK    8  A    between atoms: C_24  and  O_30
REMARK    9  A    between atoms: C_27  and  O_28
REMARK   10  A    between atoms: O_28  and  C_29
REMARK   11  A    between atoms: O_30  and  C_31
REMARK                            x       y       z     vdW  Elec       q    Type
REMARK                         _______ _______ _______ _____ _____    ______ ____
ROOT
ATOM      1  C   UNL     1      -6.604   1.334   0.020  0.00  0.00    +0.140 C 
ATOM      2  C   UNL     1      -5.235   0.696  -0.015  0.00  0.00    +0.037 C 
ATOM      3  C   UNL     1      -4.510   0.327   1.054  0.00  0.00    +0.017 C 
ATOM      4  C   UNL     1      -3.158  -0.343   0.871  0.00  0.00    +0.060 C 
ATOM      5  C   UNL     1      -2.472   0.206  -0.379  0.00  0.00    +0.036 C 
ATOM      6  C   UNL     1      -3.378  -0.096  -1.579  0.00  0.00    +0.088 C 
ATOM      7  C   UNL     1      -4.729   0.499  -1.321  0.00  0.00    +0.163 C 
ATOM      8  O   UNL     1      -5.416   0.824  -2.270  0.00  0.00    -0.292 OA
ATOM      9  N   UNL     1      -4.891   0.491   2.346  0.00  0.00    -0.316 N 
ATOM     10  C   UNL     1      -6.146   0.164   2.849  0.00  0.00    +0.052 A 
ATOM     11  C   UNL     1      -6.327  -0.829   3.795  0.00  0.00    +0.025 A 
ATOM     12  C   UNL     1      -7.598  -1.074   4.287  0.00  0.00    +0.002 A 
ATOM     13  C   UNL     1      -8.675  -0.330   3.839  0.00  0.00    +0.002 A 
ATOM     14  C   UNL     1      -8.497   0.653   2.881  0.00  0.00    +0.025 A 
ATOM     15  C   UNL     1      -7.230   0.885   2.371  0.00  0.00    +0.049 A 
ATOM     16  N   UNL     1      -7.019   1.787   1.330  0.00  0.00    -0.331 N 
ATOM     17  H   UNL     1      -4.185   0.909   3.079  0.00  0.00    +0.152 HD
ATOM     18  H   UNL     1      -7.175   2.860   1.517  0.00  0.00    +0.147 HD
ENDROOT
BRANCH   1  20
ATOM     19  C   UNL     1      -8.869   0.755  -0.881  0.00  0.00    +0.167 A 
ATOM     20  C   UNL     1      -7.611   0.332  -0.482  0.00  0.00    +0.023 A 
ATOM     21  C   UNL     1      -7.283  -1.009  -0.538  0.00  0.00    +0.009 A 
ATOM     22  C   UNL     1      -8.206  -1.931  -0.998  0.00  0.00    +0.004 A 
ATOM     23  C   UNL     1      -9.460  -1.515  -1.403  0.00  0.00    +0.049 A 
ATOM     24  C   UNL     1      -9.795  -0.172  -1.349  0.00  0.00    +0.162 A 
BRANCH  24  25
ATOM     25  O   UNL     1     -11.029   0.239  -1.747  0.00  0.00    -0.491 OA
ATOM     26  C   UNL     1     -11.931  -0.768  -2.210  0.00  0.00    +0.277 C 
ENDBRANCH  24  25
BRANCH  19  27
ATOM     27  O   UNL     1      -9.195   2.074  -0.821  0.00  0.00    -0.488 OA
BRANCH  27  29
ATOM     28  C   UNL     1      -9.322   4.312  -1.725  0.00  0.00    +0.048 C 
ATOM     29  C   UNL     1      -9.027   2.839  -2.017  0.00  0.00    +0.226 C 
ENDBRANCH  27  29
ENDBRANCH  19  27
ENDBRANCH   1  20
BRANCH   5  30
ATOM     30  C   UNL     1      -1.136  -0.467  -0.565  0.00  0.00    +0.002 A 
ATOM     31  C   UNL     1      -1.067  -1.840  -0.698  0.00  0.00    +0.053 A 
ATOM     32  C   UNL     1       0.163  -2.459  -0.864  0.00  0.00    +0.121 A 
ATOM     33  C   UNL     1       1.323  -1.699  -0.902  0.00  0.00    +0.049 A 
ATOM     34  C   UNL     1       1.253  -0.325  -0.775  0.00  0.00    +0.049 A 
ATOM     35  C   UNL     1       0.022   0.294  -0.609  0.00  0.00    +0.124 A 
BRANCH  35  36
ATOM     36  O   UNL     1      -0.046   1.646  -0.484  0.00  0.00    -0.495 OA
ATOM     37  C   UNL     1       1.187   2.366  -0.532  0.00  0.00    +0.277 C 
ENDBRANCH  35  36
BRANCH  32  38
ATOM     38  O   UNL     1       0.232  -3.811  -0.989  0.00  0.00    -0.495 OA
ATOM     39  C   UNL     1       1.531  -4.382  -1.157  0.00  0.00    +0.277 C 
ENDBRANCH  32  38
ENDBRANCH   5  30
TORSDOF 7
