REMARK  Name = ZINC64502346
REMARK  7 active torsions:
REMARK  status: ('A' for Active; 'I' for Inactive)
REMARK    1  A    between atoms: C_1  and  C_2
REMARK    2  A    between atoms: N_5  and  C_13
REMARK    3  A    between atoms: C_13  and  C_14
REMARK    4  A    between atoms: C_17  and  C_20
REMARK    5  A    between atoms: N_22  and  C_23
REMARK    6  A    between atoms: C_23  and  C_24
REMARK    7  A    between atoms: C_24  and  C_25
REMARK                            x       y       z     vdW  Elec       q    Type
REMARK                         _______ _______ _______ _____ _____    ______ ____
ROOT
ATOM      1  C   UNL     1      -2.901  -3.137  -1.421  0.00  0.00    -0.028 A 
ATOM      2  C   UNL     1      -3.731  -2.235  -2.063  0.00  0.00    +0.006 A 
ATOM      3  C   UNL     1      -4.131  -2.465  -3.363  0.00  0.00    +0.013 A 
ATOM      4  C   UNL     1      -3.698  -3.612  -4.031  0.00  0.00    +0.037 A 
ATOM      5  C   UNL     1      -2.862  -4.518  -3.377  0.00  0.00    +0.013 A 
ATOM      6  C   UNL     1      -2.464  -4.273  -2.079  0.00  0.00    +0.006 A 
ENDROOT
BRANCH   4   7
ATOM      7  C   UNL     1      -4.123  -3.865  -5.424  0.00  0.00    +0.244 C 
ATOM      8  O   UNL     1      -4.852  -3.075  -5.990  0.00  0.00    -0.270 OA
ATOM      9  N   UNL     1      -3.704  -4.974  -6.065  0.00  0.00    -0.311 N 
ATOM     10  H   UNL     1      -3.122  -5.605  -5.613  0.00  0.00    +0.149 HD
BRANCH   9  11
ATOM     11  C   UNL     1      -4.125  -5.225  -7.446  0.00  0.00    +0.109 C 
BRANCH  11  12
ATOM     12  C   UNL     1      -3.513  -6.539  -7.935  0.00  0.00    +0.052 C 
BRANCH  12  13
ATOM     13  C   UNL     1      -3.947  -6.798  -9.354  0.00  0.00    -0.040 C 
ATOM     14  C   UNL     1      -3.268  -6.487 -10.482  0.00  0.00    +0.000 A 
ATOM     15  C   UNL     1      -1.971  -5.839 -10.714  0.00  0.00    +0.030 A 
ATOM     16  C   UNL     1      -1.546  -5.660 -11.986  0.00  0.00    +0.042 A 
ATOM     17  C   UNL     1      -2.312  -6.076 -13.085  0.00  0.00    +0.022 A 
ATOM     18  C   UNL     1      -3.512  -6.678 -12.951  0.00  0.00    +0.027 A 
ATOM     19  C   UNL     1      -4.056  -6.918 -11.658  0.00  0.00    +0.043 A 
ATOM     20  N   UNL     1      -5.179  -7.473 -11.274  0.00  0.00    -0.380 N 
ATOM     21  C   UNL     1      -5.228  -7.464  -9.807  0.00  0.00    +0.144 C 
ATOM     22 CL   UNL     1      -0.013  -4.894 -12.266  0.00  0.00    -0.084 Cl
ATOM     23  H   UNL     1      -5.863  -7.834 -11.860  0.00  0.00    +0.160 HD
ENDBRANCH  12  13
ENDBRANCH  11  12
ENDBRANCH   9  11
ENDBRANCH   4   7
BRANCH   1  24
ATOM     24  C   UNL     1      -2.468  -2.879  -0.001  0.00  0.00    +0.160 C 
BRANCH  24  29
ATOM     25  C   UNL     1      -0.018   1.503   0.010  0.00  0.00    +0.071 C 
ATOM     26  C   UNL     1       0.002  -0.004   0.002  0.00  0.00    +0.103 A 
ATOM     27  C   UNL     1      -1.260  -0.752   0.004  0.00  0.00    +0.273 A 
ATOM     28  O   UNL     1      -2.326  -0.163   0.012  0.00  0.00    -0.266 OA
ATOM     29  N   UNL     1      -1.226  -2.103  -0.004  0.00  0.00    -0.301 N 
ATOM     30  C   UNL     1      -0.001  -2.740  -0.013  0.00  0.00    +0.071 A 
ATOM     31  C   UNL     1       0.068  -4.130  -0.021  0.00  0.00    +0.028 A 
ATOM     32  C   UNL     1       1.296  -4.755  -0.031  0.00  0.00    +0.002 A 
ATOM     33  C   UNL     1       2.467  -4.009  -0.032  0.00  0.00    +0.002 A 
ATOM     34  C   UNL     1       2.424  -2.645  -0.024  0.00  0.00    +0.030 A 
ATOM     35  C   UNL     1       1.186  -1.983  -0.014  0.00  0.00    +0.088 A 
ATOM     36  N   UNL     1       1.140  -0.637  -0.012  0.00  0.00    -0.245 NA
ENDBRANCH  24  29
ENDBRANCH   1  24
TORSDOF 6
