REMARK  Name = ZINC39935388
REMARK  9 active torsions:
REMARK  status: ('A' for Active; 'I' for Inactive)
REMARK    1  A    between atoms: C_1  and  C_2
REMARK    2  A    between atoms: C_4  and  C_38
REMARK    3  A    between atoms: C_5  and  C_36
REMARK    4  A    between atoms: C_6  and  N_15
REMARK    5  A    between atoms: N_8  and  C_9
REMARK    6  A    between atoms: C_9  and  C_10
REMARK    7  A    between atoms: C_16  and  C_18
REMARK    8  A    between atoms: C_18  and  N_19
REMARK    9  A    between atoms: C_22  and  N_25
REMARK                            x       y       z     vdW  Elec       q    Type
REMARK                         _______ _______ _______ _____ _____    ______ ____
ROOT
ATOM      1  N   UNL     1       2.695  -1.758   1.454  0.00  0.00    -0.297 N 
ATOM      2  C   UNL     1       3.740  -1.531   2.275  0.00  0.00    +0.198 C 
ATOM      3  O   UNL     1       4.165  -0.405   2.417  0.00  0.00    -0.278 OA
ATOM      4  H   UNL     1       2.400  -2.666   1.283  0.00  0.00    +0.150 HD
ENDROOT
BRANCH   1   9
ATOM      5  C   UNL     1       1.404   1.764  -1.109  0.00  0.00    +0.029 C 
ATOM      6  C   UNL     1       2.512   1.434  -0.107  0.00  0.00    +0.083 C 
ATOM      7  C   UNL     1       2.015   1.635   1.306  0.00  0.00    -0.039 C 
ATOM      8  C   UNL     1       1.723   0.450   1.838  0.00  0.00    +0.065 C 
ATOM      9  C   UNL     1       2.003  -0.632   0.821  0.00  0.00    +0.186 C 
ATOM     10  N   UNL     1       2.877   0.001  -0.199  0.00  0.00    -0.267 NA
ATOM     11  C   UNL     1       1.872   2.964   2.002  0.00  0.00    +0.042 C 
BRANCH   8  12
ATOM     12  C   UNL     1       1.224   0.234   3.163  0.00  0.00    +0.098 C 
ATOM     13  N   UNL     1       0.828   0.063   4.214  0.00  0.00    -0.191 NA
ENDBRANCH   8  12
BRANCH  10  14
ATOM     14  C   UNL     1       2.593  -0.529  -1.540  0.00  0.00    +0.161 C 
BRANCH  14  15
ATOM     15  C   UNL     1       3.112  -1.940  -1.642  0.00  0.00    +0.119 A 
ATOM     16  C   UNL     1       2.393  -3.059  -1.442  0.00  0.00    +0.046 A 
ATOM     17  C   UNL     1       3.269  -4.151  -1.639  0.00  0.00    +0.041 A 
ATOM     18  C   UNL     1       4.472  -3.634  -1.947  0.00  0.00    +0.195 A 
ATOM     19  O   UNL     1       4.370  -2.294  -1.953  0.00  0.00    -0.467 OA
ENDBRANCH  14  15
ENDBRANCH  10  14
ENDBRANCH   1   9
BRANCH   2  20
ATOM     20  C   UNL     1       4.379  -2.678   3.015  0.00  0.00    +0.019 C 
BRANCH  20  21
ATOM     21  N   UNL     1       5.393  -2.158   3.942  0.00  0.00    +0.386 N 
ATOM     22  C   UNL     1       4.736  -1.370   4.992  0.00  0.00    -0.076 C 
ATOM     23  C   UNL     1       5.793  -0.759   5.913  0.00  0.00    +0.006 C 
ATOM     24  C   UNL     1       6.615  -1.882   6.554  0.00  0.00    +0.089 C 
ATOM     25  C   UNL     1       7.235  -2.741   5.448  0.00  0.00    +0.006 C 
ATOM     26  C   UNL     1       6.124  -3.279   4.544  0.00  0.00    -0.076 C 
ATOM     27  H   UNL     1       6.038  -1.569   3.437  0.00  0.00    -0.081 HD
BRANCH  24  28
ATOM     28  N   UNL     1       7.678  -1.302   7.378  0.00  0.00    -0.289 N 
ATOM     29  C   UNL     1       7.849  -1.501   8.746  0.00  0.00    +0.070 A 
ATOM     30  C   UNL     1       7.152  -2.233   9.696  0.00  0.00    +0.028 A 
ATOM     31  C   UNL     1       7.576  -2.235  11.010  0.00  0.00    +0.002 A 
ATOM     32  C   UNL     1       8.694  -1.508  11.383  0.00  0.00    +0.002 A 
ATOM     33  C   UNL     1       9.394  -0.775  10.445  0.00  0.00    +0.028 A 
ATOM     34  C   UNL     1       8.976  -0.769   9.123  0.00  0.00    +0.067 A 
ATOM     35  N   UNL     1       9.455  -0.147   7.972  0.00  0.00    -0.306 N 
ATOM     36  H   UNL     1      10.232   0.431   7.921  0.00  0.00    +0.170 HD
ATOM     37  C   UNL     1       8.660  -0.491   6.942  0.00  0.00    +0.328 A 
ATOM     38  O   UNL     1       8.804  -0.121   5.791  0.00  0.00    -0.247 OA
ENDBRANCH  24  28
ENDBRANCH  20  21
ENDBRANCH   2  20
TORSDOF 7
