REMARK  Name = ZINC23555745
REMARK  9 active torsions:
REMARK  status: ('A' for Active; 'I' for Inactive)
REMARK    1  A    between atoms: C_1  and  C_2
REMARK    2  A    between atoms: C_2  and  C_3
REMARK    3  A    between atoms: C_6  and  C_9
REMARK    4  A    between atoms: C_9  and  C_11
REMARK    5  A    between atoms: C_9  and  N_12
REMARK    6  A    between atoms: C_13  and  C_15
REMARK    7  A    between atoms: C_15  and  O_16
REMARK    8  A    between atoms: O_16  and  C_17
REMARK    9  A    between atoms: C_17  and  C_19
REMARK                            x       y       z     vdW  Elec       q    Type
REMARK                         _______ _______ _______ _____ _____    ______ ____
ROOT
ATOM      1  C   UNL     1       4.805   1.380  -0.036  0.00  0.00    +0.340 C 
ATOM      2  O   UNL     1       4.980   0.178  -0.044  0.00  0.00    -0.245 OA
ENDROOT
BRANCH   1   3
ATOM      3  C   UNL     1       5.962   2.294  -0.043  0.00  0.00    +0.061 A 
ATOM      4  C   UNL     1       5.762   3.678  -0.033  0.00  0.00    +0.017 A 
ATOM      5  C   UNL     1       6.839   4.536  -0.046  0.00  0.00    +0.026 A 
ATOM      6  C   UNL     1       8.131   4.020  -0.058  0.00  0.00    +0.062 A 
ATOM      7  C   UNL     1       8.326   2.645  -0.057  0.00  0.00    +0.135 A 
ATOM      8  C   UNL     1       7.264   1.778  -0.052  0.00  0.00    +0.046 A 
ATOM      9  S   UNL     1       9.993   2.065  -0.037  0.00  0.00    +0.102 S 
ATOM     10  O   UNL     1      10.370   1.841  -1.389  0.00  0.00    -0.146 OA
ATOM     11  O   UNL     1      10.072   1.058   0.961  0.00  0.00    -0.146 OA
ATOM     12  N   UNL     1      10.878   3.353   0.504  0.00  0.00    -0.118 NA
ATOM     13  C   UNL     1      10.423   4.580   0.446  0.00  0.00    +0.124 C 
ATOM     14  N   UNL     1       9.233   4.897  -0.102  0.00  0.00    -0.286 N 
ATOM     15  C   UNL     1       8.957   6.118  -0.837  0.00  0.00    +0.112 C 
ATOM     16  C   UNL     1      10.014   6.834  -1.553  0.00  0.00    +0.019 C 
ATOM     17  C   UNL     1      11.377   7.086  -1.023  0.00  0.00    +0.002 C 
ATOM     18  C   UNL     1      11.670   6.888   0.436  0.00  0.00    +0.008 C 
ATOM     19  C   UNL     1      11.314   5.593   1.019  0.00  0.00    +0.073 C 
ENDBRANCH   1   3
BRANCH   1  20
ATOM     20  O   UNL     1       3.553   1.878  -0.022  0.00  0.00    -0.452 OA
BRANCH  20  21
ATOM     21  C   UNL     1       2.462   0.920  -0.017  0.00  0.00    +0.328 C 
BRANCH  21  23
ATOM     22  N   UNL     1      -0.011   0.966   0.007  0.00  0.00    -0.306 N 
ATOM     23  C   UNL     1       1.147   1.655   0.000  0.00  0.00    +0.251 C 
ATOM     24  O   UNL     1       1.130   2.868   0.007  0.00  0.00    -0.272 OA
ATOM     25  H   UNL     1       0.004  -0.134   0.006  0.00  0.00    +0.149 HD
BRANCH  22  26
ATOM     26  C   UNL     1      -1.290   1.681   0.017  0.00  0.00    +0.100 C 
ATOM     27  C   UNL     1      -1.667   2.032   1.458  0.00  0.00    +0.033 C 
BRANCH  26  31
ATOM     28  C   UNL     1      -4.322  -0.800  -1.685  0.00  0.00    -0.048 A 
ATOM     29  C   UNL     1      -4.295   0.552  -1.970  0.00  0.00    +0.004 A 
ATOM     30  C   UNL     1      -3.313   1.355  -1.419  0.00  0.00    +0.006 A 
ATOM     31  C   UNL     1      -2.360   0.806  -0.583  0.00  0.00    -0.027 A 
ATOM     32  C   UNL     1      -2.384  -0.548  -0.302  0.00  0.00    +0.006 A 
ATOM     33  C   UNL     1      -3.368  -1.350  -0.848  0.00  0.00    +0.004 A 
BRANCH  28  35
ATOM     34  C   UNL     1      -4.904  -2.229  -3.626  0.00  0.00    +0.009 C 
ATOM     35  C   UNL     1      -5.391  -1.676  -2.285  0.00  0.00    +0.032 C 
ENDBRANCH  28  35
ENDBRANCH  26  31
ENDBRANCH  22  26
ENDBRANCH  21  23
ENDBRANCH  20  21
ENDBRANCH   1  20
TORSDOF 7
