REMARK  Name = ZINC28823510
REMARK  8 active torsions:
REMARK  status: ('A' for Active; 'I' for Inactive)
REMARK    1  A    between atoms: C_1  and  C_2
REMARK    2  A    between atoms: C_4  and  C_38
REMARK    3  A    between atoms: C_4  and  C_39
REMARK    4  A    between atoms: C_18  and  O_22
REMARK    5  A    between atoms: C_19  and  O_20
REMARK    6  A    between atoms: O_20  and  C_21
REMARK    7  A    between atoms: C_25  and  C_26
REMARK    8  A    between atoms: C_30  and  C_32
REMARK                            x       y       z     vdW  Elec       q    Type
REMARK                         _______ _______ _______ _____ _____    ______ ____
ROOT
ATOM      1  C   UNL     1      -0.821   6.914   1.332  0.00  0.00    +0.039 C 
ATOM      2  C   UNL     1      -2.100   6.268   0.895  0.00  0.00    -0.072 C 
ATOM      3  C   UNL     1      -3.231   6.911   1.067  0.00  0.00    -0.040 C 
ATOM      4  C   UNL     1      -4.587   6.375   0.728  0.00  0.00    -0.054 C 
ATOM      5  N   UNL     1      -4.578   4.948   0.380  0.00  0.00    +0.389 N 
ATOM      6  C   UNL     1      -3.408   4.276   0.957  0.00  0.00    -0.035 C 
ATOM      7  C   UNL     1      -2.166   4.888   0.300  0.00  0.00    +0.038 C 
ATOM      8  C   UNL     1      -0.955   4.045   0.452  0.00  0.00    +0.009 C 
ATOM      9  C   UNL     1      -1.042   2.783   0.997  0.00  0.00    -0.004 C 
ATOM     10  C   UNL     1      -2.336   2.089   0.969  0.00  0.00    +0.003 C 
ATOM     11  C   UNL     1      -3.460   2.794   0.825  0.00  0.00    -0.041 C 
ATOM     12  C   UNL     1       0.191   2.112   1.444  0.00  0.00    +0.070 A 
ATOM     13  C   UNL     1       1.421   2.768   1.256  0.00  0.00    +0.140 A 
ATOM     14  C   UNL     1       2.600   2.171   1.661  0.00  0.00    +0.051 A 
ATOM     15  C   UNL     1       2.581   0.924   2.257  0.00  0.00    +0.053 A 
ATOM     16  C   UNL     1       1.377   0.267   2.455  0.00  0.00    +0.159 A 
ATOM     17  C   UNL     1       0.180   0.856   2.051  0.00  0.00    +0.172 A 
ATOM     18  O   UNL     1       1.439   3.998   0.680  0.00  0.00    -0.455 OA
ATOM     19  C   UNL     1       0.332   4.464   0.055  0.00  0.00    +0.133 C 
ATOM     20  C   UNL     1       0.475   5.271  -1.032  0.00  0.00    +0.054 C 
ATOM     21  C   UNL     1      -5.152   7.167  -0.458  0.00  0.00    -0.006 C 
ATOM     22  C   UNL     1      -5.514   6.586   1.932  0.00  0.00    -0.006 C 
ATOM     23  H   UNL     1      -5.489   4.470   0.771  0.00  0.00    -0.084 HD
ATOM     24  H   UNL     1      -4.546   4.837  -0.714  0.00  0.00    -0.084 HD
ENDROOT
BRANCH  20  25
ATOM     25  C   UNL     1       1.813   5.716  -1.445  0.00  0.00    -0.021 A 
ATOM     26  C   UNL     1       2.926   5.432  -0.644  0.00  0.00    +0.008 A 
ATOM     27  C   UNL     1       4.182   5.847  -1.035  0.00  0.00    +0.001 A 
ATOM     28  C   UNL     1       4.349   6.554  -2.211  0.00  0.00    +0.008 A 
ATOM     29  C   UNL     1       3.248   6.849  -3.016  0.00  0.00    -0.016 A 
ATOM     30  C   UNL     1       1.978   6.431  -2.635  0.00  0.00    +0.016 A 
BRANCH  29  31
ATOM     31  C   UNL     1       3.433   7.607  -4.278  0.00  0.00    +0.000 A 
ATOM     32  C   UNL     1       4.705   8.033  -4.671  0.00  0.00    +0.011 A 
ATOM     33  C   UNL     1       4.824   8.736  -5.857  0.00  0.00    +0.020 A 
ATOM     34  C   UNL     1       3.691   8.994  -6.608  0.00  0.00    +0.111 A 
ATOM     35  N   UNL     1       2.504   8.580  -6.211  0.00  0.00    -0.263 NA
ATOM     36  C   UNL     1       2.342   7.902  -5.093  0.00  0.00    +0.119 A 
ENDBRANCH  29  31
ENDBRANCH  20  25
BRANCH  17  37
ATOM     37  O   UNL     1      -0.976   0.176   2.272  0.00  0.00    -0.491 OA
ATOM     38  C   UNL     1      -1.546   0.274   3.578  0.00  0.00    +0.277 C 
ENDBRANCH  17  37
BRANCH  16  39
ATOM     39  O   UNL     1       1.360  -0.958   3.049  0.00  0.00    -0.503 OA
ATOM     40  H   UNL     1       0.405  -1.480   3.206  0.00  0.00    +0.292 HD
ENDBRANCH  16  39
TORSDOF 4
