REMARK  Name = ZINC25244020
REMARK  7 active torsions:
REMARK  status: ('A' for Active; 'I' for Inactive)
REMARK    1  A    between atoms: C_1  and  N_2
REMARK    2  A    between atoms: N_2  and  C_3
REMARK    3  A    between atoms: N_2  and  S_9
REMARK    4  A    between atoms: S_9  and  C_12
REMARK    5  A    between atoms: C_15  and  S_18
REMARK    6  A    between atoms: S_18  and  C_19
REMARK    7  A    between atoms: C_19  and  C_20
REMARK                            x       y       z     vdW  Elec       q    Type
REMARK                         _______ _______ _______ _____ _____    ______ ____
ROOT
ATOM      1  C   UNL     1       1.682  -1.059  -1.905  0.00  0.00    +0.124 A 
ATOM      2  C   UNL     1       2.333  -0.109  -2.681  0.00  0.00    +0.032 A 
ATOM      3  C   UNL     1       3.654  -0.331  -3.027  0.00  0.00    +0.037 A 
ATOM      4  C   UNL     1       4.281  -1.494  -2.588  0.00  0.00    +0.097 A 
ATOM      5  N   UNL     1       3.625  -2.377  -1.851  0.00  0.00    -0.247 NA
ATOM      6  C   UNL     1       2.367  -2.187  -1.500  0.00  0.00    +0.140 A 
ENDROOT
BRANCH   1   7
ATOM      7  S   UNL     1      -0.000  -0.824  -1.437  0.00  0.00    +0.062 S 
ATOM      8  O   UNL     1      -0.531  -2.115  -1.167  0.00  0.00    -0.153 OA
ATOM      9  O   UNL     1      -0.572   0.049  -2.401  0.00  0.00    -0.153 OA
BRANCH   7  11
ATOM     10  C   UNL     1      -0.018   1.461   0.010  0.00  0.00    +0.132 C 
ATOM     11  N   UNL     1       0.002  -0.004   0.002  0.00  0.00    -0.177 NA
BRANCH  11  12
ATOM     12  C   UNL     1       0.024  -0.743   1.267  0.00  0.00    +0.080 C 
ATOM     13  C   UNL     1      -1.222  -0.395   2.083  0.00  0.00    +0.020 C 
ATOM     14  C   UNL     1      -1.199  -1.167   3.404  0.00  0.00    +0.002 C 
ATOM     15  C   UNL     1       0.052  -0.785   4.196  0.00  0.00    +0.000 C 
ATOM     16  C   UNL     1       1.299  -1.133   3.380  0.00  0.00    +0.002 C 
ATOM     17  C   UNL     1       1.276  -0.361   2.059  0.00  0.00    +0.020 C 
ENDBRANCH  11  12
ENDBRANCH   7  11
ENDBRANCH   1   7
BRANCH   4  18
ATOM     18  S   UNL     1       5.963  -1.794  -3.020  0.00  0.00    -0.098 S 
BRANCH  18  19
ATOM     19  C   UNL     1       6.337  -3.390  -2.244  0.00  0.00    +0.150 C 
BRANCH  19  20
ATOM     20  C   UNL     1       7.765  -3.770  -2.539  0.00  0.00    +0.121 A 
ATOM     21  N   UNL     1       8.257  -4.940  -2.055  0.00  0.00    -0.310 N 
ATOM     22  H   UNL     1       7.682  -5.515  -1.526  0.00  0.00    +0.170 HD
ATOM     23  C   UNL     1       9.527  -5.317  -2.294  0.00  0.00    +0.260 A 
ATOM     24  O   UNL     1       9.956  -6.370  -1.854  0.00  0.00    -0.267 OA
ATOM     25  C   UNL     1      10.366  -4.459  -3.077  0.00  0.00    +0.075 A 
ATOM     26  C   UNL     1      11.770  -4.667  -3.461  0.00  0.00    -0.023 A 
ATOM     27  C   UNL     1      12.345  -3.707  -4.205  0.00  0.00    -0.004 A 
ATOM     28  S   UNL     1      11.074  -2.486  -4.442  0.00  0.00    -0.073 S 
ATOM     29  C   UNL     1       9.771  -3.275  -3.533  0.00  0.00    +0.116 A 
ATOM     30  N   UNL     1       8.505  -2.971  -3.260  0.00  0.00    -0.226 NA
ATOM     31  C   UNL     1      13.780  -4.023  -4.532  0.00  0.00    +0.043 C 
ATOM     32  C   UNL     1      14.172  -5.127  -3.525  0.00  0.00    +0.010 C 
ATOM     33  C   UNL     1      12.805  -5.768  -3.214  0.00  0.00    +0.037 C 
ENDBRANCH  19  20
ENDBRANCH  18  19
ENDBRANCH   4  18
TORSDOF 6
