REMARK  Name = ZINC39951654
REMARK  5 active torsions:
REMARK  status: ('A' for Active; 'I' for Inactive)
REMARK    1  A    between atoms: C_1  and  O_2
REMARK    2  A    between atoms: O_2  and  C_3
REMARK    3  A    between atoms: C_3  and  C_5
REMARK    4  A    between atoms: C_8  and  O_12
REMARK    5  A    between atoms: C_10  and  O_11
REMARK                            x       y       z     vdW  Elec       q    Type
REMARK                         _______ _______ _______ _____ _____    ______ ____
ROOT
ATOM      1  C   UNL     1       0.659  -2.071  -1.122  0.00  0.00    +0.101 A 
ATOM      2  C   UNL     1       0.088  -2.849  -0.109  0.00  0.00    +0.036 A 
ATOM      3  C   UNL     1       0.144  -4.221  -0.183  0.00  0.00    +0.056 A 
ATOM      4  C   UNL     1       0.768  -4.840  -1.264  0.00  0.00    +0.133 A 
ATOM      5  C   UNL     1       1.336  -4.078  -2.273  0.00  0.00    +0.092 A 
ATOM      6  C   UNL     1       1.281  -2.696  -2.213  0.00  0.00    +0.134 A 
ATOM      7  I   UNL     1      -0.710  -5.385   1.335  0.00  0.00    -0.040 I 
ENDROOT
BRANCH   1   8
ATOM      8  C   UNL     1       0.601  -0.602  -1.047  0.00  0.00    +0.343 C 
ATOM      9  O   UNL     1       1.093   0.071  -1.931  0.00  0.00    -0.245 OA
BRANCH   8  11
ATOM     10  C   UNL     1      -0.017   1.425   0.010  0.00  0.00    +0.280 C 
ATOM     11  O   UNL     1       0.002  -0.004   0.002  0.00  0.00    -0.464 OA
ENDBRANCH   8  11
ENDBRANCH   1   8
BRANCH   6  12
ATOM     12  O   UNL     1       1.832  -1.950  -3.203  0.00  0.00    -0.506 OA
ATOM     13  H   UNL     1       2.761  -1.725  -3.055  0.00  0.00    +0.292 HD
ENDBRANCH   6  12
BRANCH   4  14
ATOM     14  O   UNL     1       0.819  -6.195  -1.329  0.00  0.00    -0.506 OA
ATOM     15  H   UNL     1       0.067  -6.596  -1.786  0.00  0.00    +0.292 HD
ENDBRANCH   4  14
TORSDOF 4
