REMARK  Name = ZINC63491419
REMARK  6 active torsions:
REMARK  status: ('A' for Active; 'I' for Inactive)
REMARK    1  A    between atoms: C_1  and  C_2
REMARK    2  A    between atoms: C_2  and  N_3
REMARK    3  A    between atoms: C_5  and  C_17
REMARK    4  A    between atoms: N_19  and  C_20
REMARK    5  A    between atoms: C_20  and  C_21
REMARK    6  A    between atoms: C_26  and  C_29
REMARK                            x       y       z     vdW  Elec       q    Type
REMARK                         _______ _______ _______ _____ _____    ______ ____
ROOT
ATOM      1  C   UNL     1      -2.990  -2.842   2.382  0.00  0.00    +0.246 C 
ATOM      2  O   UNL     1      -3.573  -3.910   2.329  0.00  0.00    -0.270 OA
ATOM      3  N   UNL     1      -2.540  -2.378   3.565  0.00  0.00    -0.303 N 
ATOM      4  H   UNL     1      -2.076  -1.527   3.607  0.00  0.00    +0.150 HD
ENDROOT
BRANCH   1   7
ATOM      5  N   UNL     1      -1.372  -0.511   0.012  0.00  0.00    -0.325 N 
ATOM      6  C   UNL     1      -2.065  -0.771   1.280  0.00  0.00    +0.149 C 
ATOM      7  C   UNL     1      -2.787  -2.092   1.208  0.00  0.00    +0.079 C 
ATOM      8  C   UNL     1      -3.244  -2.567   0.013  0.00  0.00    +0.198 C 
ATOM      9  O   UNL     1      -3.911  -3.743  -0.044  0.00  0.00    -0.287 OA
ATOM     10  C   UNL     1      -3.006  -1.787  -1.211  0.00  0.00    +0.047 A 
ATOM     11  C   UNL     1      -2.050  -0.751  -1.181  0.00  0.00    +0.045 A 
ATOM     12  C   UNL     1      -1.802  -0.002  -2.316  0.00  0.00    +0.073 A 
ATOM     13  C   UNL     1      -2.502  -0.266  -3.485  0.00  0.00    +0.168 A 
ATOM     14  C   UNL     1      -3.456  -1.286  -3.520  0.00  0.00    +0.167 A 
ATOM     15  C   UNL     1      -3.706  -2.052  -2.389  0.00  0.00    +0.063 A 
ATOM     16  O   UNL     1      -3.995  -1.333  -4.775  0.00  0.00    -0.453 OA
ATOM     17  C   UNL     1      -3.656  -0.074  -5.386  0.00  0.00    +0.466 C 
ATOM     18  O   UNL     1      -2.444   0.317  -4.716  0.00  0.00    -0.453 OA
BRANCH   5  20
ATOM     19  C   UNL     1      -0.019   1.526   0.010  0.00  0.00    +0.024 C 
ATOM     20  C   UNL     1       0.002  -0.004   0.002  0.00  0.00    +0.102 C 
ENDBRANCH   5  20
ENDBRANCH   1   7
BRANCH   3  21
ATOM     21  C   UNL     1      -2.752  -3.158   4.787  0.00  0.00    +0.200 C 
BRANCH  21  22
ATOM     22  C   UNL     1      -2.158  -2.424   5.961  0.00  0.00    +0.233 C 
ATOM     23  O   UNL     1      -1.611  -1.354   5.794  0.00  0.00    -0.274 OA
ATOM     24  N   UNL     1      -2.234  -2.956   7.197  0.00  0.00    -0.300 N 
ATOM     25  C   UNL     1      -2.887  -4.253   7.414  0.00  0.00    +0.108 C 
ATOM     26  C   UNL     1      -3.956  -4.092   8.500  0.00  0.00    +0.026 C 
ATOM     27  C   UNL     1      -3.316  -3.492   9.754  0.00  0.00    +0.035 C 
ATOM     28  C   UNL     1      -2.747  -2.110   9.428  0.00  0.00    +0.026 C 
ATOM     29  C   UNL     1      -1.659  -2.252   8.352  0.00  0.00    +0.108 C 
BRANCH  27  30
ATOM     30  C   UNL     1      -4.373  -3.361  10.853  0.00  0.00    +0.177 C 
ATOM     31  N   UNL     1      -3.759  -2.855  12.086  0.00  0.00    -0.363 N 
ATOM     32  C   UNL     1      -3.931  -3.758  13.008  0.00  0.00    +0.060 A 
ATOM     33  C   UNL     1      -3.546  -3.826  14.424  0.00  0.00    +0.027 A 
ATOM     34  C   UNL     1      -3.869  -4.916  15.149  0.00  0.00    +0.002 A 
ATOM     35  C   UNL     1      -4.568  -6.008  14.606  0.00  0.00    +0.002 A 
ATOM     36  C   UNL     1      -4.968  -6.048  13.319  0.00  0.00    +0.027 A 
ATOM     37  C   UNL     1      -4.672  -4.914  12.433  0.00  0.00    +0.060 A 
ATOM     38  N   UNL     1      -4.928  -4.681  11.178  0.00  0.00    -0.363 N 
ATOM     39  H   UNL     1      -3.306  -2.004  12.194  0.00  0.00    +0.162 HD
ATOM     40  H   UNL     1      -5.400  -5.272  10.570  0.00  0.00    +0.162 HD
ENDBRANCH  27  30
ENDBRANCH  21  22
ENDBRANCH   3  21
TORSDOF 5
