REMARK  Name = ZINC34998415
REMARK  12 active torsions:
REMARK  status: ('A' for Active; 'I' for Inactive)
REMARK    1  A    between atoms: C_1  and  C_2
REMARK    2  A    between atoms: C_2  and  C_3
REMARK    3  A    between atoms: C_3  and  C_4
REMARK    4  A    between atoms: C_4  and  N_5
REMARK    5  A    between atoms: C_13  and  C_15
REMARK    6  A    between atoms: C_16  and  C_18
REMARK    7  A    between atoms: C_18  and  C_20
REMARK    8  A    between atoms: C_18  and  N_23
REMARK    9  A    between atoms: C_20  and  C_21
REMARK   10  A    between atoms: C_20  and  C_22
REMARK   11  A    between atoms: N_23  and  S_24
REMARK   12  A    between atoms: S_24  and  C_27
REMARK                            x       y       z     vdW  Elec       q    Type
REMARK                         _______ _______ _______ _____ _____    ______ ____
ROOT
ATOM      1  N   UNL     1       5.289  -3.539  -2.611  0.00  0.00    -0.299 N 
ATOM      2  C   UNL     1       4.307  -4.434  -2.835  0.00  0.00    +0.303 C 
ATOM      3  O   UNL     1       3.655  -4.866  -1.904  0.00  0.00    -0.253 OA
ATOM      4  N   UNL     1       4.047  -4.850  -4.090  0.00  0.00    -0.280 N 
ATOM      5  C   UNL     1       4.876  -4.395  -5.216  0.00  0.00    +0.128 C 
ATOM      6  C   UNL     1       3.963  -3.760  -6.272  0.00  0.00    +0.127 C 
ATOM      7  N   UNL     1       2.847  -4.677  -6.540  0.00  0.00    -0.297 N 
ATOM      8  C   UNL     1       2.018  -5.132  -5.415  0.00  0.00    +0.130 C 
ATOM      9  C   UNL     1       2.934  -5.771  -4.358  0.00  0.00    +0.092 C 
ATOM     10  C   UNL     1       2.145  -6.012  -3.069  0.00  0.00    +0.030 C 
ATOM     11  C   UNL     1       2.587  -5.093  -7.795  0.00  0.00    +0.235 C 
ATOM     12  O   UNL     1       1.639  -5.818  -8.010  0.00  0.00    -0.274 OA
ATOM     13  H   UNL     1       5.859  -3.251  -3.342  0.00  0.00    +0.150 HD
ENDROOT
BRANCH   1  14
ATOM     14  C   UNL     1       5.497  -3.000  -1.265  0.00  0.00    +0.106 C 
BRANCH  14  15
ATOM     15  C   UNL     1       6.665  -2.013  -1.285  0.00  0.00    +0.018 C 
BRANCH  15  17
ATOM     16  C   UNL     1       8.050  -0.462   0.101  0.00  0.00    +0.004 C 
ATOM     17  C   UNL     1       6.882  -1.450   0.121  0.00  0.00    -0.002 C 
ENDBRANCH  15  17
ENDBRANCH  14  15
ENDBRANCH   1  14
BRANCH  11  18
ATOM     18  C   UNL     1       3.475  -4.657  -8.932  0.00  0.00    +0.165 C 
BRANCH  18  19
ATOM     19  C   UNL     1       4.535  -5.729  -9.191  0.00  0.00    +0.010 C 
ATOM     20  C   UNL     1       5.375  -5.931  -7.928  0.00  0.00    +0.009 C 
ATOM     21  C   UNL     1       3.850  -7.045  -9.563  0.00  0.00    +0.009 C 
ENDBRANCH  18  19
BRANCH  18  22
ATOM     22  N   UNL     1       2.666  -4.469 -10.139  0.00  0.00    -0.178 NA
ATOM     23  H   UNL     1       2.038  -5.155 -10.414  0.00  0.00    +0.149 HD
BRANCH  22  24
ATOM     24  S   UNL     1       2.824  -3.085 -11.034  0.00  0.00    +0.059 S 
ATOM     25  O   UNL     1       2.006  -3.250 -12.185  0.00  0.00    -0.153 OA
ATOM     26  O   UNL     1       2.662  -1.998 -10.134  0.00  0.00    -0.153 OA
BRANCH  24  27
ATOM     27  C   UNL     1       4.490  -3.022 -11.606  0.00  0.00    +0.105 A 
ATOM     28  C   UNL     1       5.466  -2.433 -10.824  0.00  0.00    +0.029 A 
ATOM     29  C   UNL     1       6.773  -2.384 -11.272  0.00  0.00    +0.017 A 
ATOM     30  C   UNL     1       7.104  -2.923 -12.502  0.00  0.00    +0.018 A 
ATOM     31  C   UNL     1       6.126  -3.511 -13.284  0.00  0.00    +0.017 A 
ATOM     32  C   UNL     1       4.821  -3.565 -12.833  0.00  0.00    +0.029 A 
ATOM     33 BR   UNL     1       8.891  -2.855 -13.115  0.00  0.00    -0.050 Br
ENDBRANCH  24  27
ENDBRANCH  22  24
ENDBRANCH  18  22
ENDBRANCH  11  18
TORSDOF 8
