REMARK  Name = ZINC12553688
REMARK  7 active torsions:
REMARK  status: ('A' for Active; 'I' for Inactive)
REMARK    1  A    between atoms: C_1  and  N_2
REMARK    2  A    between atoms: C_11  and  C_12
REMARK    3  A    between atoms: C_11  and  C_14
REMARK    4  A    between atoms: C_14  and  C_16
REMARK    5  A    between atoms: C_16  and  O_17
REMARK    6  A    between atoms: O_17  and  C_18
REMARK    7  A    between atoms: C_21  and  C_24
REMARK                            x       y       z     vdW  Elec       q    Type
REMARK                         _______ _______ _______ _____ _____    ______ ____
ROOT
ATOM      1  C   UNL     1       3.463   3.239  -0.188  0.00  0.00    +0.213 C 
ATOM      2  O   UNL     1       2.505   3.953   0.033  0.00  0.00    -0.288 OA
ENDROOT
BRANCH   1  13
ATOM      3  C   UNL     1       3.081   3.099   2.483  0.00  0.00    +0.136 C 
ATOM      4  N   UNL     1       2.840   1.673   2.244  0.00  0.00    -0.296 N 
ATOM      5  C   UNL     1       2.486   0.848   3.294  0.00  0.00    +0.048 A 
ATOM      6  C   UNL     1       2.316   1.184   4.647  0.00  0.00    +0.024 A 
ATOM      7  C   UNL     1       1.954   0.230   5.567  0.00  0.00    +0.002 A 
ATOM      8  C   UNL     1       1.757  -1.090   5.194  0.00  0.00    +0.001 A 
ATOM      9  C   UNL     1       1.923  -1.450   3.869  0.00  0.00    +0.017 A 
ATOM     10  C   UNL     1       2.280  -0.495   2.946  0.00  0.00    +0.035 A 
ATOM     11  S   UNL     1       2.590  -0.514   1.198  0.00  0.00    -0.071 S 
ATOM     12  C   UNL     1       2.964   1.167   0.990  0.00  0.00    +0.094 C 
ATOM     13  C   UNL     1       3.312   1.843  -0.195  0.00  0.00    +0.126 C 
BRANCH  13  14
ATOM     14  C   UNL     1       3.512   1.107  -1.407  0.00  0.00    +0.105 C 
ATOM     15  N   UNL     1       3.671   0.523  -2.368  0.00  0.00    -0.191 NA
ENDBRANCH  13  14
ENDBRANCH   1  13
BRANCH   1  16
ATOM     16  C   UNL     1       4.814   3.852  -0.453  0.00  0.00    +0.309 C 
BRANCH  16  17
ATOM     17  O   UNL     1       4.712   5.276  -0.392  0.00  0.00    -0.484 OA
BRANCH  17  18
ATOM     18  C   UNL     1       5.849   5.986  -0.611  0.00  0.00    +0.121 A 
ATOM     19  C   UNL     1       7.040   5.322  -0.873  0.00  0.00    +0.046 A 
ATOM     20  C   UNL     1       8.195   6.039  -1.101  0.00  0.00    +0.017 A 
ATOM     21  C   UNL     1       8.168   7.434  -1.057  0.00  0.00    +0.039 A 
ATOM     22  C   UNL     1       6.970   8.098  -0.787  0.00  0.00    +0.017 A 
ATOM     23  C   UNL     1       5.818   7.374  -0.566  0.00  0.00    +0.046 A 
BRANCH  21  24
ATOM     24  C   UNL     1       9.405   8.207  -1.294  0.00  0.00    +0.248 A 
ATOM     25  N   UNL     1       9.521   9.514  -1.282  0.00  0.00    -0.108 NA
ATOM     26  N   UNL     1      10.743   9.834  -1.528  0.00  0.00    -0.116 NA
ATOM     27  C   UNL     1      11.449   8.753  -1.706  0.00  0.00    +0.332 A 
ATOM     28  O   UNL     1      10.626   7.700  -1.559  0.00  0.00    -0.423 OA
ENDBRANCH  21  24
ENDBRANCH  17  18
ENDBRANCH  16  17
ENDBRANCH   1  16
TORSDOF 6
