REMARK  Name = ZINC35229947
REMARK  10 active torsions:
REMARK  status: ('A' for Active; 'I' for Inactive)
REMARK    1  A    between atoms: C_1  and  C_2
REMARK    2  A    between atoms: C_2  and  C_3
REMARK    3  A    between atoms: C_3  and  C_4
REMARK    4  A    between atoms: C_4  and  N_5
REMARK    5  A    between atoms: C_6  and  C_30
REMARK    6  A    between atoms: C_14  and  C_20
REMARK    7  A    between atoms: N_22  and  C_23
REMARK    8  A    between atoms: N_32  and  C_33
REMARK    9  A    between atoms: C_38  and  C_43
REMARK   10  A    between atoms: C_40  and  C_42
REMARK                            x       y       z     vdW  Elec       q    Type
REMARK                         _______ _______ _______ _____ _____    ______ ____
ROOT
ATOM      1  N   UNL     1       1.019  -3.047  -2.560  0.00  0.00    -0.287 N 
ATOM      2  C   UNL     1       0.483  -3.292  -3.936  0.00  0.00    +0.198 C 
ATOM      3  C   UNL     1       1.572  -4.117  -4.549  0.00  0.00    +0.127 C 
ATOM      4  C   UNL     1       1.634  -5.524  -3.984  0.00  0.00    +0.009 C 
ATOM      5  C   UNL     1       2.628  -6.125  -4.623  0.00  0.00    +0.004 C 
ATOM      6  C   UNL     1       3.216  -5.048  -5.543  0.00  0.00    +0.155 C 
ATOM      7  O   UNL     1       2.000  -4.259  -5.883  0.00  0.00    -0.358 OA
ATOM      8  C   UNL     1       3.968  -4.111  -4.521  0.00  0.00    +0.123 C 
ATOM      9  C   UNL     1       2.796  -3.291  -3.982  0.00  0.00    +0.128 C 
ATOM     10  C   UNL     1       2.389  -3.146  -2.573  0.00  0.00    +0.223 C 
ATOM     11  O   UNL     1       3.124  -3.121  -1.609  0.00  0.00    -0.275 OA
ENDROOT
BRANCH   8  12
ATOM     12  C   UNL     1       4.632  -4.918  -3.435  0.00  0.00    +0.224 C 
ATOM     13  O   UNL     1       4.305  -4.763  -2.278  0.00  0.00    -0.275 OA
ATOM     14  N   UNL     1       5.590  -5.813  -3.751  0.00  0.00    -0.285 N 
ATOM     15  H   UNL     1       5.799  -5.992  -4.681  0.00  0.00    +0.155 HD
BRANCH  14  16
ATOM     16  C   UNL     1       6.284  -6.482  -2.736  0.00  0.00    +0.033 A 
ATOM     17  C   UNL     1       6.719  -7.786  -2.934  0.00  0.00    +0.025 A 
ATOM     18  C   UNL     1       7.404  -8.444  -1.931  0.00  0.00    +0.022 A 
ATOM     19  C   UNL     1       7.656  -7.806  -0.730  0.00  0.00    +0.041 A 
ATOM     20  C   UNL     1       7.223  -6.506  -0.530  0.00  0.00    +0.022 A 
ATOM     21  C   UNL     1       6.544  -5.842  -1.531  0.00  0.00    +0.025 A 
ATOM     22 CL   UNL     1       8.516  -8.636   0.529  0.00  0.00    -0.084 Cl
ENDBRANCH  14  16
ENDBRANCH   8  12
BRANCH   2  23
ATOM     23  C   UNL     1       0.304  -1.995  -4.683  0.00  0.00    +0.237 C 
ATOM     24  O   UNL     1       0.880  -0.995  -4.309  0.00  0.00    -0.274 OA
ATOM     25  N   UNL     1      -0.496  -1.947  -5.766  0.00  0.00    -0.311 N 
ATOM     26  H   UNL     1      -0.957  -2.747  -6.065  0.00  0.00    +0.149 HD
BRANCH  25  27
ATOM     27  C   UNL     1      -0.671  -0.686  -6.492  0.00  0.00    +0.076 C 
ATOM     28  C   UNL     1      -1.772   0.139  -5.824  0.00  0.00    +0.022 C 
ATOM     29  C   UNL     1      -1.954   1.455  -6.582  0.00  0.00    +0.002 C 
ATOM     30  C   UNL     1      -2.347   1.159  -8.031  0.00  0.00    +0.003 C 
ATOM     31  C   UNL     1      -1.246   0.334  -8.699  0.00  0.00    -0.009 C 
ATOM     32  C   UNL     1      -1.064  -0.982  -7.941  0.00  0.00    +0.009 C 
ATOM     33  C   UNL     1      -2.376  -1.770  -7.963  0.00  0.00    +0.009 C 
ATOM     34  C   UNL     1      -1.639   0.038 -10.148  0.00  0.00    +0.008 C 
ENDBRANCH  25  27
ENDBRANCH   2  23
BRANCH   1  35
ATOM     35  C   UNL     1       0.206  -2.742  -1.380  0.00  0.00    +0.108 C 
BRANCH  35  36
ATOM     36  C   UNL     1       0.022  -1.227  -1.265  0.00  0.00    +0.019 C 
BRANCH  36  38
ATOM     37  C   UNL     1      -1.010   0.606   0.083  0.00  0.00    +0.004 C 
ATOM     38  C   UNL     1      -0.827  -0.909  -0.033  0.00  0.00    -0.002 C 
ENDBRANCH  36  38
ENDBRANCH  35  36
ENDBRANCH   1  35
TORSDOF 7
