REMARK  Name = ZINC39597892
REMARK  7 active torsions:
REMARK  status: ('A' for Active; 'I' for Inactive)
REMARK    1  A    between atoms: C_1  and  O_2
REMARK    2  A    between atoms: O_2  and  C_3
REMARK    3  A    between atoms: C_6  and  C_10
REMARK    4  A    between atoms: C_14  and  C_23
REMARK    5  A    between atoms: N_25  and  C_26
REMARK    6  A    between atoms: C_26  and  C_27
REMARK    7  A    between atoms: C_27  and  C_28
REMARK                            x       y       z     vdW  Elec       q    Type
REMARK                         _______ _______ _______ _____ _____    ______ ____
ROOT
ATOM      1  C   UNL     1       2.493  -2.496  -4.367  0.00  0.00    +0.247 C 
ATOM      2  O   UNL     1       1.830  -2.870  -5.315  0.00  0.00    -0.270 OA
ATOM      3  N   UNL     1       3.825  -2.696  -4.355  0.00  0.00    -0.296 N 
ATOM      4  C   UNL     1       4.774  -2.430  -3.248  0.00  0.00    +0.121 C 
ATOM      5  C   UNL     1       5.762  -3.617  -3.287  0.00  0.00    +0.100 C 
ATOM      6  C   UNL     1       5.693  -4.137  -4.733  0.00  0.00    -0.004 C 
ATOM      7  C   UNL     1       4.673  -3.237  -5.444  0.00  0.00    +0.115 C 
ATOM      8  C   UNL     1       5.213  -5.585  -4.751  0.00  0.00    -0.010 C 
ATOM      9  C   UNL     1       5.208  -6.098  -6.194  0.00  0.00    -0.082 C 
ATOM     10  N   UNL     1       6.561  -6.003  -6.754  0.00  0.00    +0.379 N 
ATOM     11  C   UNL     1       6.979  -4.597  -6.819  0.00  0.00    -0.082 C 
ATOM     12  C   UNL     1       7.059  -4.021  -5.402  0.00  0.00    -0.010 C 
ATOM     13  H   UNL     1       7.203  -6.516  -6.169  0.00  0.00    -0.086 HD
ATOM     14  H   UNL     1       6.568  -6.397  -7.683  0.00  0.00    -0.086 HD
ENDROOT
BRANCH   1  18
ATOM     15  C   UNL     1       0.607  -0.558  -1.090  0.00  0.00    +0.157 A 
ATOM     16  C   UNL     1      -0.125  -1.419  -1.901  0.00  0.00    +0.085 A 
ATOM     17  C   UNL     1       0.484  -2.049  -2.965  0.00  0.00    +0.036 A 
ATOM     18  C   UNL     1       1.837  -1.822  -3.228  0.00  0.00    +0.040 A 
ATOM     19  C   UNL     1       2.569  -0.956  -2.412  0.00  0.00    +0.036 A 
ATOM     20  C   UNL     1       1.952  -0.326  -1.352  0.00  0.00    +0.085 A 
ATOM     21 CL   UNL     1       2.858   0.755  -0.341  0.00  0.00    -0.080 Cl
ATOM     22 CL   UNL     1      -1.806  -1.701  -1.573  0.00  0.00    -0.080 Cl
BRANCH  15  24
ATOM     23  C   UNL     1      -0.600   1.330  -0.301  0.00  0.00    +0.277 C 
ATOM     24  O   UNL     1       0.004   0.061  -0.043  0.00  0.00    -0.492 OA
ENDBRANCH  15  24
ENDBRANCH   1  18
BRANCH   5  25
ATOM     25  C   UNL     1       5.333  -4.690  -2.320  0.00  0.00    +0.218 C 
ATOM     26  O   UNL     1       4.153  -4.902  -2.134  0.00  0.00    -0.275 OA
ATOM     27  N   UNL     1       6.259  -5.414  -1.662  0.00  0.00    -0.315 N 
ATOM     28  H   UNL     1       7.203  -5.245  -1.810  0.00  0.00    +0.149 HD
BRANCH  27  29
ATOM     29  C   UNL     1       5.842  -6.457  -0.722  0.00  0.00    +0.109 C 
BRANCH  29  30
ATOM     30  C   UNL     1       7.079  -7.122  -0.115  0.00  0.00    +0.056 C 
BRANCH  30  31
ATOM     31  C   UNL     1       6.649  -8.195   0.852  0.00  0.00    -0.021 A 
ATOM     32  C   UNL     1       6.306  -9.581   0.521  0.00  0.00    +0.003 A 
ATOM     33  C   UNL     1       6.262 -10.312  -0.668  0.00  0.00    +0.010 A 
ATOM     34  C   UNL     1       5.891 -11.627  -0.642  0.00  0.00    +0.001 A 
ATOM     35  C   UNL     1       5.558 -12.242   0.557  0.00  0.00    +0.002 A 
ATOM     36  C   UNL     1       5.595 -11.539   1.742  0.00  0.00    +0.026 A 
ATOM     37  C   UNL     1       5.970 -10.200   1.739  0.00  0.00    +0.047 A 
ATOM     38  N   UNL     1       6.103  -9.250   2.727  0.00  0.00    -0.360 N 
ATOM     39  C   UNL     1       6.514  -8.065   2.181  0.00  0.00    +0.087 A 
ATOM     40  H   UNL     1       5.934  -9.400   3.671  0.00  0.00    +0.165 HD
ENDBRANCH  30  31
ENDBRANCH  29  30
ENDBRANCH  27  29
ENDBRANCH   5  25
TORSDOF 6
