REMARK  Name = ZINC16007123
REMARK  4 active torsions:
REMARK  status: ('A' for Active; 'I' for Inactive)
REMARK    1  A    between atoms: C_21  and  C_32
REMARK    2  A    between atoms: C_23  and  C_25
REMARK    3  A    between atoms: C_25  and  C_27
REMARK    4  A    between atoms: C_32  and  C_34
REMARK                            x       y       z     vdW  Elec       q    Type
REMARK                         _______ _______ _______ _____ _____    ______ ____
ROOT
ATOM      1  C   UNL     1      -0.961   3.549   0.081  0.00  0.00    +0.001 A 
ATOM      2  C   UNL     1      -1.022   2.171  -0.026  0.00  0.00    +0.000 A 
ATOM      3  C   UNL     1       0.141   1.419  -0.038  0.00  0.00    +0.006 A 
ATOM      4  C   UNL     1       1.363   2.044   0.046  0.00  0.00    -0.020 A 
ATOM      5  C   UNL     1       1.437   3.439   0.145  0.00  0.00    -0.019 A 
ATOM      6  C   UNL     1       0.259   4.188   0.163  0.00  0.00    +0.008 A 
ATOM      7  C   UNL     1       2.749   4.114   0.226  0.00  0.00    +0.022 C 
ATOM      8  C   UNL     1       3.838   3.399   0.578  0.00  0.00    +0.054 C 
ATOM      9  C   UNL     1       2.646   1.254   0.046  0.00  0.00    +0.107 C 
ATOM     10  C   UNL     1       2.495  -0.070   0.790  0.00  0.00    +0.107 C 
ATOM     11  C   UNL     1       1.369  -0.064   1.762  0.00  0.00    -0.008 A 
ATOM     12  C   UNL     1       1.086   0.742   2.845  0.00  0.00    +0.006 A 
ATOM     13  C   UNL     1      -0.080   0.468   3.551  0.00  0.00    +0.000 A 
ATOM     14  C   UNL     1      -0.916  -0.567   3.183  0.00  0.00    +0.002 A 
ATOM     15  C   UNL     1      -0.640  -1.383   2.098  0.00  0.00    +0.023 A 
ATOM     16  C   UNL     1       0.527  -1.119   1.379  0.00  0.00    +0.038 A 
ATOM     17  N   UNL     1       1.042  -1.766   0.269  0.00  0.00    -0.284 N 
ATOM     18  C   UNL     1       2.204  -1.213  -0.146  0.00  0.00    +0.231 C 
ATOM     19  O   UNL     1       2.880  -1.569  -1.088  0.00  0.00    -0.274 OA
ATOM     20  C   UNL     1       3.862  -0.253   1.482  0.00  0.00    +0.108 C 
ATOM     21  C   UNL     1       4.225   1.208   1.857  0.00  0.00    +0.143 C 
ATOM     22  H   UNL     1       0.618  -2.526  -0.161  0.00  0.00    +0.155 HD
ATOM     23  N   UNL     1       3.833   1.878   0.581  0.00  0.00    -0.383 NA
ATOM     24  H   UNL     1       4.576   1.629  -0.083  0.00  0.00    +0.127 HD
ENDROOT
BRANCH  21  25
ATOM     25  C   UNL     1       5.722   1.384   1.872  0.00  0.00    +0.217 C 
ATOM     26  O   UNL     1       6.277   1.940   0.946  0.00  0.00    -0.287 OA
BRANCH  25  27
ATOM     27  C   UNL     1       6.479   0.901   2.963  0.00  0.00    +0.172 A 
ATOM     28  C   UNL     1       7.849   0.994   3.107  0.00  0.00    +0.053 A 
ATOM     29  C   UNL     1       8.163   0.388   4.331  0.00  0.00    +0.042 A 
ATOM     30  C   UNL     1       7.001  -0.041   4.875  0.00  0.00    +0.196 A 
ATOM     31  O   UNL     1       5.992   0.273   4.054  0.00  0.00    -0.460 OA
ENDBRANCH  25  27
ENDBRANCH  21  25
BRANCH  20  32
ATOM     32  C   UNL     1       4.876  -0.833   0.530  0.00  0.00    +0.170 C 
ATOM     33  O   UNL     1       5.387  -0.129  -0.314  0.00  0.00    -0.292 OA
BRANCH  32  34
ATOM     34  C   UNL     1       5.245  -2.254   0.626  0.00  0.00    +0.018 A 
ATOM     35  C   UNL     1       4.661  -3.068   1.602  0.00  0.00    +0.013 A 
ATOM     36  C   UNL     1       5.008  -4.399   1.683  0.00  0.00    +0.020 A 
ATOM     37  C   UNL     1       5.941  -4.929   0.805  0.00  0.00    +0.041 A 
ATOM     38  C   UNL     1       6.527  -4.128  -0.161  0.00  0.00    +0.020 A 
ATOM     39  C   UNL     1       6.186  -2.796  -0.256  0.00  0.00    +0.013 A 
ATOM     40 CL   UNL     1       6.376  -6.606   0.918  0.00  0.00    -0.084 Cl
ENDBRANCH  32  34
ENDBRANCH  20  32
TORSDOF 4
