REMARK  Name = ZINC34087012
REMARK  9 active torsions:
REMARK  status: ('A' for Active; 'I' for Inactive)
REMARK    1  A    between atoms: C_1  and  C_2
REMARK    2  A    between atoms: C_2  and  O_3
REMARK    3  A    between atoms: O_3  and  C_4
REMARK    4  A    between atoms: C_4  and  C_6
REMARK    5  A    between atoms: C_7  and  C_21
REMARK    6  A    between atoms: C_12  and  C_14
REMARK    7  A    between atoms: C_21  and  N_22
REMARK    8  A    between atoms: C_30  and  C_32
REMARK    9  A    between atoms: C_30  and  O_39
REMARK                            x       y       z     vdW  Elec       q    Type
REMARK                         _______ _______ _______ _____ _____    ______ ____
ROOT
ATOM      1  C   UNL     1       1.356  -2.335  -2.514  0.00  0.00    +0.076 C 
ATOM      2  C   UNL     1       1.628  -3.654  -2.615  0.00  0.00    +0.008 C 
ATOM      3  N   UNL     1       2.325  -4.151  -3.679  0.00  0.00    -0.274 N 
ATOM      4  C   UNL     1       2.787  -3.395  -4.683  0.00  0.00    +0.304 C 
ATOM      5  O   UNL     1       3.398  -3.929  -5.588  0.00  0.00    -0.252 OA
ATOM      6  N   UNL     1       2.595  -2.062  -4.723  0.00  0.00    -0.288 N 
ATOM      7  C   UNL     1       1.847  -1.428  -3.624  0.00  0.00    +0.143 C 
ATOM      8  H   UNL     1       2.496  -5.106  -3.708  0.00  0.00    +0.156 HD
ATOM      9  H   UNL     1       2.938  -1.533  -5.460  0.00  0.00    +0.151 HD
ENDROOT
BRANCH   7  10
ATOM     10  C   UNL     1       0.651  -0.726  -4.214  0.00  0.00    -0.022 A 
ATOM     11  C   UNL     1      -0.157  -1.383  -5.123  0.00  0.00    +0.007 A 
ATOM     12  C   UNL     1      -1.254  -0.740  -5.664  0.00  0.00    +0.020 A 
ATOM     13  C   UNL     1      -1.544   0.561  -5.296  0.00  0.00    +0.041 A 
ATOM     14  C   UNL     1      -0.734   1.219  -4.387  0.00  0.00    +0.020 A 
ATOM     15  C   UNL     1       0.359   0.573  -3.842  0.00  0.00    +0.007 A 
ATOM     16 CL   UNL     1      -2.921   1.370  -5.976  0.00  0.00    -0.084 Cl
ENDBRANCH   7  10
BRANCH   1  17
ATOM     17  C   UNL     1       0.633  -1.819  -1.414  0.00  0.00    +0.339 C 
ATOM     18  O   UNL     1      -0.550  -1.560  -1.530  0.00  0.00    -0.245 OA
BRANCH  17  19
ATOM     19  O   UNL     1       1.256  -1.614  -0.234  0.00  0.00    -0.462 OA
BRANCH  19  21
ATOM     20  C   UNL     1       1.336  -0.926   2.081  0.00  0.00    +0.048 C 
ATOM     21  C   UNL     1       0.465  -1.090   0.835  0.00  0.00    +0.229 C 
ENDBRANCH  19  21
ENDBRANCH  17  19
ENDBRANCH   1  17
BRANCH   2  22
ATOM     22  C   UNL     1       1.153  -4.593  -1.536  0.00  0.00    -0.026 C 
BRANCH  22  23
ATOM     23  N   UNL     1       0.182  -5.539  -2.102  0.00  0.00    +0.387 N 
ATOM     24  C   UNL     1      -1.097  -4.850  -2.418  0.00  0.00    -0.065 C 
ATOM     25  C   UNL     1      -1.786  -4.678  -1.045  0.00  0.00    -0.017 C 
ATOM     26  C   UNL     1      -1.202  -5.803  -0.166  0.00  0.00    -0.017 C 
ATOM     27  C   UNL     1      -0.213  -6.553  -1.088  0.00  0.00    -0.065 C 
ATOM     28  C   UNL     1      -0.997  -7.651  -1.824  0.00  0.00    +0.024 C 
ATOM     29  C   UNL     1      -2.284  -7.046  -2.392  0.00  0.00    +0.088 C 
ATOM     30  C   UNL     1      -1.939  -5.819  -3.264  0.00  0.00    +0.024 C 
ATOM     31  H   UNL     1       0.560  -5.986  -2.924  0.00  0.00    -0.080 HD
BRANCH  29  32
ATOM     32  C   UNL     1      -2.991  -8.074  -3.238  0.00  0.00    -0.016 A 
ATOM     33  C   UNL     1      -2.261  -9.043  -3.900  0.00  0.00    +0.009 A 
ATOM     34  C   UNL     1      -2.908  -9.986  -4.676  0.00  0.00    +0.039 A 
ATOM     35  C   UNL     1      -4.288  -9.960  -4.790  0.00  0.00    +0.123 A 
ATOM     36  C   UNL     1      -5.017  -8.989  -4.126  0.00  0.00    +0.039 A 
ATOM     37  C   UNL     1      -4.369  -8.050  -3.346  0.00  0.00    +0.009 A 
ATOM     38  F   UNL     1      -4.921 -10.881  -5.548  0.00  0.00    -0.205 F 
ENDBRANCH  29  32
BRANCH  29  39
ATOM     39  O   UNL     1      -3.137  -6.649  -1.316  0.00  0.00    -0.384 OA
ATOM     40  H   UNL     1      -3.973  -6.256  -1.602  0.00  0.00    +0.211 HD
ENDBRANCH  29  39
ENDBRANCH  22  23
ENDBRANCH   2  22
TORSDOF 8
