REMARK  Name = ZINC39314998
REMARK  8 active torsions:
REMARK  status: ('A' for Active; 'I' for Inactive)
REMARK    1  A    between atoms: C_1  and  C_2
REMARK    2  A    between atoms: C_2  and  C_3
REMARK    3  A    between atoms: C_2  and  C_4
REMARK    4  A    between atoms: C_2  and  C_5
REMARK    5  A    between atoms: C_8  and  C_18
REMARK    6  A    between atoms: N_10  and  C_12
REMARK    7  A    between atoms: N_20  and  N_21
REMARK    8  A    between atoms: C_22  and  C_23
REMARK                            x       y       z     vdW  Elec       q    Type
REMARK                         _______ _______ _______ _____ _____    ______ ____
ROOT
ATOM      1  C   UNL     1       0.245  -0.144  -1.016  0.00  0.00    +0.081 C 
ATOM      2  C   UNL     1      -0.340   0.366  -2.362  0.00  0.00    +0.054 C 
ATOM      3  C   UNL     1       0.896   0.256  -3.287  0.00  0.00    +0.180 C 
ATOM      4  N   UNL     1       2.058   0.214  -2.384  0.00  0.00    -0.255 N 
ATOM      5  N   UNL     1       1.643   0.354  -1.084  0.00  0.00    -0.236 NA
ATOM      6  H   UNL     1       1.698   1.318  -0.789  0.00  0.00    +0.145 HD
ENDROOT
BRANCH   4   7
ATOM      7  C   UNL     1       3.385   0.053  -2.790  0.00  0.00    +0.045 A 
ATOM      8  C   UNL     1       3.689  -0.076  -4.139  0.00  0.00    +0.024 A 
ATOM      9  C   UNL     1       5.002  -0.234  -4.537  0.00  0.00    +0.002 A 
ATOM     10  C   UNL     1       6.013  -0.264  -3.594  0.00  0.00    +0.000 A 
ATOM     11  C   UNL     1       5.713  -0.136  -2.251  0.00  0.00    +0.002 A 
ATOM     12  C   UNL     1       4.403   0.028  -1.846  0.00  0.00    +0.024 A 
ENDBRANCH   4   7
BRANCH   1  14
ATOM     13  C   UNL     1      -0.429   1.996   0.082  0.00  0.00    +0.012 C 
ATOM     14  C   UNL     1      -0.498   0.471   0.172  0.00  0.00    -0.021 C 
ATOM     15  C   UNL     1       0.153   0.007   1.476  0.00  0.00    +0.012 C 
ATOM     16  C   UNL     1      -1.961   0.023   0.145  0.00  0.00    +0.012 C 
ENDBRANCH   1  14
BRANCH   3  17
ATOM     17  C   UNL     1       0.979   1.458  -4.191  0.00  0.00    +0.254 C 
ATOM     18  O   UNL     1       1.737   2.366  -3.925  0.00  0.00    -0.272 OA
ATOM     19  N   UNL     1       0.212   1.524  -5.297  0.00  0.00    -0.205 N 
ATOM     20  H   UNL     1      -0.394   0.797  -5.511  0.00  0.00    +0.177 HD
BRANCH  19  21
ATOM     21  N   UNL     1       0.289   2.641  -6.138  0.00  0.00    -0.188 NA
ATOM     22  C   UNL     1      -0.372   2.657  -7.268  0.00  0.00    +0.136 C 
BRANCH  22  23
ATOM     23  C   UNL     1      -1.205   1.581  -7.609  0.00  0.00    +0.000 C 
ATOM     24  C   UNL     1      -1.962   1.436  -8.769  0.00  0.00    +0.004 A 
ATOM     25  C   UNL     1      -2.134   2.258  -9.905  0.00  0.00    +0.010 A 
ATOM     26  C   UNL     1      -2.953   1.855 -10.909  0.00  0.00    +0.001 A 
ATOM     27  C   UNL     1      -3.639   0.638 -10.851  0.00  0.00    +0.002 A 
ATOM     28  C   UNL     1      -3.521  -0.200  -9.794  0.00  0.00    +0.026 A 
ATOM     29  C   UNL     1      -2.682   0.153  -8.703  0.00  0.00    +0.043 A 
ATOM     30  N   UNL     1      -2.403  -0.475  -7.580  0.00  0.00    -0.380 N 
ATOM     31  C   UNL     1      -1.463   0.332  -6.796  0.00  0.00    +0.150 C 
ATOM     32  H   UNL     1      -2.759  -1.337  -7.316  0.00  0.00    +0.160 HD
ENDBRANCH  22  23
ENDBRANCH  19  21
ENDBRANCH   3  17
TORSDOF 5
