REMARK  Name = ZINC58949034
REMARK  10 active torsions:
REMARK  status: ('A' for Active; 'I' for Inactive)
REMARK    1  A    between atoms: C_1  and  C_2
REMARK    2  A    between atoms: C_3  and  C_24
REMARK    3  A    between atoms: C_4  and  C_13
REMARK    4  A    between atoms: C_6  and  C_10
REMARK    5  A    between atoms: C_7  and  N_9
REMARK    6  A    between atoms: C_16  and  O_21
REMARK    7  A    between atoms: C_18  and  O_19
REMARK    8  A    between atoms: O_19  and  C_20
REMARK    9  A    between atoms: O_21  and  C_22
REMARK   10  A    between atoms: C_24  and  C_26
REMARK                            x       y       z     vdW  Elec       q    Type
REMARK                         _______ _______ _______ _____ _____    ______ ____
ROOT
ATOM      1  C   UNL     1      -0.142   1.498  -0.048  0.00  0.00    +0.086 C 
ATOM      2  C   UNL     1      -0.057  -0.007  -0.025  0.00  0.00    +0.112 C 
ATOM      3  C   UNL     1      -1.191  -0.723   0.057  0.00  0.00    +0.045 C 
ATOM      4  C   UNL     1      -1.161  -2.227   0.083  0.00  0.00    +0.099 C 
ATOM      5  C   UNL     1       0.180  -2.721  -0.385  0.00  0.00    +0.083 C 
ATOM      6  C   UNL     1       1.247  -1.885  -0.445  0.00  0.00    +0.193 C 
ATOM      7  O   UNL     1       1.148  -0.592  -0.094  0.00  0.00    -0.446 OA
ENDROOT
BRANCH   4   8
ATOM      8  C   UNL     1      -1.406  -2.708   1.490  0.00  0.00    +0.008 A 
ATOM      9  C   UNL     1      -0.549  -2.332   2.507  0.00  0.00    +0.027 A 
ATOM     10  C   UNL     1      -0.771  -2.772   3.799  0.00  0.00    +0.060 A 
ATOM     11  C   UNL     1      -1.856  -3.592   4.077  0.00  0.00    +0.137 A 
ATOM     12  C   UNL     1      -2.717  -3.969   3.058  0.00  0.00    +0.092 A 
ATOM     13  C   UNL     1      -2.495  -3.522   1.765  0.00  0.00    +0.128 A 
ATOM     14 BR   UNL     1       0.405  -2.257   5.187  0.00  0.00    -0.047 Br
BRANCH  13  15
ATOM     15  O   UNL     1      -3.341  -3.886   0.765  0.00  0.00    -0.495 OA
ATOM     16  C   UNL     1      -4.441  -4.726   1.120  0.00  0.00    +0.277 C 
ENDBRANCH  13  15
BRANCH  11  17
ATOM     17  O   UNL     1      -2.074  -4.024   5.347  0.00  0.00    -0.494 OA
ATOM     18  C   UNL     1      -3.210  -4.865   5.560  0.00  0.00    +0.277 C 
ENDBRANCH  11  17
ENDBRANCH   4   8
BRANCH   5  19
ATOM     19  C   UNL     1       0.330  -4.066  -0.767  0.00  0.00    +0.243 C 
ATOM     20  O   UNL     1      -0.061  -4.437  -1.860  0.00  0.00    -0.271 OA
ATOM     21  N   UNL     1       0.906  -4.946   0.076  0.00  0.00    -0.325 N 
ATOM     22  H   UNL     1       1.217  -4.651   0.947  0.00  0.00    +0.145 HD
ATOM     23  H   UNL     1       1.009  -5.874  -0.187  0.00  0.00    +0.145 HD
ENDBRANCH   5  19
BRANCH   6  24
ATOM     24  N   UNL     1       2.454  -2.370  -0.876  0.00  0.00    -0.329 N 
ATOM     25  H   UNL     1       2.518  -3.275  -1.220  0.00  0.00    +0.145 HD
ATOM     26  H   UNL     1       3.244  -1.808  -0.837  0.00  0.00    +0.145 HD
ENDBRANCH   6  24
BRANCH   3  27
ATOM     27  C   UNL     1      -2.428  -0.055   0.120  0.00  0.00    +0.160 C 
ATOM     28  O   UNL     1      -2.465   1.159   0.100  0.00  0.00    -0.293 OA
ATOM     29  C   UNL     1      -3.708  -0.846   0.212  0.00  0.00    +0.091 C 
ENDBRANCH   3  27
TORSDOF 6
