REMARK  Name = ZINC14008193
REMARK  5 active torsions:
REMARK  status: ('A' for Active; 'I' for Inactive)
REMARK    1  A    between atoms: C_1  and  C_2
REMARK    2  A    between atoms: C_8  and  N_10
REMARK    3  A    between atoms: C_11  and  C_13
REMARK    4  A    between atoms: C_13  and  C_14
REMARK    5  A    between atoms: N_25  and  C_28
REMARK                            x       y       z     vdW  Elec       q    Type
REMARK                         _______ _______ _______ _____ _____    ______ ____
ROOT
ATOM      1  C   UNL     1      -3.654   8.963  -2.187  0.00  0.00    +0.112 C 
ATOM      2  C   UNL     1      -4.966   8.479  -2.821  0.00  0.00    +0.103 C 
ATOM      3  S   UNL     1      -4.856   6.676  -2.528  0.00  0.00    -0.085 S 
ATOM      4  C   UNL     1      -3.288   6.615  -1.687  0.00  0.00    +0.174 A 
ATOM      5  N   UNL     1      -2.831   7.899  -1.612  0.00  0.00    -0.283 N 
ATOM      6  C   UNL     1      -1.621   8.103  -0.997  0.00  0.00    +0.266 A 
ATOM      7  O   UNL     1      -1.166   9.229  -0.902  0.00  0.00    -0.267 OA
ATOM      8  C   UNL     1      -0.905   7.005  -0.474  0.00  0.00    +0.103 A 
ATOM      9  C   UNL     1       0.328   6.864   0.199  0.00  0.00    +0.150 A 
ATOM     10  N   UNL     1       0.514   5.601   0.462  0.00  0.00    -0.172 NA
ATOM     11  N   UNL     1      -0.571   4.857  -0.017  0.00  0.00    -0.214 N 
ATOM     12  C   UNL     1      -1.450   5.717  -0.603  0.00  0.00    +0.171 A 
ATOM     13  N   UNL     1      -2.635   5.580  -1.206  0.00  0.00    -0.203 NA
ENDROOT
BRANCH  11  14
ATOM     14  C   UNL     1      -0.723   3.469   0.083  0.00  0.00    +0.068 A 
ATOM     15  C   UNL     1       0.387   2.639  -0.005  0.00  0.00    +0.028 A 
ATOM     16  C   UNL     1       0.233   1.270   0.094  0.00  0.00    +0.002 A 
ATOM     17  C   UNL     1      -1.024   0.725   0.280  0.00  0.00    +0.000 A 
ATOM     18  C   UNL     1      -2.132   1.548   0.362  0.00  0.00    +0.002 A 
ATOM     19  C   UNL     1      -1.985   2.919   0.270  0.00  0.00    +0.028 A 
ENDBRANCH  11  14
BRANCH   1  20
ATOM     20  C   UNL     1      -3.990   9.968  -1.084  0.00  0.00    +0.121 C 
BRANCH  20  22
ATOM     21  N   UNL     1      -5.213  12.108  -0.880  0.00  0.00    -0.312 N 
ATOM     22  C   UNL     1      -4.710  11.149  -1.682  0.00  0.00    +0.215 C 
ATOM     23  O   UNL     1      -4.837  11.236  -2.885  0.00  0.00    -0.276 OA
ATOM     24  H   UNL     1      -5.111  12.038   0.083  0.00  0.00    +0.149 HD
BRANCH  21  31
ATOM     25  C   UNL     1      -4.365  14.807  -0.260  0.00  0.00    +0.009 C 
ATOM     26  C   UNL     1      -5.832  14.443  -0.499  0.00  0.00    +0.006 C 
ATOM     27  C   UNL     1      -6.487  14.067   0.832  0.00  0.00    +0.005 C 
ATOM     28  C   UNL     1      -7.954  13.702   0.593  0.00  0.00    +0.000 C 
ATOM     29  C   UNL     1      -8.034  12.515  -0.369  0.00  0.00    +0.002 C 
ATOM     30  C   UNL     1      -7.380  12.892  -1.699  0.00  0.00    +0.022 C 
ATOM     31  C   UNL     1      -5.913  13.256  -1.461  0.00  0.00    +0.076 C 
ENDBRANCH  21  31
ENDBRANCH  20  22
ENDBRANCH   1  20
TORSDOF 4
