REMARK  Name = ZINC24716860
REMARK  9 active torsions:
REMARK  status: ('A' for Active; 'I' for Inactive)
REMARK    1  A    between atoms: C_1  and  C_2
REMARK    2  A    between atoms: C_2  and  O_3
REMARK    3  A    between atoms: O_3  and  C_4
REMARK    4  A    between atoms: C_7  and  C_10
REMARK    5  A    between atoms: N_15  and  C_16
REMARK    6  A    between atoms: C_16  and  C_17
REMARK    7  A    between atoms: C_26  and  C_28
REMARK    8  A    between atoms: C_31  and  O_34
REMARK    9  A    between atoms: O_34  and  C_35
REMARK                            x       y       z     vdW  Elec       q    Type
REMARK                         _______ _______ _______ _____ _____    ______ ____
ROOT
ATOM      1  C   UNL     1       0.002  -0.004   0.002  0.00  0.00    +0.094 A 
ATOM      2  N   UNL     1       0.599  -0.636  -1.043  0.00  0.00    -0.311 N 
ATOM      3  H   UNL     1       1.052  -0.049  -1.855  0.00  0.00    +0.170 HD
ATOM      4  C   UNL     1       0.629  -1.990  -1.071  0.00  0.00    +0.266 A 
ATOM      5  O   UNL     1       1.157  -2.587  -1.994  0.00  0.00    -0.267 OA
ATOM      6  C   UNL     1       0.039  -2.684  -0.014  0.00  0.00    +0.102 A 
ATOM      7  C   UNL     1      -0.573  -2.005   1.057  0.00  0.00    +0.086 A 
ATOM      8  N   UNL     1      -0.545  -0.632   0.993  0.00  0.00    -0.235 NA
ATOM      9  C   UNL     1      -1.125  -2.817   2.051  0.00  0.00    +0.044 A 
ATOM     10  C   UNL     1      -1.049  -4.175   1.941  0.00  0.00    +0.022 A 
ATOM     11  S   UNL     1      -0.176  -4.394   0.400  0.00  0.00    -0.081 S 
ENDROOT
BRANCH  10  12
ATOM     12  C   UNL     1      -1.561  -5.206   2.868  0.00  0.00    -0.011 A 
ATOM     13  C   UNL     1      -2.220  -4.830   4.040  0.00  0.00    +0.012 A 
ATOM     14  C   UNL     1      -2.701  -5.794   4.898  0.00  0.00    +0.046 A 
ATOM     15  C   UNL     1      -2.521  -7.140   4.605  0.00  0.00    +0.120 A 
ATOM     16  C   UNL     1      -1.861  -7.519   3.443  0.00  0.00    +0.046 A 
ATOM     17  C   UNL     1      -1.382  -6.560   2.576  0.00  0.00    +0.012 A 
BRANCH  15  18
ATOM     18  O   UNL     1      -2.991  -8.088   5.456  0.00  0.00    -0.495 OA
ATOM     19  C   UNL     1      -3.660  -7.629   6.633  0.00  0.00    +0.277 C 
ENDBRANCH  15  18
ENDBRANCH  10  12
BRANCH   1  20
ATOM     20  C   UNL     1      -0.018   1.503   0.010  0.00  0.00    -0.002 C 
BRANCH  20  25
ATOM     21  C   UNL     1      -0.973   3.429   1.142  0.00  0.00    -0.037 C 
ATOM     22  C   UNL     1      -0.850   3.931   2.602  0.00  0.00    -0.013 C 
ATOM     23  C   UNL     1       0.320   3.062   3.135  0.00  0.00    -0.020 C 
ATOM     24  C   UNL     1       0.101   1.710   2.424  0.00  0.00    -0.077 C 
ATOM     25  N   UNL     1      -0.706   1.976   1.219  0.00  0.00    +0.389 N 
ATOM     26  H   UNL     1      -1.656   1.425   1.281  0.00  0.00    -0.080 HD
BRANCH  21  30
ATOM     27  C   UNL     1      -4.913   4.141  -0.350  0.00  0.00    +0.121 A 
ATOM     28  C   UNL     1      -3.859   4.944  -0.760  0.00  0.00    +0.046 A 
ATOM     29  C   UNL     1      -2.586   4.712  -0.276  0.00  0.00    +0.005 A 
ATOM     30  C   UNL     1      -2.362   3.680   0.616  0.00  0.00    -0.061 A 
ATOM     31  C   UNL     1      -3.410   2.874   1.022  0.00  0.00    +0.005 A 
ATOM     32  C   UNL     1      -4.686   3.106   0.545  0.00  0.00    +0.046 A 
BRANCH  27  33
ATOM     33  O   UNL     1      -6.166   4.368  -0.824  0.00  0.00    -0.492 OA
BRANCH  33  35
ATOM     34  C   UNL     1      -8.533   3.908  -0.997  0.00  0.00    +0.048 C 
ATOM     35  C   UNL     1      -7.203   3.501  -0.359  0.00  0.00    +0.225 C 
ENDBRANCH  33  35
ENDBRANCH  27  33
ENDBRANCH  21  30
ENDBRANCH  20  25
ENDBRANCH   1  20
TORSDOF 7
