REMARK  Name = ZINC63385081
REMARK  12 active torsions:
REMARK  status: ('A' for Active; 'I' for Inactive)
REMARK    1  A    between atoms: C_1  and  C_2
REMARK    2  A    between atoms: C_3  and  C_37
REMARK    3  A    between atoms: C_9  and  O_19
REMARK    4  A    between atoms: C_15  and  C_17
REMARK    5  A    between atoms: C_15  and  C_18
REMARK    6  A    between atoms: O_19  and  C_20
REMARK    7  A    between atoms: C_20  and  C_21
REMARK    8  A    between atoms: N_23  and  C_24
REMARK    9  A    between atoms: C_24  and  C_25
REMARK   10  A    between atoms: C_25  and  C_26
REMARK   11  A    between atoms: C_29  and  O_35
REMARK   12  A    between atoms: O_35  and  C_36
REMARK                            x       y       z     vdW  Elec       q    Type
REMARK                         _______ _______ _______ _____ _____    ______ ____
ROOT
ATOM      1  O   UNL     1       0.847   1.252   2.405  0.00  0.00    -0.482 OA
ENDROOT
BRANCH   1  10
ATOM      2  C   UNL     1       0.419   1.475  -0.050  0.00  0.00    +0.045 C 
ATOM      3  C   UNL     1       0.209  -0.017  -0.026  0.00  0.00    -0.027 A 
ATOM      4  C   UNL     1      -0.096  -0.691  -1.166  0.00  0.00    +0.038 A 
ATOM      5  C   UNL     1      -0.288  -2.086  -1.127  0.00  0.00    +0.340 A 
ATOM      6  O   UNL     1      -0.562  -2.683  -2.153  0.00  0.00    -0.245 OA
ATOM      7  O   UNL     1      -0.174  -2.770   0.025  0.00  0.00    -0.421 OA
ATOM      8  C   UNL     1       0.125  -2.135   1.181  0.00  0.00    +0.149 A 
ATOM      9  C   UNL     1       0.331  -0.745   1.185  0.00  0.00    +0.063 A 
ATOM     10  C   UNL     1       0.650  -0.091   2.388  0.00  0.00    +0.136 A 
ATOM     11  C   UNL     1       0.761  -0.824   3.551  0.00  0.00    +0.092 A 
ATOM     12  C   UNL     1       0.559  -2.205   3.542  0.00  0.00    +0.131 A 
ATOM     13  C   UNL     1       0.232  -2.855   2.364  0.00  0.00    +0.038 A 
ATOM     14  C   UNL     1      -0.004  -4.344   2.326  0.00  0.00    +0.046 C 
ATOM     15  C   UNL     1       0.577  -4.991   3.586  0.00  0.00    +0.052 C 
ATOM     16  C   UNL     1       0.103  -4.185   4.802  0.00  0.00    +0.105 C 
ATOM     17  O   UNL     1       0.686  -2.878   4.715  0.00  0.00    -0.486 OA
ATOM     18  C   UNL     1      -1.424  -4.092   4.797  0.00  0.00    +0.055 C 
ATOM     19  C   UNL     1       0.575  -4.867   6.088  0.00  0.00    +0.055 C 
ATOM     20  C   UNL     1      -0.228   0.053  -2.470  0.00  0.00    +0.051 C 
ENDBRANCH   1  10
BRANCH   1  21
ATOM     21  C   UNL     1       1.167   1.844   3.666  0.00  0.00    +0.324 C 
BRANCH  21  22
ATOM     22  C   UNL     1       1.349   3.330   3.490  0.00  0.00    +0.251 C 
ATOM     23  O   UNL     1       1.218   3.832   2.394  0.00  0.00    -0.272 OA
ATOM     24  N   UNL     1       1.659   4.101   4.552  0.00  0.00    -0.312 N 
ATOM     25  H   UNL     1       1.764   3.699   5.428  0.00  0.00    +0.149 HD
BRANCH  24  26
ATOM     26  C   UNL     1       1.836   5.545   4.381  0.00  0.00    +0.108 C 
BRANCH  26  27
ATOM     27  C   UNL     1       2.179   6.179   5.731  0.00  0.00    +0.052 C 
BRANCH  27  28
ATOM     28  C   UNL     1       2.361   7.665   5.556  0.00  0.00    -0.040 C 
ATOM     29  C   UNL     1       1.431   8.627   5.753  0.00  0.00    +0.002 A 
ATOM     30  C   UNL     1       0.027   8.582   6.174  0.00  0.00    +0.055 A 
ATOM     31  C   UNL     1      -0.673   9.736   6.287  0.00  0.00    +0.121 A 
ATOM     32  C   UNL     1      -0.100  10.991   6.015  0.00  0.00    +0.047 A 
ATOM     33  C   UNL     1       1.183  11.134   5.622  0.00  0.00    +0.029 A 
ATOM     34  C   UNL     1       2.034   9.949   5.467  0.00  0.00    +0.043 A 
ATOM     35  N   UNL     1       3.285   9.810   5.106  0.00  0.00    -0.380 N 
ATOM     36  C   UNL     1       3.622   8.382   5.129  0.00  0.00    +0.144 C 
ATOM     37  H   UNL     1       3.889  10.531   4.867  0.00  0.00    +0.160 HD
BRANCH  31  38
ATOM     38  O   UNL     1      -1.974   9.680   6.677  0.00  0.00    -0.495 OA
ATOM     39  C   UNL     1      -2.674  10.921   6.784  0.00  0.00    +0.277 C 
ENDBRANCH  31  38
ENDBRANCH  27  28
ENDBRANCH  26  27
ENDBRANCH  24  26
ENDBRANCH  21  22
ENDBRANCH   1  21
TORSDOF 7
