REMARK  Name = ZINC36502253
REMARK  10 active torsions:
REMARK  status: ('A' for Active; 'I' for Inactive)
REMARK    1  A    between atoms: C_4  and  C_7
REMARK    2  A    between atoms: C_7  and  C_8
REMARK    3  A    between atoms: C_7  and  C_14
REMARK    4  A    between atoms: C_7  and  O_39
REMARK    5  A    between atoms: N_16  and  C_17
REMARK    6  A    between atoms: N_16  and  C_23
REMARK    7  A    between atoms: C_17  and  C_18
REMARK    8  A    between atoms: C_23  and  C_25
REMARK    9  A    between atoms: C_23  and  C_30
REMARK   10  A    between atoms: N_32  and  C_33
REMARK                            x       y       z     vdW  Elec       q    Type
REMARK                         _______ _______ _______ _____ _____    ______ ____
ROOT
ATOM      1  C   UNL     1       3.304  -1.313  -0.770  0.00  0.00    +0.258 C 
ATOM      2  O   UNL     1       2.477  -1.875  -0.084  0.00  0.00    -0.272 OA
ATOM      3  N   UNL     1       3.453  -1.657  -2.064  0.00  0.00    -0.273 N 
ENDROOT
BRANCH   1   4
ATOM      4  C   UNL     1       4.167  -0.230  -0.174  0.00  0.00    +0.192 C 
BRANCH   4   8
ATOM      5  C   UNL     1       2.692   0.792   3.703  0.00  0.00    +0.000 A 
ATOM      6  C   UNL     1       3.012   1.789   2.800  0.00  0.00    +0.000 A 
ATOM      7  C   UNL     1       3.490   1.458   1.546  0.00  0.00    +0.007 A 
ATOM      8  C   UNL     1       3.647   0.131   1.194  0.00  0.00    -0.003 A 
ATOM      9  C   UNL     1       3.327  -0.866   2.096  0.00  0.00    +0.007 A 
ATOM     10  C   UNL     1       2.849  -0.536   3.350  0.00  0.00    +0.000 A 
ENDBRANCH   4   8
BRANCH   4  11
ATOM     11  C   UNL     1       5.586  -0.724  -0.058  0.00  0.00    -0.003 A 
ATOM     12  C   UNL     1       5.833  -2.058   0.209  0.00  0.00    +0.007 A 
ATOM     13  C   UNL     1       7.135  -2.511   0.315  0.00  0.00    +0.000 A 
ATOM     14  C   UNL     1       8.189  -1.631   0.153  0.00  0.00    +0.000 A 
ATOM     15  C   UNL     1       7.941  -0.297  -0.114  0.00  0.00    +0.000 A 
ATOM     16  C   UNL     1       6.639   0.155  -0.225  0.00  0.00    +0.007 A 
ENDBRANCH   4  11
BRANCH   4  17
ATOM     17  O   UNL     1       4.131   0.924  -1.016  0.00  0.00    -0.371 OA
ATOM     18  H   UNL     1       4.602   0.814  -1.854  0.00  0.00    +0.212 HD
ENDBRANCH   4  17
ENDBRANCH   1   4
BRANCH   3  19
ATOM     19  C   UNL     1       4.534  -1.069  -2.859  0.00  0.00    +0.183 C 
BRANCH  19  20
ATOM     20  C   UNL     1       3.951  -0.131  -3.884  0.00  0.00    +0.122 A 
ATOM     21  C   UNL     1       3.599   1.149  -3.668  0.00  0.00    +0.046 A 
ATOM     22  C   UNL     1       3.102   1.650  -4.893  0.00  0.00    +0.041 A 
ATOM     23  C   UNL     1       3.180   0.645  -5.784  0.00  0.00    +0.195 A 
ATOM     24  O   UNL     1       3.700  -0.429  -5.169  0.00  0.00    -0.466 OA
ENDBRANCH  19  20
ENDBRANCH   3  19
BRANCH   3  25
ATOM     25  C   UNL     1       2.533  -2.619  -2.677  0.00  0.00    +0.229 C 
BRANCH  25  26
ATOM     26  C   UNL     1       3.320  -3.638  -3.460  0.00  0.00    +0.134 A 
ATOM     27  C   UNL     1       3.131  -4.970  -3.431  0.00  0.00    +0.047 A 
ATOM     28  C   UNL     1       4.082  -5.537  -4.310  0.00  0.00    +0.041 A 
ATOM     29  C   UNL     1       4.795  -4.519  -4.823  0.00  0.00    +0.195 A 
ATOM     30  O   UNL     1       4.325  -3.371  -4.309  0.00  0.00    -0.465 OA
ENDBRANCH  25  26
BRANCH  25  31
ATOM     31  C   UNL     1       1.590  -1.894  -3.602  0.00  0.00    +0.241 C 
ATOM     32  O   UNL     1       1.546  -0.682  -3.594  0.00  0.00    -0.273 OA
ATOM     33  N   UNL     1       0.796  -2.592  -4.438  0.00  0.00    -0.311 N 
ATOM     34  H   UNL     1       0.832  -3.561  -4.444  0.00  0.00    +0.149 HD
BRANCH  33  35
ATOM     35  C   UNL     1      -0.120  -1.886  -5.337  0.00  0.00    +0.073 C 
ATOM     36  C   UNL     1      -1.422  -1.575  -4.596  0.00  0.00    +0.022 C 
ATOM     37  C   UNL     1      -2.380  -0.838  -5.535  0.00  0.00    +0.002 C 
ATOM     38  C   UNL     1      -2.682  -1.719  -6.749  0.00  0.00    +0.000 C 
ATOM     39  C   UNL     1      -1.379  -2.031  -7.490  0.00  0.00    +0.002 C 
ATOM     40  C   UNL     1      -0.422  -2.767  -6.551  0.00  0.00    +0.022 C 
ENDBRANCH  33  35
ENDBRANCH  25  31
ENDBRANCH   3  25
TORSDOF 10
