REMARK  Name = ZINC35840410
REMARK  3 active torsions:
REMARK  status: ('A' for Active; 'I' for Inactive)
REMARK    1  A    between atoms: C_1  and  C_2
REMARK    2  A    between atoms: N_21  and  C_24
REMARK    3  A    between atoms: C_29  and  C_30
REMARK                            x       y       z     vdW  Elec       q    Type
REMARK                         _______ _______ _______ _____ _____    ______ ____
ROOT
ATOM      1  C   UNL     1      -0.018   1.503   0.010  0.00  0.00    +0.044 C 
ATOM      2  C   UNL     1       0.002  -0.004   0.002  0.00  0.00    -0.050 A 
ATOM      3  C   UNL     1       0.006  -0.690  -1.199  0.00  0.00    +0.005 A 
ATOM      4  C   UNL     1       0.025  -2.069  -1.208  0.00  0.00    +0.024 A 
ATOM      5  C   UNL     1       0.042  -2.780  -0.011  0.00  0.00    +0.039 A 
ATOM      6  C   UNL     1       0.036  -2.081   1.194  0.00  0.00    +0.004 A 
ATOM      7  C   UNL     1       0.023  -0.703   1.195  0.00  0.00    +0.011 A 
ATOM      8  C   UNL     1       0.060  -3.123   2.271  0.00  0.00    +0.138 C 
ATOM      9  C   UNL     1       1.242  -2.978   3.215  0.00  0.00    +0.123 C 
ATOM     10  C   UNL     1       0.660  -1.786   4.069  0.00  0.00    +0.107 C 
ATOM     11  C   UNL     1      -0.730  -2.178   4.355  0.00  0.00    +0.071 C 
ATOM     12  N   UNL     1      -1.107  -3.036   3.172  0.00  0.00    -0.281 NA
ATOM     13  C   UNL     1      -2.321  -2.529   2.548  0.00  0.00    +0.086 C 
ATOM     14  C   UNL     1      -2.921  -1.489   3.521  0.00  0.00    +0.017 C 
ATOM     15  C   UNL     1      -1.673  -0.953   4.293  0.00  0.00    +0.021 C 
ATOM     16  C   UNL     1       1.837  -1.302   4.750  0.00  0.00    +0.232 C 
ATOM     17  O   UNL     1       1.907  -0.835   5.866  0.00  0.00    -0.274 OA
ATOM     18  N   UNL     1       2.860  -1.489   3.852  0.00  0.00    -0.209 N 
ATOM     19  C   UNL     1       2.509  -2.302   2.793  0.00  0.00    +0.233 C 
ATOM     20  O   UNL     1       3.095  -2.440   1.741  0.00  0.00    -0.274 OA
ATOM     21  C   UNL     1       0.079  -4.442   1.544  0.00  0.00    +0.243 C 
ATOM     22  O   UNL     1       0.103  -5.546   2.046  0.00  0.00    -0.273 OA
ATOM     23  N   UNL     1       0.065  -4.156   0.229  0.00  0.00    -0.283 N 
ATOM     24  H   UNL     1       0.070  -4.828  -0.471  0.00  0.00    +0.155 HD
ENDROOT
BRANCH  18  25
ATOM     25  C   UNL     1       4.135  -0.924   4.000  0.00  0.00    +0.056 A 
ATOM     26  C   UNL     1       5.128  -1.617   4.680  0.00  0.00    +0.024 A 
ATOM     27  C   UNL     1       6.382  -1.058   4.824  0.00  0.00    +0.002 A 
ATOM     28  C   UNL     1       6.650   0.191   4.292  0.00  0.00    +0.001 A 
ATOM     29  C   UNL     1       5.663   0.882   3.615  0.00  0.00    +0.014 A 
ATOM     30  C   UNL     1       4.408   0.326   3.462  0.00  0.00    +0.077 A 
BRANCH  30  31
ATOM     31  C   UNL     1       3.334   1.078   2.719  0.00  0.00    +0.419 C 
ATOM     32  F   UNL     1       3.845   2.303   2.275  0.00  0.00    -0.166 F 
ATOM     33  F   UNL     1       2.912   0.323   1.619  0.00  0.00    -0.166 F 
ATOM     34  F   UNL     1       2.249   1.307   3.572  0.00  0.00    -0.166 F 
ENDBRANCH  30  31
ENDBRANCH  18  25
TORSDOF 2
