REMARK  Name = ZINC35888508
REMARK  9 active torsions:
REMARK  status: ('A' for Active; 'I' for Inactive)
REMARK    1  A    between atoms: C_1  and  C_2
REMARK    2  A    between atoms: N_8  and  C_9
REMARK    3  A    between atoms: C_9  and  C_10
REMARK    4  A    between atoms: C_10  and  C_11
REMARK    5  A    between atoms: C_11  and  N_12
REMARK    6  A    between atoms: C_13  and  C_15
REMARK    7  A    between atoms: C_15  and  C_16
REMARK    8  A    between atoms: C_16  and  C_18
REMARK    9  A    between atoms: C_16  and  C_27
REMARK                            x       y       z     vdW  Elec       q    Type
REMARK                         _______ _______ _______ _____ _____    ______ ____
ROOT
ATOM      1  C   UNL     1       8.198   0.500   5.345  0.00  0.00    +0.060 C 
ENDROOT
BRANCH   1   2
ATOM      2  C   UNL     1       8.929   0.003   6.565  0.00  0.00    -0.015 A 
ATOM      3  C   UNL     1       8.561   0.177   7.844  0.00  0.00    +0.087 A 
ATOM      4  N   UNL     1       9.471  -0.414   8.677  0.00  0.00    -0.360 N 
ATOM      5  H   UNL     1       9.418  -0.421   9.646  0.00  0.00    +0.165 HD
ATOM      6  C   UNL     1      10.473  -0.999   7.936  0.00  0.00    +0.047 A 
ATOM      7  C   UNL     1      10.175  -0.769   6.580  0.00  0.00    +0.003 A 
ATOM      8  C   UNL     1      11.025  -1.258   5.587  0.00  0.00    +0.010 A 
ATOM      9  C   UNL     1      12.142  -1.963   5.937  0.00  0.00    +0.001 A 
ATOM     10  C   UNL     1      12.439  -2.196   7.273  0.00  0.00    +0.002 A 
ATOM     11  C   UNL     1      11.618  -1.714   8.269  0.00  0.00    +0.026 A 
ENDBRANCH   1   2
BRANCH   1  12
ATOM     12  C   UNL     1       8.106   2.004   5.394  0.00  0.00    -0.036 A 
ATOM     13  C   UNL     1       7.463   2.622   6.450  0.00  0.00    +0.008 A 
ATOM     14  C   UNL     1       7.377   4.001   6.499  0.00  0.00    +0.050 A 
ATOM     15  C   UNL     1       7.933   4.767   5.488  0.00  0.00    +0.166 A 
ATOM     16  C   UNL     1       8.580   4.144   4.423  0.00  0.00    +0.167 A 
ATOM     17  C   UNL     1       8.668   2.762   4.384  0.00  0.00    +0.053 A 
ATOM     18  O   UNL     1       9.037   5.105   3.568  0.00  0.00    -0.453 OA
ATOM     19  C   UNL     1       8.310   6.300   3.909  0.00  0.00    +0.466 C 
ATOM     20  O   UNL     1       7.985   6.118   5.300  0.00  0.00    -0.453 OA
ENDBRANCH   1  12
BRANCH   1  21
ATOM     21  C   UNL     1       6.789  -0.096   5.316  0.00  0.00    +0.108 C 
BRANCH  21  23
ATOM     22  N   UNL     1       4.842  -0.112   3.791  0.00  0.00    -0.315 N 
ATOM     23  C   UNL     1       6.101   0.302   4.036  0.00  0.00    +0.214 C 
ATOM     24  O   UNL     1       6.680   0.995   3.227  0.00  0.00    -0.276 OA
ATOM     25  H   UNL     1       4.379  -0.666   4.439  0.00  0.00    +0.149 HD
BRANCH  22  26
ATOM     26  C   UNL     1       4.173   0.276   2.547  0.00  0.00    +0.102 C 
BRANCH  26  27
ATOM     27  C   UNL     1       2.764  -0.321   2.518  0.00  0.00    +0.000 C 
BRANCH  27  28
ATOM     28  C   UNL     1       2.066   0.083   1.218  0.00  0.00    -0.077 C 
BRANCH  28  35
ATOM     29  C   UNL     1      -0.019   1.526   0.010  0.00  0.00    -0.013 C 
ATOM     30  C   UNL     1       0.002  -0.004   0.002  0.00  0.00    -0.072 C 
ATOM     31  C   UNL     1      -1.434  -0.533   0.011  0.00  0.00    -0.016 C 
ATOM     32  C   UNL     1      -1.408  -2.064   0.003  0.00  0.00    -0.003 C 
ATOM     33  C   UNL     1      -0.600  -2.558   1.206  0.00  0.00    -0.019 C 
ATOM     34  C   UNL     1       0.805  -1.954   1.152  0.00  0.00    -0.078 C 
ATOM     35  N   UNL     1       0.713  -0.490   1.191  0.00  0.00    +0.381 N 
ATOM     36  H   UNL     1       0.213  -0.206   2.020  0.00  0.00    -0.081 HD
ENDBRANCH  28  35
ENDBRANCH  27  28
ENDBRANCH  26  27
ENDBRANCH  22  26
ENDBRANCH  21  23
ENDBRANCH   1  21
TORSDOF 8
