REMARK  Name = ZINC09967965
REMARK  8 active torsions:
REMARK  status: ('A' for Active; 'I' for Inactive)
REMARK    1  A    between atoms: C_1  and  C_2
REMARK    2  A    between atoms: C_5  and  N_9
REMARK    3  A    between atoms: C_7  and  C_8
REMARK    4  A    between atoms: C_10  and  C_32
REMARK    5  A    between atoms: C_13  and  S_14
REMARK    6  A    between atoms: S_14  and  C_15
REMARK    7  A    between atoms: C_15  and  C_16
REMARK    8  A    between atoms: C_29  and  C_31
REMARK                            x       y       z     vdW  Elec       q    Type
REMARK                         _______ _______ _______ _____ _____    ______ ____
ROOT
ATOM      1  N   UNL     1      -0.017   1.398   0.010  0.00  0.00    -0.270 N 
ATOM      2  C   UNL     1      -1.126   2.216   0.019  0.00  0.00    +0.169 A 
ATOM      3  N   UNL     1      -0.690   3.454   0.027  0.00  0.00    -0.128 NA
ATOM      4  N   UNL     1       0.595   3.469   0.015  0.00  0.00    -0.122 NA
ATOM      5  C   UNL     1       1.061   2.240   0.004  0.00  0.00    +0.197 A 
ENDROOT
BRANCH   1  10
ATOM      6  C   UNL     1       0.059  -4.277  -0.022  0.00  0.00    +0.044 C 
ATOM      7  C   UNL     1       0.039  -2.771  -0.013  0.00  0.00    -0.047 A 
ATOM      8  C   UNL     1      -0.467  -2.093   1.081  0.00  0.00    +0.005 A 
ATOM      9  C   UNL     1      -0.486  -0.712   1.092  0.00  0.00    +0.026 A 
ATOM     10  C   UNL     1       0.002  -0.004   0.002  0.00  0.00    +0.051 A 
ATOM     11  C   UNL     1       0.504  -0.687  -1.097  0.00  0.00    +0.030 A 
ATOM     12  C   UNL     1       0.526  -2.068  -1.100  0.00  0.00    -0.046 A 
ATOM     13  C   UNL     1       1.076  -2.810  -2.291  0.00  0.00    +0.044 C 
ENDBRANCH   1  10
BRANCH   2  14
ATOM     14  C   UNL     1      -2.538   1.781   0.022  0.00  0.00    +0.020 A 
ATOM     15  C   UNL     1      -2.867   0.464  -0.302  0.00  0.00    +0.011 A 
ATOM     16  C   UNL     1      -4.188   0.063  -0.291  0.00  0.00    +0.001 A 
ATOM     17  C   UNL     1      -5.185   0.967   0.029  0.00  0.00    +0.000 A 
ATOM     18  C   UNL     1      -4.866   2.276   0.345  0.00  0.00    +0.001 A 
ATOM     19  C   UNL     1      -3.550   2.688   0.344  0.00  0.00    +0.011 A 
ENDBRANCH   2  14
BRANCH   5  20
ATOM     20  S   UNL     1       2.758   1.765  -0.014  0.00  0.00    -0.076 S 
BRANCH  20  21
ATOM     21  C   UNL     1       3.541   3.397  -0.013  0.00  0.00    +0.173 C 
BRANCH  21  22
ATOM     22  C   UNL     1       5.039   3.236  -0.028  0.00  0.00    +0.230 C 
ATOM     23  O   UNL     1       5.529   2.127  -0.038  0.00  0.00    -0.274 OA
ATOM     24  N   UNL     1       5.834   4.324  -0.030  0.00  0.00    -0.266 N 
ATOM     25  C   UNL     1       5.282   5.612  -0.024  0.00  0.00    +0.058 A 
ATOM     26  C   UNL     1       4.673   6.123  -1.159  0.00  0.00    +0.025 A 
ATOM     27  C   UNL     1       4.162   7.408  -1.145  0.00  0.00    +0.002 A 
ATOM     28  C   UNL     1       4.258   8.186  -0.006  0.00  0.00    +0.002 A 
ATOM     29  C   UNL     1       4.859   7.676   1.149  0.00  0.00    +0.025 A 
ATOM     30  C   UNL     1       5.361   6.385   1.141  0.00  0.00    +0.055 A 
ATOM     31  N   UNL     1       5.944   5.832   2.287  0.00  0.00    -0.284 N 
ATOM     32  C   UNL     1       7.143   5.213   2.218  0.00  0.00    +0.219 C 
ATOM     33  O   UNL     1       7.599   4.673   3.204  0.00  0.00    -0.275 OA
ATOM     34  C   UNL     1       7.917   5.188   0.927  0.00  0.00    +0.118 C 
ATOM     35  C   UNL     1       7.291   4.185  -0.044  0.00  0.00    +0.087 C 
ATOM     36  C   UNL     1       7.813   4.449  -1.457  0.00  0.00    +0.029 C 
ATOM     37  H   UNL     1       5.483   5.895   3.139  0.00  0.00    +0.155 HD
ENDBRANCH  21  22
ENDBRANCH  20  21
ENDBRANCH   5  20
TORSDOF 5
