REMARK  Name = ZINC12888622
REMARK  9 active torsions:
REMARK  status: ('A' for Active; 'I' for Inactive)
REMARK    1  A    between atoms: C_1  and  C_2
REMARK    2  A    between atoms: C_2  and  C_3
REMARK    3  A    between atoms: C_3  and  C_4
REMARK    4  A    between atoms: C_4  and  C_5
REMARK    5  A    between atoms: C_8  and  N_11
REMARK    6  A    between atoms: C_16  and  C_34
REMARK    7  A    between atoms: C_26  and  C_33
REMARK    8  A    between atoms: C_27  and  C_32
REMARK    9  A    between atoms: C_34  and  C_35
REMARK                            x       y       z     vdW  Elec       q    Type
REMARK                         _______ _______ _______ _____ _____    ______ ____
ROOT
ATOM      1  N   UNL     1      -6.737  -4.028   0.045  0.00  0.00    -0.210 N 
ATOM      2  C   UNL     1      -7.461  -4.180  -1.070  0.00  0.00    +0.228 C 
ATOM      3  O   UNL     1      -7.081  -3.922  -2.192  0.00  0.00    -0.275 OA
ATOM      4  C   UNL     1      -8.826  -4.723  -0.714  0.00  0.00    +0.074 C 
ATOM      5  C   UNL     1      -9.892  -3.639  -0.983  0.00  0.00    -0.049 C 
ATOM      6  C   UNL     1      -9.794  -3.830   1.344  0.00  0.00    +0.050 C 
ATOM      7  C   UNL     1      -8.768  -4.850   0.835  0.00  0.00    +0.088 C 
ATOM      8  C   UNL     1      -7.370  -4.382   1.170  0.00  0.00    +0.229 C 
ATOM      9  O   UNL     1      -6.896  -4.331   2.284  0.00  0.00    -0.275 OA
ATOM     10  C   UNL     1     -11.105  -4.485   1.671  0.00  0.00    -0.027 A 
ATOM     11  C   UNL     1     -12.007  -5.222   0.936  0.00  0.00    +0.005 A 
ATOM     12  C   UNL     1     -13.158  -5.704   1.534  0.00  0.00    +0.004 A 
ATOM     13  C   UNL     1     -13.400  -5.444   2.870  0.00  0.00    -0.046 A 
ATOM     14  C   UNL     1     -12.500  -4.706   3.611  0.00  0.00    -0.026 A 
ATOM     15  C   UNL     1     -11.338  -4.218   3.017  0.00  0.00    +0.039 A 
ATOM     16  N   UNL     1     -10.291  -3.460   3.547  0.00  0.00    -0.286 N 
ATOM     17  C   UNL     1      -9.344  -3.191   2.628  0.00  0.00    +0.211 C 
ATOM     18  O   UNL     1      -8.325  -2.555   2.803  0.00  0.00    -0.277 OA
ATOM     19  C   UNL     1     -12.774  -4.429   5.066  0.00  0.00    +0.046 C 
ATOM     20  C   UNL     1     -14.654  -5.968   3.521  0.00  0.00    +0.044 C 
ATOM     21  H   UNL     1     -10.251  -3.163   4.469  0.00  0.00    +0.155 HD
ATOM     22  N   UNL     1      -9.937  -2.870   0.263  0.00  0.00    +0.394 N 
ATOM     23  H   UNL     1     -10.834  -2.377   0.343  0.00  0.00    -0.083 HD
ATOM     24  H   UNL     1      -9.169  -2.190   0.289  0.00  0.00    -0.083 HD
ENDROOT
BRANCH   1  28
ATOM     25  C   UNL     1      -2.826  -2.586   0.017  0.00  0.00    -0.047 A 
ATOM     26  C   UNL     1      -3.075  -3.899   0.371  0.00  0.00    +0.005 A 
ATOM     27  C   UNL     1      -4.370  -4.379   0.386  0.00  0.00    +0.024 A 
ATOM     28  C   UNL     1      -5.422  -3.543   0.035  0.00  0.00    +0.044 A 
ATOM     29  C   UNL     1      -5.169  -2.227  -0.326  0.00  0.00    +0.024 A 
ATOM     30  C   UNL     1      -3.872  -1.752  -0.334  0.00  0.00    +0.005 A 
BRANCH  25  31
ATOM     31  C   UNL     1      -1.412  -2.065   0.006  0.00  0.00    +0.035 C 
BRANCH  31  32
ATOM     32  C   UNL     1      -1.073  -1.484   1.381  0.00  0.00    +0.004 C 
BRANCH  32  34
ATOM     33  C   UNL     1       0.702  -0.374   2.744  0.00  0.00    +0.004 C 
ATOM     34  C   UNL     1       0.363  -0.955   1.370  0.00  0.00    -0.003 C 
ENDBRANCH  32  34
ENDBRANCH  31  32
ENDBRANCH  25  31
ENDBRANCH   1  28
BRANCH   5  35
ATOM     35  C   UNL     1      -9.473  -2.763  -2.165  0.00  0.00    +0.080 C 
BRANCH  35  36
ATOM     36  C   UNL     1     -10.580  -1.793  -2.488  0.00  0.00    +0.209 C 
ATOM     37  O   UNL     1     -11.603  -1.802  -1.837  0.00  0.00    -0.276 OA
ATOM     38  N   UNL     1     -10.433  -0.915  -3.500  0.00  0.00    -0.329 N 
ATOM     39  H   UNL     1      -9.615  -0.908  -4.021  0.00  0.00    +0.145 HD
ATOM     40  H   UNL     1     -11.146  -0.291  -3.708  0.00  0.00    +0.145 HD
ENDBRANCH  35  36
ENDBRANCH   5  35
TORSDOF 6
