REMARK  Name = ZINC64870980
REMARK  6 active torsions:
REMARK  status: ('A' for Active; 'I' for Inactive)
REMARK    1  A    between atoms: C_1  and  C_2
REMARK    2  A    between atoms: C_5  and  C_8
REMARK    3  A    between atoms: C_8  and  N_9
REMARK    4  A    between atoms: C_15  and  C_22
REMARK    5  A    between atoms: C_25  and  C_29
REMARK    6  A    between atoms: C_33  and  C_35
REMARK                            x       y       z     vdW  Elec       q    Type
REMARK                         _______ _______ _______ _____ _____    ______ ____
ROOT
ATOM      1  N   UNL     1       1.447  -4.746  -0.032  0.00  0.00    -0.256 N 
ATOM      2  C   UNL     1       2.069  -4.947  -1.214  0.00  0.00    +0.265 A 
ATOM      3  O   UNL     1       1.493  -4.742  -2.265  0.00  0.00    -0.267 OA
ATOM      4  C   UNL     1       3.465  -5.420  -1.196  0.00  0.00    +0.063 A 
ATOM      5  C   UNL     1       4.176  -5.650  -2.372  0.00  0.00    +0.016 A 
ATOM      6  C   UNL     1       5.480  -6.092  -2.301  0.00  0.00    +0.008 A 
ATOM      7  C   UNL     1       6.083  -6.307  -1.072  0.00  0.00    -0.000 A 
ATOM      8  C   UNL     1       5.390  -6.083   0.101  0.00  0.00    +0.034 A 
ATOM      9  C   UNL     1       4.078  -5.638   0.050  0.00  0.00    +0.056 A 
ATOM     10  N   UNL     1       3.346  -5.399   1.205  0.00  0.00    -0.307 N 
ATOM     11  H   UNL     1       3.756  -5.545   2.072  0.00  0.00    +0.170 HD
ATOM     12  C   UNL     1       2.077  -4.963   1.133  0.00  0.00    +0.330 A 
ATOM     13  O   UNL     1       1.471  -4.762   2.168  0.00  0.00    -0.246 OA
ENDROOT
BRANCH   7  14
ATOM     14  C   UNL     1       7.509  -6.791  -1.015  0.00  0.00    +0.242 C 
ATOM     15  N   UNL     1       7.832  -7.588  -2.220  0.00  0.00    -0.265 NA
ATOM     16  C   UNL     1       9.230  -7.258  -2.572  0.00  0.00    +0.180 C 
ATOM     17  N   UNL     1       9.679  -6.273  -1.560  0.00  0.00    -0.177 NA
ATOM     18  O   UNL     1       8.423  -5.672  -1.055  0.00  0.00    -0.274 OA
ATOM     19  H   UNL     1       7.728  -8.575  -2.039  0.00  0.00    +0.127 HD
ATOM     20  H   UNL     1      10.187  -6.726  -0.815  0.00  0.00    +0.156 HD
BRANCH  16  21
ATOM     21  C   UNL     1      10.087  -8.496  -2.511  0.00  0.00    -0.014 A 
ATOM     22  C   UNL     1       9.536  -9.733  -2.786  0.00  0.00    +0.006 A 
ATOM     23  C   UNL     1      10.322 -10.868  -2.731  0.00  0.00    +0.001 A 
ATOM     24  C   UNL     1      11.661 -10.766  -2.400  0.00  0.00    +0.012 A 
ATOM     25  C   UNL     1      12.212  -9.529  -2.125  0.00  0.00    +0.055 A 
ATOM     26  C   UNL     1      11.427  -8.393  -2.185  0.00  0.00    +0.019 A 
BRANCH  25  27
ATOM     27  C   UNL     1      13.671  -9.418  -1.764  0.00  0.00    +0.417 C 
ATOM     28  F   UNL     1      14.252 -10.691  -1.772  0.00  0.00    -0.166 F 
ATOM     29  F   UNL     1      14.322  -8.603  -2.696  0.00  0.00    -0.166 F 
ATOM     30  F   UNL     1      13.794  -8.858  -0.488  0.00  0.00    -0.166 F 
ENDBRANCH  25  27
ENDBRANCH  16  21
ENDBRANCH   7  14
BRANCH   1  31
ATOM     31  C   UNL     1       0.059  -4.275  -0.021  0.00  0.00    +0.165 C 
BRANCH  31  36
ATOM     32  C   UNL     1      -0.018   1.503   0.010  0.00  0.00    +0.044 C 
ATOM     33  C   UNL     1       0.002  -0.004   0.002  0.00  0.00    -0.050 A 
ATOM     34  C   UNL     1       0.006  -0.689  -1.199  0.00  0.00    +0.004 A 
ATOM     35  C   UNL     1       0.025  -2.071  -1.206  0.00  0.00    +0.005 A 
ATOM     36  C   UNL     1       0.040  -2.768  -0.013  0.00  0.00    -0.027 A 
ATOM     37  C   UNL     1       0.037  -2.084   1.188  0.00  0.00    +0.005 A 
ATOM     38  C   UNL     1       0.023  -0.702   1.195  0.00  0.00    +0.004 A 
ENDBRANCH  31  36
ENDBRANCH   1  31
TORSDOF 5
