REMARK  Name = ZINC35191003
REMARK  14 active torsions:
REMARK  status: ('A' for Active; 'I' for Inactive)
REMARK    1  A    between atoms: C_1  and  C_2
REMARK    2  A    between atoms: C_2  and  C_3
REMARK    3  A    between atoms: C_2  and  C_4
REMARK    4  A    between atoms: C_2  and  C_5
REMARK    5  A    between atoms: C_5  and  C_6
REMARK    6  A    between atoms: C_6  and  C_7
REMARK    7  A    between atoms: C_6  and  C_8
REMARK    8  A    between atoms: C_6  and  N_9
REMARK    9  A    between atoms: N_9  and  C_10
REMARK   10  A    between atoms: C_11  and  C_19
REMARK   11  A    between atoms: C_24  and  O_25
REMARK   12  A    between atoms: O_25  and  C_26
REMARK   13  A    between atoms: C_26  and  C_28
REMARK   14  A    between atoms: C_31  and  N_34
REMARK                            x       y       z     vdW  Elec       q    Type
REMARK                         _______ _______ _______ _____ _____    ______ ____
ROOT
ATOM      1  C   UNL     1       5.045  -0.328  -2.476  0.00  0.00    +0.129 A 
ATOM      2  C   UNL     1       6.153  -0.380  -3.470  0.00  0.00    +0.090 A 
ATOM      3  N   UNL     1       7.243  -0.016  -2.838  0.00  0.00    -0.338 N 
ATOM      4  C   UNL     1       6.969   0.267  -1.546  0.00  0.00    +0.117 A 
ATOM      5  N   UNL     1       5.635   0.091  -1.298  0.00  0.00    -0.289 N 
ATOM      6  C   UNL     1       5.115   0.322  -0.061  0.00  0.00    +0.094 A 
ATOM      7  C   UNL     1       5.921   0.742   0.970  0.00  0.00    +0.018 A 
ATOM      8  C   UNL     1       7.280   0.932   0.748  0.00  0.00    +0.005 A 
ATOM      9  C   UNL     1       7.808   0.686  -0.519  0.00  0.00    +0.045 A 
ATOM     10  H   UNL     1       8.123   0.042  -3.242  0.00  0.00    +0.167 HD
ENDROOT
BRANCH   2  11
ATOM     11  C   UNL     1       6.046  -0.766  -4.886  0.00  0.00    +0.044 A 
ATOM     12  C   UNL     1       6.685  -1.922  -5.352  0.00  0.00    +0.014 A 
ATOM     13  C   UNL     1       6.580  -2.276  -6.678  0.00  0.00    +0.001 A 
ATOM     14  C   UNL     1       5.844  -1.494  -7.556  0.00  0.00    +0.004 A 
ATOM     15  C   UNL     1       5.208  -0.351  -7.112  0.00  0.00    +0.047 A 
ATOM     16  C   UNL     1       5.296   0.021  -5.779  0.00  0.00    +0.141 A 
BRANCH  16  17
ATOM     17  O   UNL     1       4.667   1.139  -5.341  0.00  0.00    -0.422 OA
BRANCH  17  18
ATOM     18  C   UNL     1       5.355   2.298  -5.354  0.00  0.00    +0.344 C 
ATOM     19  O   UNL     1       6.493   2.324  -5.777  0.00  0.00    -0.245 OA
BRANCH  18  20
ATOM     20  C   UNL     1       4.724   3.537  -4.856  0.00  0.00    +0.060 A 
ATOM     21  C   UNL     1       3.417   3.510  -4.364  0.00  0.00    +0.017 A 
ATOM     22  C   UNL     1       2.834   4.671  -3.900  0.00  0.00    +0.033 A 
ATOM     23  C   UNL     1       3.541   5.860  -3.920  0.00  0.00    +0.126 A 
ATOM     24  C   UNL     1       4.836   5.894  -4.407  0.00  0.00    +0.033 A 
ATOM     25  C   UNL     1       5.433   4.740  -4.869  0.00  0.00    +0.017 A 
BRANCH  23  26
ATOM     26  N   UNL     1       2.909   7.102  -3.420  0.00  0.00    +0.056 N 
ATOM     27  O   UNL     1       1.677   7.073  -2.957  0.00  0.00    -0.126 OA
ATOM     28  O   UNL     1       3.580   8.235  -3.438  0.00  0.00    -0.126 OA
ENDBRANCH  23  26
ENDBRANCH  18  20
ENDBRANCH  17  18
ENDBRANCH  16  17
ENDBRANCH   2  11
BRANCH   1  29
ATOM     29  N   UNL     1       3.763  -0.617  -2.680  0.00  0.00    -0.323 N 
ATOM     30  H   UNL     1       3.447  -0.817  -3.575  0.00  0.00    +0.148 HD
BRANCH  29  31
ATOM     31  C   UNL     1       2.828  -0.632  -1.552  0.00  0.00    +0.028 C 
ATOM     32  C   UNL     1       2.683   0.783  -0.990  0.00  0.00    +0.031 C 
ATOM     33  C   UNL     1       3.361  -1.562  -0.460  0.00  0.00    +0.031 C 
BRANCH  31  34
ATOM     34  C   UNL     1       1.463  -1.135  -2.028  0.00  0.00    +0.031 C 
BRANCH  34  36
ATOM     35  C   UNL     1       1.919  -1.198  -4.484  0.00  0.00    +0.010 C 
ATOM     36  C   UNL     1       1.128  -0.497  -3.378  0.00  0.00    -0.036 C 
ATOM     37  C   UNL     1       1.499   0.987  -3.347  0.00  0.00    +0.010 C 
ATOM     38  C   UNL     1      -0.370  -0.643  -3.652  0.00  0.00    +0.010 C 
ENDBRANCH  34  36
ENDBRANCH  31  34
ENDBRANCH  29  31
ENDBRANCH   1  29
TORSDOF 9
