REMARK  Name = ZINC65164407
REMARK  5 active torsions:
REMARK  status: ('A' for Active; 'I' for Inactive)
REMARK    1  A    between atoms: C_1  and  C_2
REMARK    2  A    between atoms: C_2  and  C_3
REMARK    3  A    between atoms: C_3  and  C_4
REMARK    4  A    between atoms: C_7  and  S_10
REMARK    5  A    between atoms: S_10  and  N_13
REMARK                            x       y       z     vdW  Elec       q    Type
REMARK                         _______ _______ _______ _____ _____    ______ ____
ROOT
ATOM      1  S   UNL     1       0.800  -6.530  -1.291  0.00  0.00    +0.061 S 
ATOM      2  O   UNL     1      -0.003  -6.941  -2.388  0.00  0.00    -0.153 OA
ATOM      3  O   UNL     1       2.161  -6.919  -1.155  0.00  0.00    -0.153 OA
ENDROOT
BRANCH   1   4
ATOM      4  N   UNL     1       0.024  -7.039   0.081  0.00  0.00    -0.170 NA
ATOM      5  C   UNL     1       0.767  -7.253   1.331  0.00  0.00    +0.116 C 
ATOM      6  C   UNL     1       0.274  -6.254   2.386  0.00  0.00    +0.072 C 
ATOM      7  C   UNL     1      -1.232  -6.220   2.355  0.00  0.00    +0.041 A 
ATOM      8  N   UNL     1      -2.083  -5.747   3.307  0.00  0.00    -0.348 N 
ATOM      9  C   UNL     1      -3.340  -5.921   2.837  0.00  0.00    +0.197 A 
ATOM     10  N   UNL     1      -3.274  -6.475   1.654  0.00  0.00    -0.239 NA
ATOM     11  C   UNL     1      -1.993  -6.671   1.335  0.00  0.00    +0.078 A 
ATOM     12  H   UNL     1      -1.836  -5.359   4.161  0.00  0.00    +0.166 HD
ATOM     13  C   UNL     1      -1.430  -7.283   0.079  0.00  0.00    +0.166 C 
ENDBRANCH   1   4
BRANCH   1  17
ATOM     14  C   UNL     1       0.739  -2.004  -1.265  0.00  0.00    -0.047 A 
ATOM     15  C   UNL     1       1.788  -2.685  -0.675  0.00  0.00    +0.005 A 
ATOM     16  C   UNL     1       1.806  -4.067  -0.683  0.00  0.00    +0.029 A 
ATOM     17  C   UNL     1       0.776  -4.769  -1.280  0.00  0.00    +0.106 A 
ATOM     18  C   UNL     1      -0.273  -4.088  -1.869  0.00  0.00    +0.029 A 
ATOM     19  C   UNL     1      -0.294  -2.706  -1.858  0.00  0.00    +0.005 A 
BRANCH  14  20
ATOM     20  C   UNL     1       0.718  -0.497  -1.257  0.00  0.00    +0.035 C 
BRANCH  20  22
ATOM     21  C   UNL     1      -0.019   1.526   0.010  0.00  0.00    +0.004 C 
ATOM     22  C   UNL     1       0.002  -0.004   0.002  0.00  0.00    +0.001 C 
ENDBRANCH  20  22
ENDBRANCH  14  20
ENDBRANCH   1  17
TORSDOF 4
