REMARK  Name = ZINC06044450
REMARK  4 active torsions:
REMARK  status: ('A' for Active; 'I' for Inactive)
REMARK    1  A    between atoms: C_1  and  C_2
REMARK    2  A    between atoms: C_5  and  C_8
REMARK    3  A    between atoms: C_18  and  N_25
REMARK    4  A    between atoms: C_21  and  C_24
REMARK                            x       y       z     vdW  Elec       q    Type
REMARK                         _______ _______ _______ _____ _____    ______ ____
ROOT
ATOM      1  C   UNL     1       1.248   4.667  -0.035  0.00  0.00    +0.105 C 
ATOM      2  C   UNL     1       1.119   3.195  -0.364  0.00  0.00    +0.029 C 
ATOM      3  C   UNL     1       2.055   2.213   0.351  0.00  0.00    +0.033 C 
ATOM      4  C   UNL     1       1.196   0.946   0.388  0.00  0.00    -0.030 C 
ATOM      5  C   UNL     1      -0.092   1.271   0.351  0.00  0.00    -0.023 C 
ATOM      6  C   UNL     1      -0.204   2.750   0.334  0.00  0.00    +0.051 C 
ATOM      7  C   UNL     1      -1.306   3.456  -0.357  0.00  0.00    +0.011 A 
ATOM      8  C   UNL     1      -2.550   2.883  -0.513  0.00  0.00    +0.132 A 
ATOM      9  C   UNL     1      -3.564   3.571  -1.151  0.00  0.00    +0.033 A 
ATOM     10  C   UNL     1      -3.328   4.845  -1.635  0.00  0.00    +0.007 A 
ATOM     11  C   UNL     1      -2.087   5.423  -1.489  0.00  0.00    -0.029 A 
ATOM     12  C   UNL     1      -1.049   4.737  -0.854  0.00  0.00    +0.037 A 
ATOM     13  N   UNL     1       0.190   5.370  -0.777  0.00  0.00    -0.336 N 
ATOM     14  C   UNL     1      -1.845   6.812  -2.021  0.00  0.00    +0.045 C 
ATOM     15  H   UNL     1       0.090   6.321  -0.452  0.00  0.00    +0.147 HD
ENDROOT
BRANCH   1  20
ATOM     16  C   UNL     1       0.551   5.487   5.643  0.00  0.00    +0.044 C 
ATOM     17  C   UNL     1       0.733   5.273   4.162  0.00  0.00    -0.050 A 
ATOM     18  C   UNL     1       1.980   4.953   3.658  0.00  0.00    +0.004 A 
ATOM     19  C   UNL     1       2.147   4.758   2.300  0.00  0.00    +0.006 A 
ATOM     20  C   UNL     1       1.067   4.881   1.446  0.00  0.00    -0.027 A 
ATOM     21  C   UNL     1      -0.179   5.206   1.950  0.00  0.00    +0.006 A 
ATOM     22  C   UNL     1      -0.347   5.398   3.308  0.00  0.00    +0.004 A 
ENDBRANCH   1  20
BRANCH   8  23
ATOM     23  N   UNL     1      -2.801   1.520   0.008  0.00  0.00    +0.057 N 
ATOM     24  O   UNL     1      -3.294   0.673  -0.715  0.00  0.00    -0.126 OA
ATOM     25  O   UNL     1      -2.514   1.246   1.159  0.00  0.00    -0.126 OA
ENDBRANCH   8  23
TORSDOF 2
