REMARK  Name = ZINC22067003
REMARK  10 active torsions:
REMARK  status: ('A' for Active; 'I' for Inactive)
REMARK    1  A    between atoms: C_1  and  C_2
REMARK    2  A    between atoms: C_5  and  C_8
REMARK    3  A    between atoms: C_8  and  C_10
REMARK    4  A    between atoms: C_12  and  N_35
REMARK    5  A    between atoms: C_14  and  O_16
REMARK    6  A    between atoms: O_16  and  C_17
REMARK    7  A    between atoms: C_19  and  O_33
REMARK    8  A    between atoms: C_21  and  O_32
REMARK    9  A    between atoms: C_23  and  O_31
REMARK   10  A    between atoms: C_25  and  C_28
REMARK                            x       y       z     vdW  Elec       q    Type
REMARK                         _______ _______ _______ _____ _____    ______ ____
ROOT
ATOM      1  C   UNL     1       3.692   2.087   0.213  0.00  0.00    +0.028 A 
ATOM      2  C   UNL     1       3.898   3.453   0.429  0.00  0.00    +0.048 A 
ATOM      3  C   UNL     1       2.825   4.283   0.664  0.00  0.00    +0.177 A 
ATOM      4  C   UNL     1       1.536   3.766   0.688  0.00  0.00    +0.250 A 
ATOM      5  C   UNL     1       1.322   2.405   0.474  0.00  0.00    +0.173 A 
ATOM      6  C   UNL     1       2.394   1.566   0.243  0.00  0.00    +0.061 A 
ATOM      7  O   UNL     1       0.480   4.589   0.920  0.00  0.00    -0.282 OA
ENDROOT
BRANCH   3   8
ATOM      8  N   UNL     1       3.045   5.729   0.891  0.00  0.00    +0.060 N 
ATOM      9  O   UNL     1       4.175   6.183   0.871  0.00  0.00    -0.126 OA
ATOM     10  O   UNL     1       2.096   6.464   1.099  0.00  0.00    -0.126 OA
ENDBRANCH   3   8
BRANCH   1  11
ATOM     11  C   UNL     1       4.840   1.196  -0.038  0.00  0.00    +0.193 C 
ATOM     12  O   UNL     1       4.821   0.050   0.366  0.00  0.00    -0.287 OA
BRANCH  11  17
ATOM     13  C   UNL     1       9.415   3.149  -2.932  0.00  0.00    +0.044 C 
ATOM     14  C   UNL     1       8.217   2.637  -2.174  0.00  0.00    -0.050 A 
ATOM     15  C   UNL     1       8.259   1.388  -1.581  0.00  0.00    +0.004 A 
ATOM     16  C   UNL     1       7.166   0.913  -0.886  0.00  0.00    +0.012 A 
ATOM     17  C   UNL     1       6.015   1.698  -0.781  0.00  0.00    +0.022 A 
ATOM     18  C   UNL     1       5.978   2.956  -1.387  0.00  0.00    +0.012 A 
ATOM     19  C   UNL     1       7.080   3.420  -2.074  0.00  0.00    +0.004 A 
ENDBRANCH  11  17
ENDBRANCH   1  11
BRANCH   5  20
ATOM     20  O   UNL     1       0.059   1.903   0.497  0.00  0.00    -0.457 OA
BRANCH  20  21
ATOM     21  C   UNL     1      -0.086   0.499   0.270  0.00  0.00    +0.340 C 
ATOM     22  C   UNL     1      -1.552   0.100   0.456  0.00  0.00    +0.214 C 
ATOM     23  C   UNL     1      -1.710  -1.393   0.152  0.00  0.00    +0.180 C 
ATOM     24  C   UNL     1      -1.208  -1.669  -1.268  0.00  0.00    +0.186 C 
ATOM     25  C   UNL     1       0.245  -1.202  -1.388  0.00  0.00    +0.266 C 
ATOM     26  O   UNL     1       0.326   0.187  -1.062  0.00  0.00    -0.322 OA
BRANCH  25  27
ATOM     27  C   UNL     1       0.727  -1.416  -2.800  0.00  0.00    +0.387 C 
ATOM     28  O   UNL     1       1.016  -0.468  -3.490  0.00  0.00    -0.243 OA
ATOM     29  O   UNL     1       0.834  -2.661  -3.290  0.00  0.00    -0.243 OA
ENDBRANCH  25  27
BRANCH  24  30
ATOM     30  O   UNL     1      -1.284  -3.070  -1.538  0.00  0.00    -0.386 OA
ATOM     31  H   UNL     1      -0.965  -3.461  -2.515  0.00  0.00    +0.210 HD
ENDBRANCH  24  30
BRANCH  23  32
ATOM     32  O   UNL     1      -3.088  -1.758   0.253  0.00  0.00    -0.386 OA
ATOM     33  H   UNL     1      -3.396  -2.798   0.067  0.00  0.00    +0.210 HD
ENDBRANCH  23  32
BRANCH  22  34
ATOM     34  O   UNL     1      -2.371   0.858  -0.437  0.00  0.00    -0.383 OA
ATOM     35  H   UNL     1      -3.460   0.708  -0.446  0.00  0.00    +0.210 HD
ENDBRANCH  22  34
ENDBRANCH  20  21
ENDBRANCH   5  20
TORSDOF 9
