REMARK  Name = ZINC22278461
REMARK  3 active torsions:
REMARK  status: ('A' for Active; 'I' for Inactive)
REMARK    1  A    between atoms: C_11  and  C_29
REMARK    2  A    between atoms: C_14  and  C_16
REMARK    3  A    between atoms: C_16  and  N_17
REMARK                            x       y       z     vdW  Elec       q    Type
REMARK                         _______ _______ _______ _____ _____    ______ ____
ROOT
ATOM      1  C   UNL     1      -9.080  -0.874   1.520  0.00  0.00    +0.002 A 
ATOM      2  C   UNL     1      -7.910  -1.561   1.254  0.00  0.00    +0.002 A 
ATOM      3  C   UNL     1      -7.081  -1.154   0.226  0.00  0.00    +0.025 A 
ATOM      4  C   UNL     1      -7.422  -0.051  -0.539  0.00  0.00    +0.058 A 
ATOM      5  C   UNL     1      -8.593   0.655  -0.258  0.00  0.00    +0.055 A 
ATOM      6  C   UNL     1      -9.424   0.234   0.767  0.00  0.00    +0.025 A 
ATOM      7  N   UNL     1      -8.892   1.804  -0.998  0.00  0.00    -0.284 N 
ATOM      8  C   UNL     1      -8.837   1.784  -2.348  0.00  0.00    +0.219 C 
ATOM      9  O   UNL     1      -9.018   2.807  -2.974  0.00  0.00    -0.275 OA
ATOM     10  C   UNL     1      -8.554   0.499  -3.080  0.00  0.00    +0.128 C 
ATOM     11  C   UNL     1      -7.072   0.153  -2.973  0.00  0.00    +0.194 C 
ATOM     12  N   UNL     1      -6.606   0.363  -1.601  0.00  0.00    -0.256 N 
ATOM     13  C   UNL     1      -5.416   0.949  -1.363  0.00  0.00    +0.240 C 
ATOM     14  O   UNL     1      -4.718   1.304  -2.289  0.00  0.00    -0.273 OA
ATOM     15  H   UNL     1      -9.173   2.734  -0.481  0.00  0.00    +0.155 HD
ENDROOT
BRANCH  11  16
ATOM     16  C   UNL     1      -6.867  -1.313  -3.360  0.00  0.00    +0.409 C 
ATOM     17  F   UNL     1      -7.595  -2.131  -2.489  0.00  0.00    -0.169 F 
ATOM     18  F   UNL     1      -7.313  -1.515  -4.671  0.00  0.00    -0.169 F 
ATOM     19  F   UNL     1      -5.508  -1.632  -3.275  0.00  0.00    -0.169 F 
ENDBRANCH  11  16
BRANCH  13  20
ATOM     20  C   UNL     1      -4.952   1.165   0.055  0.00  0.00    +0.222 C 
BRANCH  20  21
ATOM     21  N   UNL     1      -3.639   1.814   0.046  0.00  0.00    -0.290 N 
ATOM     22  C   UNL     1      -3.558   3.170   0.052  0.00  0.00    +0.203 A 
ATOM     23  N   UNL     1      -2.434   3.819   0.045  0.00  0.00    -0.237 NA
ATOM     24  C   UNL     1      -1.240   3.174   0.030  0.00  0.00    +0.078 A 
ATOM     25  C   UNL     1      -0.031   3.871   0.022  0.00  0.00    +0.029 A 
ATOM     26  C   UNL     1       1.157   3.176   0.008  0.00  0.00    +0.017 A 
ATOM     27  C   UNL     1       1.169   1.786   0.001  0.00  0.00    +0.019 A 
ATOM     28  C   UNL     1      -0.013   1.076   0.008  0.00  0.00    +0.030 A 
ATOM     29  C   UNL     1      -1.226   1.761   0.017  0.00  0.00    +0.066 A 
ATOM     30  C   UNL     1      -2.517   1.057   0.031  0.00  0.00    +0.262 A 
ATOM     31  O   UNL     1      -2.574  -0.159   0.024  0.00  0.00    -0.267 OA
ATOM     32 BR   UNL     1       2.818   0.862  -0.019  0.00  0.00    -0.050 Br
ENDBRANCH  20  21
ENDBRANCH  13  20
TORSDOF 3
