REMARK  Name = ZINC38685266
REMARK  7 active torsions:
REMARK  status: ('A' for Active; 'I' for Inactive)
REMARK    1  A    between atoms: C_3  and  N_29
REMARK    2  A    between atoms: C_6  and  C_7
REMARK    3  A    between atoms: C_7  and  O_8
REMARK    4  A    between atoms: O_8  and  C_9
REMARK    5  A    between atoms: C_12  and  C_16
REMARK    6  A    between atoms: C_13  and  O_15
REMARK    7  A    between atoms: C_18  and  C_22
REMARK                            x       y       z     vdW  Elec       q    Type
REMARK                         _______ _______ _______ _____ _____    ______ ____
ROOT
ATOM      1  C   UNL     1      -2.874  -1.700  -1.505  0.00  0.00    +0.124 A 
ATOM      2  C   UNL     1      -3.593  -2.134  -0.400  0.00  0.00    +0.046 A 
ATOM      3  C   UNL     1      -4.772  -2.834  -0.573  0.00  0.00    +0.013 A 
ATOM      4  C   UNL     1      -5.237  -3.104  -1.846  0.00  0.00    +0.022 A 
ATOM      5  C   UNL     1      -4.521  -2.673  -2.954  0.00  0.00    +0.126 A 
ATOM      6  C   UNL     1      -3.342  -1.965  -2.783  0.00  0.00    +0.091 A 
ENDROOT
BRANCH   4   7
ATOM      7  C   UNL     1      -6.522  -3.869  -2.031  0.00  0.00    +0.164 C 
ATOM      8  C   UNL     1      -6.248  -5.357  -2.166  0.00  0.00    +0.008 C 
ATOM      9  C   UNL     1      -6.896  -5.898  -1.107  0.00  0.00    +0.139 C 
ATOM     10  N   UNL     1      -7.500  -4.943  -0.387  0.00  0.00    -0.185 NA
ATOM     11  N   UNL     1      -7.354  -3.793  -0.818  0.00  0.00    -0.297 N 
ATOM     12  H   UNL     1      -7.719  -2.984  -0.426  0.00  0.00    +0.183 HD
BRANCH   8  13
ATOM     13  C   UNL     1      -5.464  -6.048  -3.202  0.00  0.00    -0.018 A 
ATOM     14  C   UNL     1      -4.088  -5.823  -3.309  0.00  0.00    +0.009 A 
ATOM     15  C   UNL     1      -3.360  -6.473  -4.282  0.00  0.00    +0.016 A 
ATOM     16  C   UNL     1      -3.988  -7.348  -5.153  0.00  0.00    +0.018 A 
ATOM     17  C   UNL     1      -5.351  -7.576  -5.053  0.00  0.00    +0.016 A 
ATOM     18  C   UNL     1      -6.090  -6.937  -4.081  0.00  0.00    +0.009 A 
ATOM     19 BR   UNL     1      -2.981  -8.236  -6.484  0.00  0.00    -0.050 Br
ENDBRANCH   8  13
ENDBRANCH   4   7
BRANCH   5  20
ATOM     20  O   UNL     1      -4.980  -2.939  -4.205  0.00  0.00    -0.506 OA
ATOM     21  H   UNL     1      -5.564  -2.257  -4.564  0.00  0.00    +0.292 HD
ENDBRANCH   5  20
BRANCH   1  22
ATOM     22  O   UNL     1      -1.715  -1.012  -1.334  0.00  0.00    -0.487 OA
BRANCH  22  23
ATOM     23  C   UNL     1      -1.293  -0.775   0.010  0.00  0.00    +0.264 C 
BRANCH  23  29
ATOM     24  C   UNL     1      -0.017   1.378   0.010  0.00  0.00    +0.009 A 
ATOM     25  C   UNL     1       1.171   2.086   0.002  0.00  0.00    +0.033 A 
ATOM     26  C   UNL     1       2.377   1.411  -0.013  0.00  0.00    +0.126 A 
ATOM     27  C   UNL     1       2.396   0.029  -0.020  0.00  0.00    +0.033 A 
ATOM     28  C   UNL     1       1.208  -0.679  -0.012  0.00  0.00    +0.009 A 
ATOM     29  C   UNL     1       0.002  -0.004   0.002  0.00  0.00    -0.010 A 
BRANCH  26  30
ATOM     30  N   UNL     1       3.649   2.168  -0.022  0.00  0.00    +0.056 N 
ATOM     31  O   UNL     1       3.633   3.377  -0.016  0.00  0.00    -0.126 OA
ATOM     32  O   UNL     1       4.704   1.578  -0.035  0.00  0.00    -0.126 OA
ENDBRANCH  26  30
ENDBRANCH  23  29
ENDBRANCH  22  23
ENDBRANCH   1  22
TORSDOF 7
