REMARK  Name = ZINC39481407
REMARK  9 active torsions:
REMARK  status: ('A' for Active; 'I' for Inactive)
REMARK    1  A    between atoms: C_1  and  C_2
REMARK    2  A    between atoms: C_2  and  C_3
REMARK    3  A    between atoms: C_3  and  C_4
REMARK    4  A    between atoms: C_7  and  N_18
REMARK    5  A    between atoms: C_8  and  N_10
REMARK    6  A    between atoms: N_18  and  S_19
REMARK    7  A    between atoms: S_19  and  S_22
REMARK    8  A    between atoms: S_22  and  O_25
REMARK    9  A    between atoms: O_25  and  C_26
REMARK                            x       y       z     vdW  Elec       q    Type
REMARK                         _______ _______ _______ _____ _____    ______ ____
ROOT
ATOM      1  C   UNL     1       0.179  -2.063  -0.970  0.00  0.00    -0.046 A 
ATOM      2  C   UNL     1       1.319  -2.633  -0.434  0.00  0.00    +0.005 A 
ATOM      3  C   UNL     1       1.529  -3.995  -0.535  0.00  0.00    +0.026 A 
ATOM      4  C   UNL     1       0.595  -4.795  -1.177  0.00  0.00    +0.070 A 
ATOM      5  C   UNL     1      -0.554  -4.220  -1.718  0.00  0.00    +0.053 A 
ATOM      6  C   UNL     1      -0.759  -2.853  -1.607  0.00  0.00    +0.028 A 
ENDROOT
BRANCH   5   7
ATOM      7  N   UNL     1      -1.501  -5.022  -2.368  0.00  0.00    -0.325 N 
ATOM      8  C   UNL     1      -2.618  -5.624  -1.624  0.00  0.00    +0.120 C 
ATOM      9  C   UNL     1      -2.659  -7.124  -1.937  0.00  0.00    +0.101 C 
ATOM     10  N   UNL     1      -2.707  -7.315  -3.393  0.00  0.00    -0.302 NA
ATOM     11  C   UNL     1      -1.494  -6.796  -4.039  0.00  0.00    +0.139 C 
ATOM     12  C   UNL     1      -1.409  -5.279  -3.813  0.00  0.00    +0.135 C 
ATOM     13 BR   UNL     1      -1.568  -7.168  -5.968  0.00  0.00    -0.070 Br
ATOM     14  H   UNL     1      -2.853  -8.286  -3.625  0.00  0.00    +0.123 HD
ENDBRANCH   5   7
BRANCH   4  15
ATOM     15  N   UNL     1       0.806  -6.175  -1.282  0.00  0.00    -0.197 N 
ATOM     16  H   UNL     1       0.521  -6.651  -2.078  0.00  0.00    +0.175 HD
BRANCH  15  17
ATOM     17  S   UNL     1       1.544  -6.996  -0.047  0.00  0.00    +0.200 S 
ATOM     18  O   UNL     1       1.480  -8.376  -0.382  0.00  0.00    -0.129 OA
ATOM     19  O   UNL     1       2.773  -6.329   0.207  0.00  0.00    -0.129 OA
BRANCH  17  20
ATOM     20  S   UNL     1       0.384  -6.745   1.625  0.00  0.00    +0.268 S 
ATOM     21  O   UNL     1       0.447  -5.366   1.960  0.00  0.00    -0.111 OA
ATOM     22  O   UNL     1      -0.845  -7.412   1.371  0.00  0.00    -0.111 OA
BRANCH  20  23
ATOM     23  O   UNL     1       1.062  -7.500   2.760  0.00  0.00    -0.328 OA
BRANCH  23  24
ATOM     24  C   UNL     1       2.165  -6.879   3.256  0.00  0.00    +0.158 A 
ATOM     25  C   UNL     1       3.413  -7.139   2.709  0.00  0.00    +0.048 A 
ATOM     26  C   UNL     1       4.532  -6.506   3.214  0.00  0.00    +0.004 A 
ATOM     27  C   UNL     1       4.409  -5.615   4.264  0.00  0.00    +0.000 A 
ATOM     28  C   UNL     1       3.166  -5.354   4.811  0.00  0.00    +0.004 A 
ATOM     29  C   UNL     1       2.043  -5.980   4.305  0.00  0.00    +0.048 A 
ENDBRANCH  23  24
ENDBRANCH  20  23
ENDBRANCH  17  20
ENDBRANCH  15  17
ENDBRANCH   4  15
BRANCH   1  30
ATOM     30  C   UNL     1      -0.043  -0.577  -0.856  0.00  0.00    +0.035 C 
BRANCH  30  32
ATOM     31  C   UNL     1      -1.027   1.236   0.554  0.00  0.00    +0.004 C 
ATOM     32  C   UNL     1      -0.801  -0.273   0.438  0.00  0.00    +0.001 C 
ENDBRANCH  30  32
ENDBRANCH   1  30
TORSDOF 8
