REMARK  Name = ZINC12644553
REMARK  6 active torsions:
REMARK  status: ('A' for Active; 'I' for Inactive)
REMARK    1  A    between atoms: C_3  and  O_28
REMARK    2  A    between atoms: C_4  and  C_8
REMARK    3  A    between atoms: C_8  and  O_10
REMARK    4  A    between atoms: O_10  and  C_11
REMARK    5  A    between atoms: C_11  and  C_12
REMARK    6  A    between atoms: N_17  and  C_18
REMARK                            x       y       z     vdW  Elec       q    Type
REMARK                         _______ _______ _______ _____ _____    ______ ____
ROOT
ATOM      1  C   UNL     1       3.437   7.473   0.010  0.00  0.00    +0.258 C 
ATOM      2  O   UNL     1       2.308   7.913   0.023  0.00  0.00    -0.272 OA
ATOM      3  N   UNL     1       4.489   8.316   0.005  0.00  0.00    -0.237 N 
ATOM      4  C   UNL     1       4.284   9.649   0.014  0.00  0.00    +0.306 C 
ATOM      5  O   UNL     1       3.151  10.089   0.027  0.00  0.00    -0.252 OA
ATOM      6  N   UNL     1       5.335  10.492   0.009  0.00  0.00    -0.294 N 
ATOM      7  H   UNL     1       5.393   7.965  -0.005  0.00  0.00    +0.159 HD
ATOM      8  H   UNL     1       6.239  10.140  -0.001  0.00  0.00    +0.151 HD
ENDROOT
BRANCH   6   9
ATOM      9  C   UNL     1       5.113  11.940   0.019  0.00  0.00    +0.037 C 
ATOM     10  C   UNL     1       4.311  12.341  -1.221  0.00  0.00    +0.029 C 
ATOM     11  C   UNL     1       4.079  13.853  -1.211  0.00  0.00    -0.008 C 
ATOM     12  C   UNL     1       5.427  14.577  -1.219  0.00  0.00    +0.007 C 
ATOM     13  C   UNL     1       6.229  14.175   0.021  0.00  0.00    -0.008 C 
ATOM     14  C   UNL     1       6.461  12.663   0.011  0.00  0.00    +0.029 C 
ATOM     15  C   UNL     1       5.450  14.563   1.279  0.00  0.00    +0.007 C 
ATOM     16  C   UNL     1       4.101  13.840   1.288  0.00  0.00    -0.008 C 
ATOM     17  C   UNL     1       3.300  14.241   0.048  0.00  0.00    +0.007 C 
ATOM     18  C   UNL     1       4.334  12.328   1.278  0.00  0.00    +0.029 C 
ENDBRANCH   6   9
BRANCH   1  19
ATOM     19  C   UNL     1       3.666   5.984   0.000  0.00  0.00    +0.328 C 
BRANCH  19  20
ATOM     20  O   UNL     1       2.387   5.297   0.008  0.00  0.00    -0.452 OA
BRANCH  20  21
ATOM     21  C   UNL     1       2.415   3.950   0.001  0.00  0.00    +0.343 C 
ATOM     22  O   UNL     1       3.480   3.365  -0.012  0.00  0.00    -0.245 OA
BRANCH  21  26
ATOM     23  C   UNL     1      -1.218   1.749   0.017  0.00  0.00    +0.019 A 
ATOM     24  C   UNL     1      -0.013   1.076   0.008  0.00  0.00    +0.047 A 
ATOM     25  C   UNL     1       1.179   1.784   0.000  0.00  0.00    +0.131 A 
ATOM     26  C   UNL     1       1.155   3.186   0.008  0.00  0.00    +0.101 A 
ATOM     27  C   UNL     1      -0.072   3.855   0.024  0.00  0.00    +0.034 A 
ATOM     28  C   UNL     1      -1.248   3.135   0.031  0.00  0.00    +0.019 A 
ATOM     29 BR   UNL     1      -2.907   4.041   0.051  0.00  0.00    -0.050 Br
BRANCH  25  30
ATOM     30  O   UNL     1       2.364   1.124  -0.015  0.00  0.00    -0.506 OA
ATOM     31  H   UNL     1       2.699   0.938  -0.903  0.00  0.00    +0.292 HD
ENDBRANCH  25  30
ENDBRANCH  21  26
ENDBRANCH  20  21
ENDBRANCH  19  20
ENDBRANCH   1  19
TORSDOF 6
