REMARK  Name = ZINC22397233
REMARK  8 active torsions:
REMARK  status: ('A' for Active; 'I' for Inactive)
REMARK    1  A    between atoms: C_1  and  S_2
REMARK    2  A    between atoms: S_2  and  C_3
REMARK    3  A    between atoms: C_6  and  S_9
REMARK    4  A    between atoms: S_9  and  N_12
REMARK    5  A    between atoms: N_12  and  C_13
REMARK    6  A    between atoms: N_12  and  C_28
REMARK    7  A    between atoms: C_13  and  C_14
REMARK    8  A    between atoms: N_16  and  C_17
REMARK                            x       y       z     vdW  Elec       q    Type
REMARK                         _______ _______ _______ _____ _____    ______ ____
ROOT
ATOM      1  N   UNL     1      -1.096   8.462  -0.667  0.00  0.00    -0.194 N 
ENDROOT
BRANCH   1   2
ATOM      2  C   UNL     1       0.290   8.455  -0.838  0.00  0.00    +0.055 A 
ATOM      3  C   UNL     1       1.090   9.300  -0.079  0.00  0.00    +0.025 A 
ATOM      4  C   UNL     1       2.461   9.288  -0.247  0.00  0.00    +0.005 A 
ATOM      5  C   UNL     1       3.038   8.443  -1.176  0.00  0.00    +0.038 A 
ATOM      6  C   UNL     1       2.245   7.602  -1.939  0.00  0.00    +0.125 A 
ATOM      7  C   UNL     1       0.871   7.606  -1.772  0.00  0.00    +0.063 A 
ATOM      8  F   UNL     1       2.812   6.778  -2.847  0.00  0.00    -0.205 F 
ENDBRANCH   1   2
BRANCH   1   9
ATOM      9  S   UNL     1      -1.974   9.806  -1.076  0.00  0.00    +0.075 S 
ATOM     10  O   UNL     1      -1.149  10.585  -1.931  0.00  0.00    -0.150 OA
ATOM     11  O   UNL     1      -3.260   9.346  -1.468  0.00  0.00    -0.150 OA
BRANCH   9  15
ATOM     12  C   UNL     1      -2.562  12.224   2.708  0.00  0.00    +0.008 A 
ATOM     13  C   UNL     1      -1.528  12.538   1.834  0.00  0.00    +0.016 A 
ATOM     14  C   UNL     1      -1.351  11.798   0.682  0.00  0.00    +0.030 A 
ATOM     15  C   UNL     1      -2.202  10.746   0.397  0.00  0.00    +0.109 A 
ATOM     16  C   UNL     1      -3.235  10.434   1.261  0.00  0.00    +0.030 A 
ATOM     17  C   UNL     1      -3.415  11.166   2.418  0.00  0.00    +0.016 A 
BRANCH  12  19
ATOM     18  C   UNL     1      -4.229  12.396   4.974  0.00  0.00    +0.090 C 
ATOM     19  S   UNL     1      -2.791  13.165   4.180  0.00  0.00    -0.129 S 
ENDBRANCH  12  19
ENDBRANCH   9  15
ENDBRANCH   1   9
BRANCH   1  20
ATOM     20  C   UNL     1      -1.773   7.281  -0.126  0.00  0.00    +0.227 C 
BRANCH  20  21
ATOM     21  C   UNL     1      -1.732   7.324   1.380  0.00  0.00    +0.233 C 
ATOM     22  O   UNL     1      -1.190   8.250   1.945  0.00  0.00    -0.274 OA
ATOM     23  N   UNL     1      -2.297   6.334   2.098  0.00  0.00    -0.307 N 
ATOM     24  H   UNL     1      -2.789   5.494   1.585  0.00  0.00    +0.149 HD
BRANCH  23  25
ATOM     25  C   UNL     1      -2.257   6.376   3.562  0.00  0.00    +0.103 C 
ATOM     26  C   UNL     1      -3.440   5.587   4.120  0.00  0.00    +0.027 C 
ATOM     27  C   UNL     1      -3.263   5.459   5.638  0.00  0.00    +0.007 C 
ATOM     28  C   UNL     1      -2.092   4.517   5.909  0.00  0.00    +0.035 C 
ATOM     29  C   UNL     1      -0.879   4.936   5.120  0.00  0.00    -0.042 A 
ATOM     30  C   UNL     1      -0.955   5.788   4.040  0.00  0.00    -0.024 A 
ATOM     31  C   UNL     1       0.201   6.129   3.351  0.00  0.00    +0.006 A 
ATOM     32  C   UNL     1       1.425   5.630   3.744  0.00  0.00    +0.000 A 
ATOM     33  C   UNL     1       1.503   4.783   4.834  0.00  0.00    +0.000 A 
ATOM     34  C   UNL     1       0.356   4.442   5.520  0.00  0.00    +0.004 A 
ENDBRANCH  23  25
ENDBRANCH  20  21
ENDBRANCH   1  20
TORSDOF 7
