REMARK  Name = ZINC13072603
REMARK  8 active torsions:
REMARK  status: ('A' for Active; 'I' for Inactive)
REMARK    1  A    between atoms: C_1  and  N_54
REMARK    2  A    between atoms: C_2  and  C_3
REMARK    3  A    between atoms: C_2  and  N_54
REMARK    4  A    between atoms: C_11  and  N_12
REMARK    5  A    between atoms: C_11  and  N_54
REMARK    6  A    between atoms: N_15  and  C_25
REMARK    7  A    between atoms: C_16  and  C_18
REMARK    8  A    between atoms: C_25  and  C_26
REMARK                            x       y       z     vdW  Elec       q    Type
REMARK                         _______ _______ _______ _____ _____    ______ ____
ROOT
ATOM      1  N   UNL     1      -2.752   1.879   5.082  0.00  0.00    -0.257 N 
ATOM      2  C   UNL     1      -2.525   1.159   3.964  0.00  0.00    +0.177 A 
ATOM      3  S   UNL     1      -3.670   0.195   3.133  0.00  0.00    -0.011 S 
ATOM      4  N   UNL     1      -1.233   1.333   3.622  0.00  0.00    -0.301 N 
ATOM      5  C   UNL     1      -0.649   2.174   4.548  0.00  0.00    +0.163 A 
ATOM      6  N   UNL     1      -1.551   2.513   5.426  0.00  0.00    -0.152 NA
ENDROOT
BRANCH   5   7
ATOM      7  C   UNL     1       0.763   2.618   4.543  0.00  0.00    +0.019 A 
ATOM      8  C   UNL     1       1.513   2.553   3.369  0.00  0.00    +0.013 A 
ATOM      9  C   UNL     1       2.827   2.973   3.369  0.00  0.00    +0.021 A 
ATOM     10  C   UNL     1       3.405   3.448   4.534  0.00  0.00    +0.041 A 
ATOM     11  C   UNL     1       2.666   3.510   5.704  0.00  0.00    +0.021 A 
ATOM     12  C   UNL     1       1.350   3.098   5.715  0.00  0.00    +0.013 A 
ATOM     13 CL   UNL     1       5.060   3.969   4.529  0.00  0.00    -0.084 Cl
ENDBRANCH   5   7
BRANCH   1  14
ATOM     14  C   UNL     1      -4.023   1.981   5.803  0.00  0.00    +0.072 C 
BRANCH  14  16
ATOM     15  C   UNL     1      -4.152  -0.405   6.196  0.00  0.00    -0.093 C 
ATOM     16  N   UNL     1      -4.071   0.925   6.836  0.00  0.00    +0.394 N 
ATOM     17  H   UNL     1      -3.214   0.971   7.400  0.00  0.00    -0.079 HD
BRANCH  16  18
ATOM     18  C   UNL     1      -5.238   1.133   7.718  0.00  0.00    -0.039 C 
BRANCH  18  19
ATOM     19  C   UNL     1      -5.141   0.184   8.885  0.00  0.00    -0.045 A 
ATOM     20  C   UNL     1      -5.897  -0.973   8.899  0.00  0.00    +0.004 A 
ATOM     21  C   UNL     1      -5.805  -1.847   9.965  0.00  0.00    +0.020 A 
ATOM     22  C   UNL     1      -4.964  -1.558  11.026  0.00  0.00    +0.042 A 
ATOM     23  C   UNL     1      -4.212  -0.398  11.015  0.00  0.00    +0.040 A 
ATOM     24  C   UNL     1      -4.300   0.473   9.944  0.00  0.00    +0.044 A 
ATOM     25 CL   UNL     1      -3.357   1.931   9.930  0.00  0.00    -0.083 Cl
ATOM     26 CL   UNL     1      -4.853  -2.653  12.369  0.00  0.00    -0.083 Cl
ENDBRANCH  18  19
ENDBRANCH  16  18
ENDBRANCH  14  16
ENDBRANCH   1  14
BRANCH   4  27
ATOM     27  C   UNL     1      -0.562   0.730   2.467  0.00  0.00    +0.157 C 
BRANCH  27  28
ATOM     28  C   UNL     1      -0.740   1.632   1.245  0.00  0.00    +0.138 C 
ATOM     29  C   UNL     1       0.065   1.083   0.039  0.00  0.00    +0.035 C 
ATOM     30  C   UNL     1      -0.704   1.682  -1.164  0.00  0.00    +0.031 C 
ATOM     31  C   UNL     1      -2.095   2.020  -0.594  0.00  0.00    +0.160 C 
ATOM     32  O   UNL     1      -2.107   1.598   0.780  0.00  0.00    -0.375 OA
ENDBRANCH  27  28
ENDBRANCH   4  27
TORSDOF 7
