REMARK  Name = ZINC25943069
REMARK  6 active torsions:
REMARK  status: ('A' for Active; 'I' for Inactive)
REMARK    1  A    between atoms: C_1  and  C_2
REMARK    2  A    between atoms: C_7  and  N_12
REMARK    3  A    between atoms: C_9  and  C_11
REMARK    4  A    between atoms: C_13  and  C_15
REMARK    5  A    between atoms: C_15  and  C_16
REMARK    6  A    between atoms: C_19  and  C_21
REMARK                            x       y       z     vdW  Elec       q    Type
REMARK                         _______ _______ _______ _____ _____    ______ ____
ROOT
ATOM      1  N   UNL     1      -1.372  -0.511   0.012  0.00  0.00    -0.312 N 
ATOM      2  C   UNL     1      -2.029  -0.655   1.181  0.00  0.00    +0.219 C 
ATOM      3  O   UNL     1      -1.481  -0.365   2.224  0.00  0.00    -0.275 OA
ATOM      4  H   UNL     1      -1.869  -0.774  -0.933  0.00  0.00    +0.149 HD
ENDROOT
BRANCH   1  10
ATOM      5  C   UNL     1       2.870  -0.461  -2.526  0.00  0.00    +0.008 C 
ATOM      6  C   UNL     1       2.154   0.032  -1.268  0.00  0.00    -0.009 C 
ATOM      7  C   UNL     1       2.133   1.562  -1.259  0.00  0.00    +0.003 C 
ATOM      8  C   UNL     1       1.417   2.055  -0.000  0.00  0.00    +0.002 C 
ATOM      9  C   UNL     1      -0.019   1.526   0.010  0.00  0.00    +0.022 C 
ATOM     10  C   UNL     1       0.002  -0.004   0.002  0.00  0.00    +0.076 C 
ATOM     11  C   UNL     1       0.718  -0.497  -1.257  0.00  0.00    +0.009 C 
ATOM     12  C   UNL     1       0.739  -2.027  -1.265  0.00  0.00    +0.009 C 
ENDBRANCH   1  10
BRANCH   2  13
ATOM     13  C   UNL     1      -3.442  -1.177   1.191  0.00  0.00    +0.151 C 
BRANCH  13  14
ATOM     14  C   UNL     1      -3.943  -1.242   2.611  0.00  0.00    +0.058 A 
ATOM     15  C   UNL     1      -5.092  -0.604   2.958  0.00  0.00    +0.071 A 
ATOM     16  S   UNL     1      -5.189  -1.016   4.695  0.00  0.00    -0.072 S 
ATOM     17  C   UNL     1      -3.688  -1.984   4.774  0.00  0.00    +0.144 A 
ATOM     18  N   UNL     1      -3.268  -1.911   3.516  0.00  0.00    -0.240 NA
BRANCH  17  19
ATOM     19  C   UNL     1      -3.081  -2.674   5.923  0.00  0.00    +0.160 A 
ATOM     20  C   UNL     1      -3.573  -2.698   7.193  0.00  0.00    +0.052 A 
ATOM     21  C   UNL     1      -2.680  -3.472   7.959  0.00  0.00    +0.042 A 
ATOM     22  C   UNL     1      -1.694  -3.872   7.132  0.00  0.00    +0.196 A 
ATOM     23  O   UNL     1      -1.938  -3.389   5.903  0.00  0.00    -0.461 OA
ENDBRANCH  17  19
ENDBRANCH  13  14
ENDBRANCH   2  13
TORSDOF 4
