REMARK  Name = ZINC54640873
REMARK  8 active torsions:
REMARK  status: ('A' for Active; 'I' for Inactive)
REMARK    1  A    between atoms: C_1  and  C_2
REMARK    2  A    between atoms: C_3  and  C_28
REMARK    3  A    between atoms: C_4  and  C_21
REMARK    4  A    between atoms: C_9  and  S_11
REMARK    5  A    between atoms: S_11  and  C_12
REMARK    6  A    between atoms: C_12  and  C_13
REMARK    7  A    between atoms: C_28  and  O_30
REMARK    8  A    between atoms: O_30  and  C_31
REMARK                            x       y       z     vdW  Elec       q    Type
REMARK                         _______ _______ _______ _____ _____    ______ ____
ROOT
ATOM      1  C   UNL     1      -0.018   1.503   0.010  0.00  0.00    +0.061 C 
ATOM      2  C   UNL     1       0.002  -0.004   0.002  0.00  0.00    +0.020 C 
ATOM      3  C   UNL     1      -1.164  -0.669   0.004  0.00  0.00    +0.082 C 
ATOM      4  C   UNL     1      -1.253  -2.171  -0.016  0.00  0.00    +0.182 C 
ATOM      5  N   UNL     1       0.065  -2.740   0.256  0.00  0.00    -0.220 N 
ATOM      6  C   UNL     1       1.210  -2.015   0.250  0.00  0.00    +0.219 A 
ATOM      7  N   UNL     1       2.201  -2.820   0.521  0.00  0.00    -0.187 NA
ATOM      8  C   UNL     1       1.731  -4.062   0.710  0.00  0.00    +0.211 A 
ATOM      9  N   UNL     1       0.424  -4.053   0.557  0.00  0.00    -0.141 NA
ATOM     10  N   UNL     1       1.212  -0.651  -0.013  0.00  0.00    -0.287 N 
ATOM     11  H   UNL     1       2.037  -0.173  -0.196  0.00  0.00    +0.155 HD
ENDROOT
BRANCH   4  12
ATOM     12  C   UNL     1      -1.728  -2.629  -1.371  0.00  0.00    +0.017 A 
ATOM     13  C   UNL     1      -0.991  -2.328  -2.500  0.00  0.00    +0.009 A 
ATOM     14  C   UNL     1      -1.427  -2.748  -3.743  0.00  0.00    +0.001 A 
ATOM     15  C   UNL     1      -2.601  -3.468  -3.858  0.00  0.00    +0.003 A 
ATOM     16  C   UNL     1      -3.340  -3.770  -2.730  0.00  0.00    +0.039 A 
ATOM     17  C   UNL     1      -2.901  -3.355  -1.484  0.00  0.00    +0.129 A 
ATOM     18  F   UNL     1      -3.621  -3.654  -0.380  0.00  0.00    -0.205 F 
ENDBRANCH   4  12
BRANCH   3  19
ATOM     19  C   UNL     1      -2.364   0.077   0.026  0.00  0.00    +0.339 C 
ATOM     20  O   UNL     1      -2.324   1.293   0.043  0.00  0.00    -0.245 OA
BRANCH  19  21
ATOM     21  O   UNL     1      -3.554  -0.560   0.029  0.00  0.00    -0.458 OA
BRANCH  21  22
ATOM     22  C   UNL     1      -4.726   0.257   0.052  0.00  0.00    +0.177 C 
ATOM     23  C   UNL     1      -5.131   0.528   1.502  0.00  0.00    +0.044 C 
ATOM     24  C   UNL     1      -6.386   1.402   1.527  0.00  0.00    +0.004 C 
ATOM     25  C   UNL     1      -7.526   0.678   0.806  0.00  0.00    +0.000 C 
ATOM     26  C   UNL     1      -7.121   0.407  -0.644  0.00  0.00    +0.004 C 
ATOM     27  C   UNL     1      -5.866  -0.467  -0.669  0.00  0.00    +0.044 C 
ENDBRANCH  21  22
ENDBRANCH  19  21
ENDBRANCH   3  19
BRANCH   8  28
ATOM     28  S   UNL     1       2.706  -5.476   1.101  0.00  0.00    -0.080 S 
BRANCH  28  29
ATOM     29  C   UNL     1       4.401  -4.835   1.173  0.00  0.00    +0.114 C 
BRANCH  29  30
ATOM     30  C   UNL     1       5.349  -5.959   1.504  0.00  0.00    -0.019 A 
ATOM     31  C   UNL     1       5.644  -6.249   2.823  0.00  0.00    +0.006 A 
ATOM     32  C   UNL     1       6.514  -7.279   3.127  0.00  0.00    +0.000 A 
ATOM     33  C   UNL     1       7.090  -8.020   2.112  0.00  0.00    +0.001 A 
ATOM     34  C   UNL     1       6.796  -7.731   0.792  0.00  0.00    +0.020 A 
ATOM     35  C   UNL     1       5.921  -6.704   0.488  0.00  0.00    +0.045 A 
ATOM     36 CL   UNL     1       5.546  -6.344  -1.169  0.00  0.00    -0.083 Cl
ENDBRANCH  29  30
ENDBRANCH  28  29
ENDBRANCH   8  28
TORSDOF 7
