REMARK  Name = ZINC39596391
REMARK  9 active torsions:
REMARK  status: ('A' for Active; 'I' for Inactive)
REMARK    1  A    between atoms: C_1  and  C_2
REMARK    2  A    between atoms: C_2  and  C_4
REMARK    3  A    between atoms: C_2  and  O_34
REMARK    4  A    between atoms: C_4  and  N_5
REMARK    5  A    between atoms: C_6  and  C_8
REMARK    6  A    between atoms: C_19  and  C_21
REMARK    7  A    between atoms: C_24  and  O_27
REMARK    8  A    between atoms: O_27  and  C_28
REMARK    9  A    between atoms: O_34  and  C_35
REMARK                            x       y       z     vdW  Elec       q    Type
REMARK                         _______ _______ _______ _____ _____    ______ ____
ROOT
ATOM      1  C   UNL     1       1.919  -4.590   3.043  0.00  0.00    +0.100 C 
ATOM      2  C   UNL     1       2.697  -4.610   1.708  0.00  0.00    +0.121 C 
ATOM      3  N   UNL     1       4.065  -5.042   2.079  0.00  0.00    -0.296 N 
ATOM      4  C   UNL     1       3.855  -6.087   3.109  0.00  0.00    +0.115 C 
ATOM      5  C   UNL     1       2.680  -5.564   3.958  0.00  0.00    -0.004 C 
ATOM      6  C   UNL     1       3.205  -4.830   5.189  0.00  0.00    -0.010 C 
ATOM      7  C   UNL     1       3.910  -5.830   6.111  0.00  0.00    -0.082 C 
ATOM      8  N   UNL     1       2.965  -6.881   6.508  0.00  0.00    +0.379 N 
ATOM      9  C   UNL     1       2.535  -7.641   5.329  0.00  0.00    -0.082 C 
ATOM     10  C   UNL     1       1.774  -6.718   4.374  0.00  0.00    -0.010 C 
ATOM     11  C   UNL     1       5.236  -4.587   1.590  0.00  0.00    +0.248 C 
ATOM     12  O   UNL     1       6.239  -4.631   2.275  0.00  0.00    -0.270 OA
ATOM     13  H   UNL     1       3.413  -7.504   7.164  0.00  0.00    -0.086 HD
ATOM     14  H   UNL     1       2.160  -6.459   6.947  0.00  0.00    -0.086 HD
ENDROOT
BRANCH  11  15
ATOM     15  C   UNL     1       5.300  -4.036   0.222  0.00  0.00    +0.055 A 
ATOM     16  C   UNL     1       6.539  -3.784  -0.387  0.00  0.00    +0.020 A 
ATOM     17  C   UNL     1       6.547  -3.269  -1.667  0.00  0.00    +0.068 A 
ATOM     18  C   UNL     1       5.337  -3.017  -2.307  0.00  0.00    +0.220 A 
ATOM     19  N   UNL     1       4.184  -3.264  -1.704  0.00  0.00    -0.220 NA
ATOM     20  C   UNL     1       4.130  -3.762  -0.487  0.00  0.00    +0.127 A 
BRANCH  18  21
ATOM     21  O   UNL     1       5.339  -2.510  -3.563  0.00  0.00    -0.438 OA
BRANCH  21  22
ATOM     22  C   UNL     1       4.424  -1.553  -3.867  0.00  0.00    +0.130 A 
ATOM     23  C   UNL     1       3.614  -1.024  -2.871  0.00  0.00    +0.046 A 
ATOM     24  C   UNL     1       2.685  -0.051  -3.182  0.00  0.00    +0.004 A 
ATOM     25  C   UNL     1       2.560   0.396  -4.485  0.00  0.00    +0.000 A 
ATOM     26  C   UNL     1       3.365  -0.129  -5.479  0.00  0.00    +0.004 A 
ATOM     27  C   UNL     1       4.301  -1.098  -5.172  0.00  0.00    +0.046 A 
ENDBRANCH  21  22
ENDBRANCH  18  21
ENDBRANCH  11  15
BRANCH   1  29
ATOM     28  N   UNL     1       0.990  -2.854   4.540  0.00  0.00    -0.312 N 
ATOM     29  C   UNL     1       1.923  -3.204   3.632  0.00  0.00    +0.218 C 
ATOM     30  O   UNL     1       2.766  -2.402   3.290  0.00  0.00    -0.275 OA
ATOM     31  H   UNL     1       0.273  -3.470   4.760  0.00  0.00    +0.149 HD
BRANCH  28  32
ATOM     32  C   UNL     1       1.058  -1.545   5.194  0.00  0.00    +0.148 C 
BRANCH  32  34
ATOM     33  C   UNL     1       0.114  -0.136   7.029  0.00  0.00    +0.053 C 
ATOM     34  C   UNL     1      -0.035  -1.450   6.261  0.00  0.00    +0.187 C 
BRANCH  34  35
ATOM     35  O   UNL     1      -1.318  -1.492   5.632  0.00  0.00    -0.488 OA
BRANCH  35  36
ATOM     36  C   UNL     1      -2.360  -1.936   6.384  0.00  0.00    +0.121 A 
ATOM     37  C   UNL     1      -2.174  -2.217   7.730  0.00  0.00    +0.048 A 
ATOM     38  C   UNL     1      -3.234  -2.668   8.493  0.00  0.00    +0.042 A 
ATOM     39  C   UNL     1      -4.480  -2.841   7.915  0.00  0.00    +0.124 A 
ATOM     40  C   UNL     1      -4.666  -2.562   6.572  0.00  0.00    +0.042 A 
ATOM     41  C   UNL     1      -3.610  -2.104   5.808  0.00  0.00    +0.048 A 
ATOM     42  F   UNL     1      -5.515  -3.283   8.662  0.00  0.00    -0.205 F 
ENDBRANCH  35  36
ENDBRANCH  34  35
ENDBRANCH  32  34
ENDBRANCH  28  32
ENDBRANCH   1  29
TORSDOF 8
