REMARK  Name = ZINC11866759
REMARK  13 active torsions:
REMARK  status: ('A' for Active; 'I' for Inactive)
REMARK    1  A    between atoms: C_1  and  C_2
REMARK    2  A    between atoms: C_2  and  C_3
REMARK    3  A    between atoms: C_3  and  C_4
REMARK    4  A    between atoms: C_5  and  C_38
REMARK    5  A    between atoms: C_9  and  O_15
REMARK    6  A    between atoms: O_15  and  C_16
REMARK    7  A    between atoms: C_16  and  C_18
REMARK    8  A    between atoms: C_18  and  C_20
REMARK    9  A    between atoms: C_18  and  N_27
REMARK   10  A    between atoms: C_20  and  C_21
REMARK   11  A    between atoms: N_27  and  S_28
REMARK   12  A    between atoms: S_28  and  C_31
REMARK   13  A    between atoms: C_34  and  C_37
REMARK                            x       y       z     vdW  Elec       q    Type
REMARK                         _______ _______ _______ _____ _____    ______ ____
ROOT
ATOM      1  C   UNL     1       2.517  -4.126  -0.269  0.00  0.00    +0.189 C 
ENDROOT
BRANCH   1   2
ATOM      2  C   UNL     1       2.429  -2.627  -0.140  0.00  0.00    +0.331 C 
ATOM      3  O   UNL     1       3.436  -1.960  -0.143  0.00  0.00    -0.249 OA
BRANCH   2   4
ATOM      4  O   UNL     1       1.230  -2.034  -0.021  0.00  0.00    -0.425 OA
BRANCH   4  10
ATOM      5  C   UNL     1       0.833   4.189   1.092  0.00  0.00    +0.041 A 
ATOM      6  C   UNL     1       1.155   3.554  -0.065  0.00  0.00    -0.030 A 
ATOM      7  C   UNL     1       1.179   2.090  -0.068  0.00  0.00    +0.021 A 
ATOM      8  C   UNL     1       1.503   1.377  -1.227  0.00  0.00    +0.015 A 
ATOM      9  C   UNL     1       1.517   0.012  -1.202  0.00  0.00    +0.047 A 
ATOM     10  C   UNL     1       1.212  -0.676  -0.029  0.00  0.00    +0.135 A 
ATOM     11  C   UNL     1       0.888   0.014   1.127  0.00  0.00    +0.093 A 
ATOM     12  C   UNL     1       0.869   1.401   1.119  0.00  0.00    +0.143 A 
ATOM     13  O   UNL     1       0.551   2.093   2.235  0.00  0.00    -0.422 OA
ATOM     14  C   UNL     1       0.533   3.435   2.245  0.00  0.00    +0.341 A 
ATOM     15  O   UNL     1       0.245   4.016   3.276  0.00  0.00    -0.245 OA
ATOM     16  C   UNL     1       1.480   4.336  -1.312  0.00  0.00    +0.045 C 
BRANCH   5  17
ATOM     17  C   UNL     1       0.795   5.695   1.142  0.00  0.00    +0.042 C 
BRANCH  17  19
ATOM     18  C   UNL     1      -0.648   7.711   0.835  0.00  0.00    +0.004 C 
ATOM     19  C   UNL     1      -0.610   6.182   0.783  0.00  0.00    +0.001 C 
ENDBRANCH  17  19
ENDBRANCH   5  17
ENDBRANCH   4  10
ENDBRANCH   2   4
ENDBRANCH   1   2
BRANCH   1  20
ATOM     20  N   UNL     1       3.923  -4.524  -0.383  0.00  0.00    -0.176 NA
ATOM     21  H   UNL     1       4.606  -4.036   0.102  0.00  0.00    +0.149 HD
BRANCH  20  22
ATOM     22  S   UNL     1       4.344  -5.808  -1.341  0.00  0.00    +0.059 S 
ATOM     23  O   UNL     1       5.758  -5.924  -1.266  0.00  0.00    -0.153 OA
ATOM     24  O   UNL     1       3.473  -6.876  -0.996  0.00  0.00    -0.153 OA
BRANCH  22  25
ATOM     25  C   UNL     1       3.963  -5.365  -3.003  0.00  0.00    +0.105 A 
ATOM     26  C   UNL     1       2.717  -5.654  -3.527  0.00  0.00    +0.029 A 
ATOM     27  C   UNL     1       2.417  -5.302  -4.830  0.00  0.00    +0.005 A 
ATOM     28  C   UNL     1       3.366  -4.671  -5.612  0.00  0.00    -0.050 A 
ATOM     29  C   UNL     1       4.614  -4.386  -5.089  0.00  0.00    +0.005 A 
ATOM     30  C   UNL     1       4.912  -4.734  -3.785  0.00  0.00    +0.029 A 
ATOM     31  C   UNL     1       3.040  -4.292  -7.034  0.00  0.00    +0.044 C 
ENDBRANCH  22  25
ENDBRANCH  20  22
ENDBRANCH   1  20
BRANCH   1  32
ATOM     32  C   UNL     1       1.901  -4.782   0.968  0.00  0.00    +0.067 C 
BRANCH  32  33
ATOM     33  C   UNL     1       1.878  -6.278   0.785  0.00  0.00    -0.045 A 
ATOM     34  C   UNL     1       0.780  -6.887   0.207  0.00  0.00    +0.004 A 
ATOM     35  C   UNL     1       0.761  -8.258   0.034  0.00  0.00    +0.000 A 
ATOM     36  C   UNL     1       1.835  -9.022   0.450  0.00  0.00    +0.000 A 
ATOM     37  C   UNL     1       2.931  -8.414   1.033  0.00  0.00    +0.000 A 
ATOM     38  C   UNL     1       2.953  -7.042   1.201  0.00  0.00    +0.004 A 
ENDBRANCH  32  33
ENDBRANCH   1  32
TORSDOF 10
