REMARK  Name = ZINC13065242
REMARK  15 active torsions:
REMARK  status: ('A' for Active; 'I' for Inactive)
REMARK    1  A    between atoms: C_1  and  C_2
REMARK    2  A    between atoms: C_2  and  C_3
REMARK    3  A    between atoms: C_3  and  C_5
REMARK    4  A    between atoms: C_3  and  N_68
REMARK    5  A    between atoms: N_9  and  C_10
REMARK    6  A    between atoms: C_10  and  C_11
REMARK    7  A    between atoms: C_11  and  O_13
REMARK    8  A    between atoms: O_13  and  C_14
REMARK    9  A    between atoms: C_14  and  C_15
REMARK   10  A    between atoms: C_16  and  C_17
REMARK   11  A    between atoms: C_16  and  N_68
REMARK   12  A    between atoms: C_24  and  C_25
REMARK   13  A    between atoms: C_24  and  N_68
REMARK   14  A    between atoms: C_28  and  C_38
REMARK   15  A    between atoms: C_31  and  C_37
REMARK                            x       y       z     vdW  Elec       q    Type
REMARK                         _______ _______ _______ _____ _____    ______ ____
ROOT
ATOM      1  N   UNL     1       1.702  -2.322  -1.503  0.00  0.00    +0.392 N 
ATOM      2  H   UNL     1       2.649  -1.925  -1.472  0.00  0.00    -0.080 HD
ENDROOT
BRANCH   1   3
ATOM      3  C   UNL     1       1.791  -3.744  -1.897  0.00  0.00    +0.003 C 
BRANCH   3   4
ATOM      4  C   UNL     1       0.425  -4.286  -2.231  0.00  0.00    +0.139 A 
ATOM      5  N   UNL     1      -0.507  -3.682  -2.927  0.00  0.00    -0.115 NA
ATOM      6  N   UNL     1      -1.526  -4.469  -2.994  0.00  0.00    -0.023 NA
ATOM      7  N   UNL     1      -1.270  -5.555  -2.352  0.00  0.00    -0.043 NA
ATOM      8  N   UNL     1      -0.077  -5.481  -1.867  0.00  0.00    -0.220 N 
BRANCH   8   9
ATOM      9  C   UNL     1       0.604  -6.504  -1.069  0.00  0.00    +0.267 C 
BRANCH   9  10
ATOM     10  C   UNL     1       0.317  -6.274   0.392  0.00  0.00    +0.329 C 
ATOM     11  O   UNL     1      -0.384  -5.351   0.733  0.00  0.00    -0.249 OA
BRANCH  10  12
ATOM     12  O   UNL     1       0.841  -7.096   1.316  0.00  0.00    -0.464 OA
BRANCH  12  13
ATOM     13  C   UNL     1       0.522  -6.815   2.704  0.00  0.00    +0.229 C 
ATOM     14  C   UNL     1       1.203  -7.849   3.603  0.00  0.00    +0.048 C 
ENDBRANCH  12  13
ENDBRANCH  10  12
ENDBRANCH   9  10
ENDBRANCH   8   9
ENDBRANCH   3   4
BRANCH   3  16
ATOM     15  C   UNL     1       4.098  -3.348  -2.771  0.00  0.00    +0.002 C 
ATOM     16  C   UNL     1       2.699  -3.859  -3.123  0.00  0.00    -0.011 C 
ENDBRANCH   3  16
ENDBRANCH   1   3
BRANCH   1  17
ATOM     17  C   UNL     1       1.089  -2.206  -0.164  0.00  0.00    -0.042 C 
BRANCH  17  18
ATOM     18  C   UNL     1       2.132  -2.528   0.875  0.00  0.00    -0.064 A 
ATOM     19  C   UNL     1       2.962  -1.530   1.353  0.00  0.00    +0.004 A 
ATOM     20  C   UNL     1       3.919  -1.824   2.305  0.00  0.00    +0.038 A 
ATOM     21  C   UNL     1       4.048  -3.118   2.780  0.00  0.00    +0.123 A 
ATOM     22  C   UNL     1       3.217  -4.117   2.300  0.00  0.00    +0.038 A 
ATOM     23  C   UNL     1       2.260  -3.820   1.348  0.00  0.00    +0.004 A 
ATOM     24  F   UNL     1       4.984  -3.407   3.710  0.00  0.00    -0.205 F 
ENDBRANCH  17  18
ENDBRANCH   1  17
BRANCH   1  25
ATOM     25  C   UNL     1       0.900  -1.573  -2.493  0.00  0.00    -0.036 C 
BRANCH  25  26
ATOM     26  C   UNL     1       1.238  -0.109  -2.379  0.00  0.00    +0.001 A 
ATOM     27  C   UNL     1       2.229   0.417  -3.140  0.00  0.00    +0.017 A 
ATOM     28  C   UNL     1       2.530   1.844  -3.009  0.00  0.00    +0.002 A 
ATOM     29  C   UNL     1       3.537   2.444  -3.772  0.00  0.00    -0.041 A 
ATOM     30  C   UNL     1       3.796   3.777  -3.623  0.00  0.00    +0.004 A 
ATOM     31  C   UNL     1       3.067   4.542  -2.722  0.00  0.00    +0.005 A 
ATOM     32  C   UNL     1       2.071   3.971  -1.960  0.00  0.00    -0.026 A 
ATOM     33  C   UNL     1       1.789   2.616  -2.095  0.00  0.00    +0.052 A 
ATOM     34  N   UNL     1       0.797   2.019  -1.346  0.00  0.00    -0.322 N 
ATOM     35  H   UNL     1       0.287   2.553  -0.716  0.00  0.00    +0.169 HD
ATOM     36  C   UNL     1       0.525   0.709  -1.476  0.00  0.00    +0.251 A 
ATOM     37  O   UNL     1      -0.359   0.215  -0.798  0.00  0.00    -0.268 OA
ATOM     38  C   UNL     1       1.288   4.813  -0.986  0.00  0.00    +0.046 C 
ATOM     39  C   UNL     1       4.334   1.624  -4.753  0.00  0.00    +0.044 C 
ENDBRANCH  25  26
ENDBRANCH   1  25
TORSDOF 11
