REMARK  Name = ZINC18017093
REMARK  11 active torsions:
REMARK  status: ('A' for Active; 'I' for Inactive)
REMARK    1  A    between atoms: C_1  and  C_2
REMARK    2  A    between atoms: C_2  and  C_3
REMARK    3  A    between atoms: C_6  and  C_9
REMARK    4  A    between atoms: C_9  and  C_11
REMARK    5  A    between atoms: C_9  and  N_70
REMARK    6  A    between atoms: C_11  and  N_12
REMARK    7  A    between atoms: C_13  and  C_15
REMARK    8  A    between atoms: N_18  and  S_21
REMARK    9  A    between atoms: S_21  and  C_24
REMARK   10  A    between atoms: C_34  and  N_70
REMARK   11  A    between atoms: C_35  and  N_70
REMARK                            x       y       z     vdW  Elec       q    Type
REMARK                         _______ _______ _______ _____ _____    ______ ____
ROOT
ATOM      1  C   UNL     1       0.392   7.229   4.077  0.00  0.00    +0.077 C 
ATOM      2  C   UNL     1       1.578   6.899   3.168  0.00  0.00    +0.030 C 
ATOM      3  C   UNL     1       1.293   7.417   1.755  0.00  0.00    +0.110 C 
ATOM      4  N   UNL     1       0.011   6.864   1.298  0.00  0.00    -0.177 NA
ATOM      5  C   UNL     1      -1.179   7.051   2.140  0.00  0.00    +0.110 C 
ATOM      6  C   UNL     1      -0.865   6.532   3.551  0.00  0.00    +0.030 C 
ENDROOT
BRANCH   1   8
ATOM      7  N   UNL     1      -0.225   6.935   6.454  0.00  0.00    -0.316 N 
ATOM      8  C   UNL     1       0.684   6.751   5.476  0.00  0.00    +0.216 C 
ATOM      9  O   UNL     1       1.736   6.201   5.722  0.00  0.00    -0.276 OA
ATOM     10  H   UNL     1      -1.067   7.375   6.258  0.00  0.00    +0.149 HD
BRANCH   7  11
ATOM     11  C   UNL     1       0.058   6.470   7.814  0.00  0.00    +0.093 C 
BRANCH  11  12
ATOM     12  C   UNL     1      -1.056   6.936   8.755  0.00  0.00    -0.021 C 
BRANCH  12  16
ATOM     13  C   UNL     1      -0.321   5.433  12.685  0.00  0.00    -0.048 A 
ATOM     14  C   UNL     1      -1.299   4.856  11.896  0.00  0.00    +0.004 A 
ATOM     15  C   UNL     1      -1.537   5.343  10.624  0.00  0.00    +0.002 A 
ATOM     16  C   UNL     1      -0.797   6.406  10.141  0.00  0.00    -0.059 A 
ATOM     17  C   UNL     1       0.185   6.979  10.928  0.00  0.00    +0.002 A 
ATOM     18  C   UNL     1       0.419   6.496  12.202  0.00  0.00    +0.004 A 
BRANCH  13  20
ATOM     19  C   UNL     1       1.000   3.802  14.007  0.00  0.00    +0.009 C 
ATOM     20  C   UNL     1      -0.061   4.902  14.072  0.00  0.00    +0.032 C 
ENDBRANCH  13  20
ENDBRANCH  12  16
BRANCH  12  23
ATOM     21  C   UNL     1       0.247   8.964   8.526  0.00  0.00    -0.096 C 
ATOM     22  C   UNL     1      -2.075   8.934   7.842  0.00  0.00    -0.096 C 
ATOM     23  N   UNL     1      -1.093   8.412   8.816  0.00  0.00    +0.382 N 
ATOM     24  H   UNL     1      -1.375   8.700   9.760  0.00  0.00    -0.082 HD
ENDBRANCH  12  23
ENDBRANCH  11  12
ENDBRANCH   7  11
ENDBRANCH   1   8
BRANCH   4  25
ATOM     25  S   UNL     1      -0.093   6.052  -0.141  0.00  0.00    +0.061 S 
ATOM     26  O   UNL     1       0.987   6.509  -0.944  0.00  0.00    -0.153 OA
ATOM     27  O   UNL     1      -1.447   6.143  -0.562  0.00  0.00    -0.153 OA
BRANCH  25  28
ATOM     28  C   UNL     1       0.216   4.351   0.197  0.00  0.00    +0.106 A 
ATOM     29  C   UNL     1       1.522   3.866   0.143  0.00  0.00    +0.029 A 
ATOM     30  C   UNL     1       1.795   2.558   0.399  0.00  0.00    +0.010 A 
ATOM     31  C   UNL     1       0.747   1.679   0.723  0.00  0.00    -0.018 A 
ATOM     32  C   UNL     1       0.990   0.322   0.994  0.00  0.00    +0.008 A 
ATOM     33  C   UNL     1      -0.050  -0.500   1.304  0.00  0.00    +0.001 A 
ATOM     34  C   UNL     1      -1.357  -0.016   1.353  0.00  0.00    +0.001 A 
ATOM     35  C   UNL     1      -1.629   1.293   1.102  0.00  0.00    +0.008 A 
ATOM     36  C   UNL     1      -0.581   2.172   0.778  0.00  0.00    -0.016 A 
ATOM     37  C   UNL     1      -0.824   3.530   0.508  0.00  0.00    +0.037 A 
ENDBRANCH  25  28
ENDBRANCH   4  25
TORSDOF 8
