REMARK  Name = ZINC11865563
REMARK  13 active torsions:
REMARK  status: ('A' for Active; 'I' for Inactive)
REMARK    1  A    between atoms: CD1_1  and  CG1_2
REMARK    2  A    between atoms: CG1_2  and  CB_3
REMARK    3  A    between atoms: CB_3  and  CG2_5
REMARK    4  A    between atoms: CB_3  and  CA_6
REMARK    5  A    between atoms: CA_6  and  C_8
REMARK    6  A    between atoms: CA_6  and  N_10
REMARK    7  A    between atoms: C_11  and  C_13
REMARK    8  A    between atoms: C_13  and  N_14
REMARK    9  A    between atoms: C_15  and  C_17
REMARK   10  A    between atoms: C_17  and  C_18
REMARK   11  A    between atoms: C_18  and  C_19
REMARK   12  A    between atoms: C_20  and  C_31
REMARK   13  A    between atoms: C_24  and  O_30
REMARK                            x       y       z     vdW  Elec       q    Type
REMARK                         _______ _______ _______ _____ _____    ______ ____
ROOT
ATOM      1  N   UNK A   0      -6.721   3.317   4.771  0.00  0.00    -0.307 N 
ATOM      2  C   UNK A   0      -8.000   3.388   5.192  0.00  0.00    +0.214 C 
ATOM      3  O   UNK A   0      -8.776   2.495   4.927  0.00  0.00    -0.276 OA
ATOM      4  H   UNK A   0      -6.100   4.031   4.983  0.00  0.00    +0.149 HD
ENDROOT
BRANCH   1   5
ATOM      5  C   UNK A   0      -6.269   2.159   3.994  0.00  0.00    +0.200 C 
BRANCH   5   7
ATOM      6  N   ILE A   1      -4.177   1.374   2.935  0.00  0.00    -0.301 N 
ATOM      7  C   UNK A   0      -4.811   2.323   3.651  0.00  0.00    +0.231 C 
ATOM      8  O   UNK A   0      -4.209   3.309   4.019  0.00  0.00    -0.274 OA
ATOM      9  H   ILE A   1      -4.659   0.585   2.641  0.00  0.00    +0.150 HD
BRANCH   6  10
ATOM     10  CA  ILE A   1      -2.759   1.533   2.602  0.00  0.00    +0.189 C 
BRANCH  10  11
ATOM     11  C   ILE A   1      -1.915   1.031   3.745  0.00  0.00    +0.376 C 
ATOM     12  O   ILE A   1      -2.377   0.246   4.538  0.00  0.00    -0.244 OA
ATOM     13  OXT ILE A   1      -0.649   1.456   3.881  0.00  0.00    -0.244 OA
ENDBRANCH  10  11
BRANCH  10  14
ATOM     14  CB  ILE A   1      -2.439   0.730   1.340  0.00  0.00    +0.017 C 
ATOM     15  CG2 ILE A   1      -2.765  -0.746   1.578  0.00  0.00    +0.010 C 
BRANCH  14  17
ATOM     16  CD1 ILE A   1      -2.855   0.551  -1.117  0.00  0.00    +0.004 C 
ATOM     17  CG1 ILE A   1      -3.278   1.256   0.174  0.00  0.00    +0.002 C 
ENDBRANCH  14  17
ENDBRANCH  10  14
ENDBRANCH   6  10
ENDBRANCH   5   7
ENDBRANCH   1   5
BRANCH   2  18
ATOM     18  C   UNK A   0      -8.464   4.578   5.991  0.00  0.00    +0.100 C 
BRANCH  18  19
ATOM     19  C   UNK A   0      -9.945   4.412   6.339  0.00  0.00    +0.052 C 
BRANCH  19  20
ATOM     20  C   UNK A   0     -10.410   5.602   7.138  0.00  0.00    +0.041 A 
ATOM     21  C   UNK A   0     -10.916   6.692   6.505  0.00  0.00    -0.030 A 
ATOM     22  C   UNK A   0     -11.355   7.826   7.322  0.00  0.00    +0.021 A 
ATOM     23  C   UNK A   0     -11.886   8.978   6.730  0.00  0.00    +0.015 A 
ATOM     24  C   UNK A   0     -12.287  10.020   7.515  0.00  0.00    +0.046 A 
ATOM     25  C   UNK A   0     -12.172   9.944   8.902  0.00  0.00    +0.120 A 
ATOM     26  C   UNK A   0     -11.650   8.811   9.504  0.00  0.00    +0.092 A 
ATOM     27  C   UNK A   0     -11.237   7.743   8.722  0.00  0.00    +0.143 A 
ATOM     28  O   UNK A   0     -10.726   6.629   9.289  0.00  0.00    -0.422 OA
ATOM     29  C   UNK A   0     -10.326   5.585   8.546  0.00  0.00    +0.341 A 
ATOM     30  O   UNK A   0      -9.875   4.599   9.101  0.00  0.00    -0.245 OA
ATOM     31  C   UNK A   0     -11.023   6.734   5.002  0.00  0.00    +0.045 C 
BRANCH  25  32
ATOM     32  O   UNK A   0     -12.576  10.988   9.669  0.00  0.00    -0.507 OA
ATOM     33  H   UNK A   0     -11.883  11.639   9.843  0.00  0.00    +0.292 HD
ENDBRANCH  25  32
ENDBRANCH  19  20
ENDBRANCH  18  19
ENDBRANCH   2  18
TORSDOF 10
