REMARK  Name = ZINC12853421
REMARK  5 active torsions:
REMARK  status: ('A' for Active; 'I' for Inactive)
REMARK    1  A    between atoms: C_3  and  C_25
REMARK    2  A    between atoms: C_7  and  C_8
REMARK    3  A    between atoms: C_7  and  N_58
REMARK    4  A    between atoms: C_8  and  C_9
REMARK    5  A    between atoms: N_14  and  C_15
REMARK                            x       y       z     vdW  Elec       q    Type
REMARK                         _______ _______ _______ _____ _____    ______ ____
ROOT
ATOM      1  C   UNL     1      -1.113   3.364   6.025  0.00  0.00    +0.219 C 
ATOM      2  O   UNL     1      -0.117   2.680   6.123  0.00  0.00    -0.275 OA
ATOM      3  N   UNL     1      -1.590   3.690   4.807  0.00  0.00    -0.240 N 
ATOM      4  C   UNL     1      -0.959   3.256   3.698  0.00  0.00    +0.306 C 
ATOM      5  O   UNL     1       0.040   2.570   3.797  0.00  0.00    -0.252 OA
ATOM      6  N   UNL     1      -1.435   3.582   2.481  0.00  0.00    -0.294 N 
ATOM      7  H   UNL     1      -2.387   4.238   4.729  0.00  0.00    +0.159 HD
ATOM      8  H   UNL     1      -2.232   4.129   2.402  0.00  0.00    +0.151 HD
ENDROOT
BRANCH   6   9
ATOM      9  C   UNL     1      -0.750   3.109   1.275  0.00  0.00    +0.037 C 
ATOM     10  C   UNL     1      -0.729   1.579   1.267  0.00  0.00    +0.029 C 
ATOM     11  C   UNL     1      -0.013   1.086   0.008  0.00  0.00    -0.008 C 
ATOM     12  C   UNL     1      -0.753   1.593  -1.232  0.00  0.00    +0.007 C 
ATOM     13  C   UNL     1      -0.773   3.123  -1.223  0.00  0.00    -0.008 C 
ATOM     14  C   UNL     1      -1.490   3.616   0.036  0.00  0.00    +0.029 C 
ATOM     15  C   UNL     1       0.662   3.652  -1.234  0.00  0.00    +0.007 C 
ATOM     16  C   UNL     1       1.402   3.145   0.006  0.00  0.00    -0.008 C 
ATOM     17  C   UNL     1       1.423   1.615  -0.003  0.00  0.00    +0.007 C 
ATOM     18  C   UNL     1       0.686   3.639   1.264  0.00  0.00    +0.029 C 
ENDBRANCH   6   9
BRANCH   1  19
ATOM     19  C   UNL     1      -1.819   3.850   7.265  0.00  0.00    +0.078 C 
BRANCH  19  20
ATOM     20  C   UNL     1      -1.079   3.344   8.505  0.00  0.00    -0.070 C 
BRANCH  20  26
ATOM     21  C   UNL     1      -3.911   4.256  10.811  0.00  0.00    -0.018 C 
ATOM     22  C   UNL     1      -3.385   3.607  12.095  0.00  0.00    +0.008 C 
ATOM     23  C   UNL     1      -1.866   3.783  12.161  0.00  0.00    +0.077 C 
ATOM     24  C   UNL     1      -1.231   3.163  10.914  0.00  0.00    -0.067 C 
ATOM     25  C   UNL     1      -3.217   3.622   9.604  0.00  0.00    -0.079 C 
ATOM     26  N   UNL     1      -1.760   3.847   9.715  0.00  0.00    +0.380 N 
ATOM     27  H   UNL     1      -1.585   4.855   9.802  0.00  0.00    -0.082 HD
BRANCH  23  28
ATOM     28  C   UNL     1      -1.325   3.086  13.410  0.00  0.00    +0.391 C 
ATOM     29  F   UNL     1       0.064   3.243  13.467  0.00  0.00    -0.171 F 
ATOM     30  F   UNL     1      -1.905   3.653  14.549  0.00  0.00    -0.171 F 
ATOM     31  F   UNL     1      -1.638   1.723  13.357  0.00  0.00    -0.171 F 
ENDBRANCH  23  28
ENDBRANCH  20  26
ENDBRANCH  19  20
ENDBRANCH   1  19
TORSDOF 5
