REMARK  Name = ZINC33838830
REMARK  6 active torsions:
REMARK  status: ('A' for Active; 'I' for Inactive)
REMARK    1  A    between atoms: C_1  and  C_2
REMARK    2  A    between atoms: C_7  and  O_42
REMARK    3  A    between atoms: C_20  and  O_41
REMARK    4  A    between atoms: C_24  and  C_40
REMARK    5  A    between atoms: C_28  and  C_33
REMARK    6  A    between atoms: C_33  and  C_34
REMARK                            x       y       z     vdW  Elec       q    Type
REMARK                         _______ _______ _______ _____ _____    ______ ____
ROOT
ATOM      1  C   UNL     1       1.466   1.760  -3.958  0.00  0.00    +0.008 C 
ATOM      2  C   UNL     1       0.223   2.135  -3.160  0.00  0.00    -0.010 C 
ATOM      3  C   UNL     1       0.601   2.912  -1.902  0.00  0.00    +0.003 C 
ATOM      4  C   UNL     1       1.236   1.992  -0.858  0.00  0.00    +0.003 C 
ATOM      5  C   UNL     1       1.171   2.675   0.512  0.00  0.00    +0.031 C 
ATOM      6  C   UNL     1       0.837   1.655   1.599  0.00  0.00    +0.115 C 
ATOM      7  C   UNL     1      -0.541   1.048   1.340  0.00  0.00    +0.042 C 
ATOM      8  C   UNL     1      -0.425  -0.456   1.095  0.00  0.00    +0.123 C 
ATOM      9  C   UNL     1      -1.637  -0.917   0.309  0.00  0.00    +0.308 C 
ATOM     10  O   UNL     1      -2.727  -0.623   0.735  0.00  0.00    -0.251 OA
ATOM     11  O   UNL     1      -1.450  -1.631  -0.793  0.00  0.00    -0.448 OA
ATOM     12  C   UNL     1      -2.510  -2.006  -1.703  0.00  0.00    +0.202 C 
ATOM     13  C   UNL     1      -2.043  -1.563  -3.052  0.00  0.00    +0.097 C 
ATOM     14  C   UNL     1      -0.535  -1.514  -3.030  0.00  0.00    -0.020 C 
ATOM     15  C   UNL     1       0.113  -0.377  -2.902  0.00  0.00    -0.030 C 
ATOM     16  C   UNL     1      -0.626   0.922  -2.810  0.00  0.00    +0.030 C 
ATOM     17  C   UNL     1      -2.492  -2.380  -4.246  0.00  0.00    +0.151 C 
ATOM     18  C   UNL     1      -2.654  -3.835  -3.900  0.00  0.00    -0.045 C 
ATOM     19  C   UNL     1      -2.171  -4.776  -4.669  0.00  0.00    +0.010 C 
ATOM     20  C   UNL     1      -3.390  -4.200  -2.627  0.00  0.00    +0.023 C 
ATOM     21  C   UNL     1      -2.715  -3.508  -1.467  0.00  0.00    +0.070 C 
ATOM     22  C   UNL     1      -3.580  -3.438  -0.193  0.00  0.00    +0.085 C 
ATOM     23  N   UNL     1      -4.409  -2.238  -0.375  0.00  0.00    -0.308 N 
ATOM     24  C   UNL     1      -3.787  -1.378  -1.220  0.00  0.00    +0.258 C 
ATOM     25  O   UNL     1      -4.203  -0.286  -1.530  0.00  0.00    -0.271 OA
ATOM     26  C   UNL     1      -4.847  -3.792  -2.819  0.00  0.00    +0.012 C 
ATOM     27  H   UNL     1      -5.375  -2.152   0.144  0.00  0.00    +0.149 HD
ENDROOT
BRANCH  17  28
ATOM     28  O   UNL     1      -3.709  -1.850  -4.776  0.00  0.00    -0.387 OA
ATOM     29  H   UNL     1      -4.181  -2.323  -5.650  0.00  0.00    +0.210 HD
ENDBRANCH  17  28
BRANCH   6  30
ATOM     30  O   UNL     1       1.838   0.639   1.635  0.00  0.00    -0.392 OA
ATOM     31  H   UNL     1       1.760  -0.183   2.361  0.00  0.00    +0.210 HD
ENDBRANCH   6  30
BRANCH  22  32
ATOM     32  C   UNL     1      -4.387  -4.688   0.101  0.00  0.00    +0.057 C 
BRANCH  32  33
ATOM     33  C   UNL     1      -5.090  -4.533   1.425  0.00  0.00    -0.046 A 
ATOM     34  C   UNL     1      -4.470  -4.947   2.589  0.00  0.00    +0.004 A 
ATOM     35  C   UNL     1      -5.113  -4.801   3.804  0.00  0.00    +0.000 A 
ATOM     36  C   UNL     1      -6.379  -4.250   3.854  0.00  0.00    +0.000 A 
ATOM     37  C   UNL     1      -7.002  -3.841   2.689  0.00  0.00    +0.000 A 
ATOM     38  C   UNL     1      -6.357  -3.983   1.474  0.00  0.00    +0.004 A 
ENDBRANCH  32  33
ENDBRANCH  22  32
TORSDOF 4
