REMARK  Name = ZINC50036269
REMARK  4 active torsions:
REMARK  status: ('A' for Active; 'I' for Inactive)
REMARK    1  A    between atoms: C_2  and  C_10
REMARK    2  A    between atoms: C_3  and  N_9
REMARK    3  A    between atoms: C_10  and  O_12
REMARK    4  A    between atoms: O_12  and  C_13
REMARK                            x       y       z     vdW  Elec       q    Type
REMARK                         _______ _______ _______ _____ _____    ______ ____
ROOT
ATOM      1  C   UNL     1       0.873   3.541  -0.035  0.00  0.00    +0.342 C 
ATOM      2  O   UNL     1       1.846   4.264   0.048  0.00  0.00    -0.245 OA
ENDROOT
BRANCH   1   4
ATOM      3  C   UNL     1      -0.081   1.243   0.009  0.00  0.00    +0.058 A 
ATOM      4  C   UNL     1       1.040   2.079  -0.020  0.00  0.00    +0.082 A 
ATOM      5  C   UNL     1       2.327   1.515  -0.035  0.00  0.00    +0.042 A 
ATOM      6  C   UNL     1       2.473   0.135  -0.021  0.00  0.00    +0.064 A 
ATOM      7  C   UNL     1       1.357  -0.680   0.008  0.00  0.00    +0.160 A 
ATOM      8  C   UNL     1       0.081  -0.125   0.023  0.00  0.00    +0.159 A 
ATOM      9  F   UNL     1      -1.003  -0.931   0.051  0.00  0.00    -0.202 F 
ATOM     10  F   UNL     1       1.505  -2.023   0.021  0.00  0.00    -0.202 F 
BRANCH   5  11
ATOM     11  N   UNL     1       3.448   2.335  -0.064  0.00  0.00    -0.357 N 
ATOM     12  H   UNL     1       3.347   3.297   0.007  0.00  0.00    +0.142 HD
ATOM     13  H   UNL     1       4.331   1.946  -0.156  0.00  0.00    +0.142 HD
ENDBRANCH   5  11
ENDBRANCH   1   4
BRANCH   1  14
ATOM     14  O   UNL     1      -0.359   4.077  -0.141  0.00  0.00    -0.448 OA
BRANCH  14  15
ATOM     15  C   UNL     1      -0.447   5.503  -0.149  0.00  0.00    +0.262 C 
ATOM     16  C   UNL     1      -1.664   5.939  -0.969  0.00  0.00    +0.054 C 
ATOM     17  C   UNL     1      -2.804   4.950  -0.804  0.00  0.00    +0.006 C 
ATOM     18  C   UNL     1      -3.388   4.917   0.597  0.00  0.00    +0.019 C 
ATOM     19  C   UNL     1      -2.374   4.360   1.597  0.00  0.00    +0.104 C 
ATOM     20  N   UNL     1      -1.526   5.465   2.073  0.00  0.00    -0.312 N 
ATOM     21  C   UNL     1      -0.609   6.012   1.268  0.00  0.00    +0.254 C 
ATOM     22  O   UNL     1       0.089   6.918   1.669  0.00  0.00    -0.272 OA
ATOM     23  H   UNL     1      -1.631   5.798   2.978  0.00  0.00    +0.149 HD
ENDBRANCH  14  15
ENDBRANCH   1  14
TORSDOF 4
