REMARK  Name = ZINC12719374
REMARK  11 active torsions:
REMARK  status: ('A' for Active; 'I' for Inactive)
REMARK    1  A    between atoms: C_1  and  C_2
REMARK    2  A    between atoms: C_2  and  O_3
REMARK    3  A    between atoms: O_3  and  C_4
REMARK    4  A    between atoms: C_4  and  C_6
REMARK    5  A    between atoms: C_7  and  C_19
REMARK    6  A    between atoms: C_12  and  C_14
REMARK    7  A    between atoms: C_19  and  O_20
REMARK    8  A    between atoms: O_20  and  C_21
REMARK    9  A    between atoms: C_21  and  C_23
REMARK   10  A    between atoms: C_23  and  O_24
REMARK   11  A    between atoms: O_24  and  C_25
REMARK                            x       y       z     vdW  Elec       q    Type
REMARK                         _______ _______ _______ _____ _____    ______ ____
ROOT
ATOM      1  C   UNL     1       4.519  13.175  -1.069  0.00  0.00    +0.082 C 
ATOM      2  C   UNL     1       4.090  12.629   0.089  0.00  0.00    +0.061 C 
ATOM      3  N   UNL     1       4.884  12.620   1.200  0.00  0.00    -0.269 N 
ATOM      4  C   UNL     1       6.123  13.128   1.232  0.00  0.00    +0.304 C 
ATOM      5  O   UNL     1       6.756  13.070   2.268  0.00  0.00    -0.252 OA
ATOM      6  N   UNL     1       6.688  13.707   0.154  0.00  0.00    -0.288 N 
ATOM      7  C   UNL     1       5.911  13.771  -1.095  0.00  0.00    +0.150 C 
ATOM      8  H   UNL     1       4.532  12.221   2.011  0.00  0.00    +0.156 HD
ATOM      9  H   UNL     1       7.586  14.071   0.200  0.00  0.00    +0.151 HD
ENDROOT
BRANCH   7  10
ATOM     10  C   UNL     1       6.699  13.066  -2.168  0.00  0.00    +0.015 A 
ATOM     11  C   UNL     1       6.977  13.473  -3.431  0.00  0.00    +0.013 A 
ATOM     12  C   UNL     1       7.728  12.652  -4.251  0.00  0.00    +0.008 A 
ATOM     13  C   UNL     1       8.165  11.463  -3.768  0.00  0.00    +0.045 A 
ATOM     14  S   UNL     1       7.516  11.479  -2.104  0.00  0.00    -0.099 S 
ENDBRANCH   7  10
BRANCH   1  15
ATOM     15  C   UNL     1       3.696  13.188  -2.220  0.00  0.00    +0.339 C 
ATOM     16  O   UNL     1       3.106  14.205  -2.534  0.00  0.00    -0.245 OA
BRANCH  15  17
ATOM     17  O   UNL     1       3.565  12.073  -2.969  0.00  0.00    -0.462 OA
BRANCH  17  19
ATOM     18  C   UNL     1       2.694  10.808  -4.834  0.00  0.00    +0.048 C 
ATOM     19  C   UNL     1       2.718  12.159  -4.116  0.00  0.00    +0.229 C 
ENDBRANCH  17  19
ENDBRANCH  15  17
ENDBRANCH   1  15
BRANCH   2  20
ATOM     20  C   UNL     1       2.712  12.025   0.159  0.00  0.00    +0.283 C 
BRANCH  20  21
ATOM     21  O   UNL     1       2.821  10.593   0.378  0.00  0.00    -0.456 OA
BRANCH  21  22
ATOM     22  C   UNL     1       1.674   9.901   0.464  0.00  0.00    +0.345 C 
ATOM     23  O   UNL     1       0.614  10.472   0.361  0.00  0.00    -0.247 OA
BRANCH  22  24
ATOM     24  C   UNL     1       1.708   8.412   0.691  0.00  0.00    +0.349 C 
BRANCH  24  25
ATOM     25  O   UNL     1       0.373   7.907   0.746  0.00  0.00    -0.481 OA
BRANCH  25  26
ATOM     26  C   UNL     1       0.226   6.571   0.947  0.00  0.00    +0.122 A 
ATOM     27  C   UNL     1       1.360   5.765   1.088  0.00  0.00    +0.046 A 
ATOM     28  C   UNL     1       1.245   4.426   1.290  0.00  0.00    +0.012 A 
ATOM     29  C   UNL     1      -0.030   3.838   1.359  0.00  0.00    -0.018 A 
ATOM     30  C   UNL     1      -0.186   2.457   1.567  0.00  0.00    +0.008 A 
ATOM     31  C   UNL     1      -1.435   1.921   1.628  0.00  0.00    +0.001 A 
ATOM     32  C   UNL     1      -2.567   2.721   1.482  0.00  0.00    +0.001 A 
ATOM     33  C   UNL     1      -2.456   4.063   1.285  0.00  0.00    +0.008 A 
ATOM     34  C   UNL     1      -1.182   4.652   1.216  0.00  0.00    -0.014 A 
ATOM     35  C   UNL     1      -1.028   6.033   1.008  0.00  0.00    +0.054 A 
ENDBRANCH  25  26
ENDBRANCH  24  25
ENDBRANCH  22  24
ENDBRANCH  21  22
ENDBRANCH  20  21
ENDBRANCH   2  20
TORSDOF 10
