REMARK  Name = ZINC40901822
REMARK  5 active torsions:
REMARK  status: ('A' for Active; 'I' for Inactive)
REMARK    1  A    between atoms: C_3  and  N_16
REMARK    2  A    between atoms: C_6  and  C_7
REMARK    3  A    between atoms: C_9  and  C_12
REMARK    4  A    between atoms: C_19  and  C_22
REMARK    5  A    between atoms: C_27  and  C_30
REMARK                            x       y       z     vdW  Elec       q    Type
REMARK                         _______ _______ _______ _____ _____    ______ ____
ROOT
ATOM      1  N   UNL     1       3.579   2.146  -0.034  0.00  0.00    -0.328 N 
ATOM      2  C   UNL     1       4.210   2.527  -1.304  0.00  0.00    +0.106 C 
ATOM      3  C   UNL     1       5.659   2.031  -1.304  0.00  0.00    +0.031 C 
ATOM      4  C   UNL     1       6.376   2.564  -0.061  0.00  0.00    +0.078 C 
ATOM      5  C   UNL     1       5.684   2.033   1.196  0.00  0.00    +0.031 C 
ATOM      6  C   UNL     1       4.232   2.534   1.224  0.00  0.00    +0.106 C 
ENDROOT
BRANCH   4   7
ATOM      7  C   UNL     1       7.812   2.106  -0.075  0.00  0.00    +0.219 C 
ATOM      8  O   UNL     1       8.097   1.016  -0.526  0.00  0.00    -0.275 OA
ATOM      9  N   UNL     1       8.780   2.906   0.414  0.00  0.00    -0.301 N 
ATOM     10  C   UNL     1       8.440   4.173   1.076  0.00  0.00    +0.108 C 
ATOM     11  C   UNL     1       9.100   4.200   2.458  0.00  0.00    +0.032 C 
ATOM     12  C   UNL     1      10.603   3.954   2.305  0.00  0.00    +0.078 C 
ATOM     13  C   UNL     1      10.835   2.574   1.686  0.00  0.00    +0.032 C 
ATOM     14  C   UNL     1      10.194   2.526   0.301  0.00  0.00    +0.108 C 
BRANCH  12  15
ATOM     15  C   UNL     1      11.261   4.014   3.660  0.00  0.00    +0.214 C 
ATOM     16  O   UNL     1      10.594   4.232   4.649  0.00  0.00    -0.276 OA
ATOM     17  N   UNL     1      12.591   3.825   3.772  0.00  0.00    -0.329 N 
ATOM     18  H   UNL     1      13.124   3.651   2.981  0.00  0.00    +0.145 HD
ATOM     19  H   UNL     1      13.014   3.864   4.643  0.00  0.00    +0.145 HD
ENDBRANCH  12  15
ENDBRANCH   4   7
BRANCH   1  22
ATOM     20  C   UNL     1      -0.019   1.410  -0.004  0.00  0.00    +0.013 A 
ATOM     21  C   UNL     1       1.168   2.112  -0.015  0.00  0.00    +0.027 A 
ATOM     22  C   UNL     1       2.379   1.432  -0.021  0.00  0.00    +0.065 A 
ATOM     23  C   UNL     1       2.398   0.040  -0.015  0.00  0.00    +0.145 A 
ATOM     24  C   UNL     1       1.213  -0.666  -0.003  0.00  0.00    +0.052 A 
ATOM     25  C   UNL     1      -0.003   0.016   0.002  0.00  0.00    +0.025 A 
ATOM     26  F   UNL     1       3.577  -0.620  -0.021  0.00  0.00    -0.204 F 
BRANCH  25  27
ATOM     27  C   UNL     1      -1.279  -0.740   0.015  0.00  0.00    +0.202 A 
ATOM     28  N   UNL     1      -1.397  -2.080   0.028  0.00  0.00    -0.191 NA
ATOM     29  C   UNL     1      -2.655  -2.418   0.036  0.00  0.00    +0.231 A 
ATOM     30  O   UNL     1      -3.394  -1.301   0.030  0.00  0.00    -0.337 OA
ATOM     31  N   UNL     1      -2.480  -0.215   0.022  0.00  0.00    -0.056 NA
BRANCH  29  32
ATOM     32  C   UNL     1      -3.188  -3.827   0.051  0.00  0.00    +0.078 C 
ATOM     33  C   UNL     1      -4.694  -4.014  -0.144  0.00  0.00    +0.014 C 
ATOM     34  C   UNL     1      -4.067  -4.238   1.234  0.00  0.00    +0.014 C 
ENDBRANCH  29  32
ENDBRANCH  25  27
ENDBRANCH   1  22
TORSDOF 5
