REMARK  Name = ZINC43406216
REMARK  5 active torsions:
REMARK  status: ('A' for Active; 'I' for Inactive)
REMARK    1  A    between atoms: C_1  and  C_2
REMARK    2  A    between atoms: C_5  and  S_8
REMARK    3  A    between atoms: S_8  and  C_9
REMARK    4  A    between atoms: C_10  and  C_18
REMARK    5  A    between atoms: C_18  and  N_19
REMARK                            x       y       z     vdW  Elec       q    Type
REMARK                         _______ _______ _______ _____ _____    ______ ____
ROOT
ATOM      1  C   UNL     1      -4.999   2.431  -1.661  0.00  0.00    +0.106 A 
ATOM      2  C   UNL     1      -6.365   2.680  -1.756  0.00  0.00    -0.032 A 
ATOM      3  C   UNL     1      -7.162   2.468  -0.647  0.00  0.00    +0.009 A 
ATOM      4  C   UNL     1      -6.568   2.012   0.524  0.00  0.00    -0.026 A 
ATOM      5  C   UNL     1      -5.206   1.784   0.551  0.00  0.00    +0.046 A 
ATOM      6  N   UNL     1      -4.472   1.992  -0.530  0.00  0.00    -0.244 NA
ATOM      7  C   UNL     1      -4.800   1.295   1.926  0.00  0.00    +0.056 C 
ATOM      8  C   UNL     1      -5.977   1.667   2.852  0.00  0.00    +0.011 C 
ATOM      9  C   UNL     1      -7.171   1.695   1.874  0.00  0.00    +0.037 C 
ENDROOT
BRANCH   1  10
ATOM     10  S   UNL     1      -3.964   2.694  -3.063  0.00  0.00    -0.031 S 
BRANCH  10  15
ATOM     11  C   UNL     1      -0.013   1.086   0.008  0.00  0.00    +0.090 C 
ATOM     12  C   UNL     1      -0.742   1.585  -1.213  0.00  0.00    +0.149 A 
ATOM     13  N   UNL     1      -2.051   1.825  -1.287  0.00  0.00    -0.206 NA
ATOM     14  H   UNL     1      -1.127   2.560  -4.147  0.00  0.00    +0.191 HD
ATOM     15  C   UNL     1      -2.356   2.251  -2.494  0.00  0.00    +0.190 A 
ATOM     16  N   UNL     1      -1.218   2.287  -3.220  0.00  0.00    -0.253 N 
ATOM     17  N   UNL     1      -0.191   1.857  -2.365  0.00  0.00    -0.157 NA
ENDBRANCH  10  15
ENDBRANCH   1  10
BRANCH   2  18
ATOM     18  C   UNL     1      -6.965   3.174  -3.048  0.00  0.00    -0.048 C 
BRANCH  18  19
ATOM     19  N   UNL     1      -6.632   4.592  -3.232  0.00  0.00    +0.381 N 
ATOM     20  H   UNL     1      -7.003   5.128  -2.462  0.00  0.00    -0.090 HD
ATOM     21  H   UNL     1      -5.629   4.701  -3.264  0.00  0.00    -0.090 HD
ATOM     22  H   UNL     1      -7.034   4.923  -4.097  0.00  0.00    -0.090 HD
ENDBRANCH  18  19
ENDBRANCH   2  18
TORSDOF 4
