REMARK  Name = ZINC16025221
REMARK  8 active torsions:
REMARK  status: ('A' for Active; 'I' for Inactive)
REMARK    1  A    between atoms: C_1  and  C_2
REMARK    2  A    between atoms: C_2  and  C_3
REMARK    3  A    between atoms: C_2  and  C_4
REMARK    4  A    between atoms: C_4  and  C_5
REMARK    5  A    between atoms: N_13  and  C_16
REMARK    6  A    between atoms: C_16  and  C_17
REMARK    7  A    between atoms: C_16  and  C_18
REMARK    8  A    between atoms: C_16  and  C_19
REMARK                            x       y       z     vdW  Elec       q    Type
REMARK                         _______ _______ _______ _____ _____    ______ ____
ROOT
ATOM      1  C   UNL     1      -1.405  -2.076   0.004  0.00  0.00    -0.057 C 
ATOM      2  C   UNL     1      -2.825  -2.643  -0.201  0.00  0.00    +0.073 C 
ATOM      3  C   UNL     1      -2.888  -3.901   0.710  0.00  0.00    +0.088 C 
ATOM      4  C   UNL     1      -3.930  -3.531   1.742  0.00  0.00    +0.225 C 
ATOM      5  O   UNL     1      -4.296  -4.241   2.653  0.00  0.00    -0.275 OA
ATOM      6  N   UNL     1      -4.385  -2.298   1.492  0.00  0.00    -0.236 N 
ATOM      7  C   UNL     1      -3.834  -1.699   0.412  0.00  0.00    +0.224 C 
ATOM      8  O   UNL     1      -4.096  -0.590  -0.002  0.00  0.00    -0.275 OA
ATOM      9  C   UNL     1      -1.501  -3.974   1.361  0.00  0.00    +0.050 C 
ATOM     10  N   UNL     1      -0.972  -2.590   1.331  0.00  0.00    +0.394 N 
ATOM     11  C   UNL     1      -1.578  -4.492   2.769  0.00  0.00    -0.026 A 
ATOM     12  C   UNL     1      -2.226  -4.061   3.905  0.00  0.00    +0.004 A 
ATOM     13  C   UNL     1      -2.102  -4.771   5.086  0.00  0.00    +0.002 A 
ATOM     14  C   UNL     1      -1.325  -5.915   5.123  0.00  0.00    +0.022 A 
ATOM     15  C   UNL     1      -0.672  -6.350   3.988  0.00  0.00    +0.062 A 
ATOM     16  C   UNL     1      -0.792  -5.640   2.795  0.00  0.00    +0.054 A 
ATOM     17  N   UNL     1      -0.237  -5.875   1.534  0.00  0.00    -0.285 N 
ATOM     18  C   UNL     1      -0.605  -4.941   0.636  0.00  0.00    +0.211 C 
ATOM     19  O   UNL     1      -0.278  -4.889  -0.531  0.00  0.00    -0.277 OA
ATOM     20 CL   UNL     1       0.302  -7.786   4.047  0.00  0.00    -0.082 Cl
ATOM     21  H   UNL     1       0.035  -2.598   1.395  0.00  0.00    -0.083 HD
ATOM     22  H   UNL     1       0.345  -6.623   1.329  0.00  0.00    +0.155 HD
ATOM     23  H   UNL     1      -1.371  -2.033   2.072  0.00  0.00    -0.083 HD
ENDROOT
BRANCH   6  24
ATOM     24  C   UNL     1      -5.406  -1.648   2.318  0.00  0.00    +0.036 C 
ATOM     25  C   UNL     1      -4.898  -1.528   3.756  0.00  0.00    +0.031 C 
ATOM     26  C   UNL     1      -5.699  -0.253   1.762  0.00  0.00    +0.031 C 
ATOM     27  C   UNL     1      -6.687  -2.484   2.297  0.00  0.00    +0.031 C 
ENDBRANCH   6  24
BRANCH   1  28
ATOM     28  C   UNL     1      -1.439  -0.546   0.011  0.00  0.00    -0.012 C 
BRANCH  28  30
ATOM     29  C   UNL     1       0.820  -0.371  -1.042  0.00  0.00    +0.007 C 
ATOM     30  C   UNL     1      -0.018  -0.005   0.184  0.00  0.00    -0.019 C 
ATOM     31  C   UNL     1      -0.067   1.516   0.334  0.00  0.00    +0.007 C 
ENDBRANCH  28  30
ENDBRANCH   1  28
TORSDOF 3
