REMARK  Name = ZINC02060626
REMARK  6 active torsions:
REMARK  status: ('A' for Active; 'I' for Inactive)
REMARK    1  A    between atoms: C_1  and  C_2
REMARK    2  A    between atoms: C_2  and  C_32
REMARK    3  A    between atoms: C_4  and  N_9
REMARK    4  A    between atoms: C_15  and  S_16
REMARK    5  A    between atoms: S_16  and  C_17
REMARK    6  A    between atoms: C_17  and  C_18
REMARK                            x       y       z     vdW  Elec       q    Type
REMARK                         _______ _______ _______ _____ _____    ______ ____
ROOT
ATOM      1  N   UNL     1      -0.116   1.065  -2.438  0.00  0.00    -0.284 N 
ATOM      2  C   UNL     1       0.303   1.912  -3.403  0.00  0.00    +0.259 A 
ATOM      3  O   UNL     1       0.157   3.118  -3.282  0.00  0.00    -0.267 OA
ATOM      4  C   UNL     1       0.910   1.377  -4.546  0.00  0.00    +0.050 A 
ATOM      5  C   UNL     1       1.052  -0.000  -4.646  0.00  0.00    +0.083 A 
ATOM      6  N   UNL     1       0.621  -0.789  -3.657  0.00  0.00    -0.223 NA
ATOM      7  C   UNL     1       0.058  -0.278  -2.580  0.00  0.00    +0.173 A 
ATOM      8  C   UNL     1       1.683  -0.564  -5.861  0.00  0.00    +0.004 A 
ATOM      9  C   UNL     1       1.486  -1.894  -6.220  0.00  0.00    +0.010 A 
ATOM     10  C   UNL     1       2.092  -2.392  -7.357  0.00  0.00    +0.001 A 
ATOM     11  C   UNL     1       2.891  -1.572  -8.133  0.00  0.00    +0.000 A 
ATOM     12  C   UNL     1       3.088  -0.249  -7.781  0.00  0.00    +0.004 A 
ATOM     13  C   UNL     1       2.487   0.261  -6.649  0.00  0.00    -0.037 A 
ATOM     14  C   UNL     1       2.690   1.702  -6.260  0.00  0.00    +0.047 C 
ATOM     15  C   UNL     1       1.410   2.266  -5.648  0.00  0.00    +0.007 C 
ATOM     16  C   UNL     1       1.683   3.678  -5.093  0.00  0.00    +0.012 C 
ATOM     17  C   UNL     1       1.246   4.625  -6.239  0.00  0.00    +0.001 C 
ATOM     18  C   UNL     1      -0.011   3.919  -6.806  0.00  0.00    +0.001 C 
ATOM     19  C   UNL     1       0.334   2.417  -6.734  0.00  0.00    +0.012 C 
ENDROOT
BRANCH   1  23
ATOM     20  C   UNL     1      -3.862   3.818  -0.748  0.00  0.00    +0.041 C 
ATOM     21  C   UNL     1      -2.636   2.988  -0.361  0.00  0.00    +0.066 C 
ATOM     22  C   UNL     1      -2.016   2.375  -1.619  0.00  0.00    +0.059 C 
ATOM     23  C   UNL     1      -0.756   1.595  -1.231  0.00  0.00    +0.098 C 
ATOM     24  C   UNL     1       0.211   2.536  -0.506  0.00  0.00    +0.053 C 
ATOM     25  C   UNL     1      -0.494   3.142   0.709  0.00  0.00    +0.162 C 
ATOM     26  O   UNL     1      -1.673   3.827   0.282  0.00  0.00    -0.374 OA
ATOM     27  C   UNL     1      -3.058   1.871   0.596  0.00  0.00    +0.041 C 
ENDBRANCH   1  23
BRANCH   7  28
ATOM     28  S   UNL     1      -0.487  -1.357  -1.298  0.00  0.00    -0.084 S 
BRANCH  28  29
ATOM     29  C   UNL     1      -0.013  -2.953  -2.009  0.00  0.00    +0.104 C 
BRANCH  29  30
ATOM     30  C   UNL     1      -0.394  -4.059  -1.059  0.00  0.00    -0.023 C 
ATOM     31  C   UNL     1      -1.304  -4.936  -1.404  0.00  0.00    +0.005 C 
ENDBRANCH  29  30
ENDBRANCH  28  29
ENDBRANCH   7  28
TORSDOF 4
