REMARK  Name = ZINC49340673
REMARK  4 active torsions:
REMARK  status: ('A' for Active; 'I' for Inactive)
REMARK    1  A    between atoms: C_1  and  C_2
REMARK    2  A    between atoms: C_3  and  C_7
REMARK    3  A    between atoms: N_9  and  N_10
REMARK    4  A    between atoms: C_11  and  C_13
REMARK                            x       y       z     vdW  Elec       q    Type
REMARK                         _______ _______ _______ _____ _____    ______ ____
ROOT
ATOM      1  C   UNL     1      -2.508  -0.405   0.012  0.00  0.00    +0.263 C 
ATOM      2  O   UNL     1      -2.798   0.776   0.020  0.00  0.00    -0.269 OA
ATOM      3  N   UNL     1      -3.482  -1.337   0.011  0.00  0.00    -0.230 N 
ATOM      4  H   UNL     1      -3.251  -2.280   0.005  0.00  0.00    +0.173 HD
ENDROOT
BRANCH   1   7
ATOM      5  C   UNL     1      -0.018   1.503   0.010  0.00  0.00    +0.087 C 
ATOM      6  C   UNL     1       0.002  -0.004   0.002  0.00  0.00    +0.114 A 
ATOM      7  C   UNL     1      -1.093  -0.817   0.003  0.00  0.00    +0.079 A 
ATOM      8  C   UNL     1      -0.567  -2.190  -0.007  0.00  0.00    +0.054 A 
ATOM      9  C   UNL     1       0.769  -2.073  -0.013  0.00  0.00    +0.196 A 
ATOM     10  O   UNL     1       1.097  -0.771  -0.013  0.00  0.00    -0.467 OA
ENDBRANCH   1   7
BRANCH   3  11
ATOM     11  N   UNL     1      -4.827  -0.946   0.020  0.00  0.00    -0.234 N 
ATOM     12  C   UNL     1      -5.800  -1.878   0.019  0.00  0.00    +0.234 C 
ATOM     13  O   UNL     1      -5.511  -3.056   0.011  0.00  0.00    -0.274 OA
ATOM     14  H   UNL     1      -5.058  -0.004   0.026  0.00  0.00    +0.173 HD
BRANCH  12  15
ATOM     15  C   UNL     1      -7.247  -1.457   0.029  0.00  0.00    +0.104 C 
ATOM     16  C   UNL     1      -8.173  -2.697  -0.021  0.00  0.00    +0.043 C 
ATOM     17  C   UNL     1      -9.287  -2.232  -0.992  0.00  0.00    +0.160 C 
ATOM     18  O   UNL     1      -8.574  -1.445  -1.970  0.00  0.00    -0.379 OA
ATOM     19  C   UNL     1      -7.590  -0.675  -1.254  0.00  0.00    +0.172 C 
ENDBRANCH  12  15
ENDBRANCH   3  11
TORSDOF 3
