REMARK  Name = ZINC63384442
REMARK  10 active torsions:
REMARK  status: ('A' for Active; 'I' for Inactive)
REMARK    1  A    between atoms: C_1  and  C_2
REMARK    2  A    between atoms: C_2  and  C_3
REMARK    3  A    between atoms: C_3  and  C_5
REMARK    4  A    between atoms: C_3  and  N_6
REMARK    5  A    between atoms: C_7  and  C_9
REMARK    6  A    between atoms: C_9  and  C_11
REMARK    7  A    between atoms: C_9  and  N_14
REMARK    8  A    between atoms: C_11  and  C_12
REMARK    9  A    between atoms: C_11  and  C_13
REMARK   10  A    between atoms: C_15  and  C_17
REMARK                            x       y       z     vdW  Elec       q    Type
REMARK                         _______ _______ _______ _____ _____    ______ ____
ROOT
ATOM      1  C   UNL     1       1.171   0.790   8.409  0.00  0.00    +0.167 C 
ATOM      2  C   UNL     1       2.242  -0.319   8.399  0.00  0.00    +0.065 C 
ATOM      3  C   UNL     1       1.587  -1.576   8.915  0.00  0.00    -0.034 C 
ATOM      4  C   UNL     1       1.522  -2.798   8.397  0.00  0.00    -0.001 A 
ATOM      5  C   UNL     1       2.138  -3.385   7.196  0.00  0.00    +0.010 A 
ATOM      6  C   UNL     1       1.840  -4.687   6.945  0.00  0.00    +0.001 A 
ATOM      7  C   UNL     1       1.002  -5.455   7.759  0.00  0.00    +0.002 A 
ATOM      8  C   UNL     1       0.401  -5.000   8.886  0.00  0.00    +0.026 A 
ATOM      9  C   UNL     1       0.644  -3.645   9.258  0.00  0.00    +0.043 A 
ATOM     10  N   UNL     1       0.219  -2.966  10.282  0.00  0.00    -0.375 N 
ATOM     11  C   UNL     1       0.813  -1.629  10.228  0.00  0.00    +0.131 C 
ATOM     12  C   UNL     1      -0.259  -0.537  10.144  0.00  0.00    +0.134 C 
ATOM     13  N   UNL     1       0.410   0.696   9.662  0.00  0.00    -0.276 N 
ATOM     14  C   UNL     1       0.214   1.679  10.559  0.00  0.00    +0.248 C 
ATOM     15  O   UNL     1       0.574   2.832  10.418  0.00  0.00    -0.270 OA
ATOM     16  C   UNL     1      -0.496   1.160  11.730  0.00  0.00    +0.042 A 
ATOM     17  C   UNL     1      -0.802  -0.218  11.499  0.00  0.00    -0.013 A 
ATOM     18  C   UNL     1      -1.470  -0.990  12.424  0.00  0.00    +0.006 A 
ATOM     19  C   UNL     1      -1.848  -0.367  13.611  0.00  0.00    +0.000 A 
ATOM     20  C   UNL     1      -1.570   0.963  13.855  0.00  0.00    +0.001 A 
ATOM     21  C   UNL     1      -0.875   1.787  12.920  0.00  0.00    +0.013 A 
ATOM     22  H   UNL     1      -0.388  -3.290  10.965  0.00  0.00    +0.160 HD
ENDROOT
BRANCH   1  24
ATOM     23  N   UNL     1       0.726   0.647   5.980  0.00  0.00    -0.302 N 
ATOM     24  C   UNL     1       0.242   0.607   7.237  0.00  0.00    +0.235 C 
ATOM     25  O   UNL     1      -0.943   0.424   7.425  0.00  0.00    -0.274 OA
ATOM     26  H   UNL     1       1.673   0.793   5.830  0.00  0.00    +0.150 HD
BRANCH  23  27
ATOM     27  C   UNL     1      -0.177   0.469   4.841  0.00  0.00    +0.161 C 
BRANCH  27  29
ATOM     28  N   UNL     1      -0.006  -0.832   2.744  0.00  0.00    -0.311 N 
ATOM     29  C   UNL     1       0.600  -0.051   3.659  0.00  0.00    +0.234 C 
ATOM     30  O   UNL     1       1.772   0.234   3.532  0.00  0.00    -0.274 OA
ATOM     31  H   UNL     1      -0.922  -1.121   2.884  0.00  0.00    +0.149 HD
BRANCH  28  32
ATOM     32  C   UNL     1       0.716  -1.244   1.538  0.00  0.00    +0.070 C 
ATOM     33  C   UNL     1       1.544  -2.495   1.843  0.00  0.00    +0.028 C 
BRANCH  32  35
ATOM     34  C   UNL     1      -1.026  -0.274   0.034  0.00  0.00    +0.005 C 
ATOM     35  C   UNL     1      -0.285  -1.554   0.424  0.00  0.00    +0.018 C 
ENDBRANCH  32  35
ENDBRANCH  28  32
ENDBRANCH  27  29
BRANCH  27  36
ATOM     36  C   UNL     1      -0.815   1.812   4.481  0.00  0.00    +0.012 C 
ATOM     37  C   UNL     1      -1.851   1.605   3.374  0.00  0.00    +0.009 C 
ATOM     38  C   UNL     1      -1.500   2.399   5.717  0.00  0.00    +0.009 C 
ENDBRANCH  27  36
ENDBRANCH  23  27
ENDBRANCH   1  24
TORSDOF 6
