REMARK  Name = ZINC09471264
REMARK  14 active torsions:
REMARK  status: ('A' for Active; 'I' for Inactive)
REMARK    1  A    between atoms: C_1  and  C_2
REMARK    2  A    between atoms: C_2  and  N_66
REMARK    3  A    between atoms: C_3  and  C_4
REMARK    4  A    between atoms: C_3  and  N_66
REMARK    5  A    between atoms: C_5  and  C_6
REMARK    6  A    between atoms: C_5  and  N_66
REMARK    7  A    between atoms: C_6  and  C_7
REMARK    8  A    between atoms: C_7  and  N_8
REMARK    9  A    between atoms: C_9  and  C_29
REMARK   10  A    between atoms: C_11  and  C_16
REMARK   11  A    between atoms: C_12  and  O_15
REMARK   12  A    between atoms: C_16  and  C_18
REMARK   13  A    between atoms: C_25  and  C_28
REMARK   14  A    between atoms: C_33  and  O_35
REMARK                            x       y       z     vdW  Elec       q    Type
REMARK                         _______ _______ _______ _____ _____    ______ ____
ROOT
ATOM      1  N   UNL     1       2.635   0.365  -0.301  0.00  0.00    -0.284 N 
ATOM      2  C   UNL     1       1.786  -0.798  -0.585  0.00  0.00    +0.145 C 
ATOM      3  C   UNL     1       0.369  -0.279  -0.656  0.00  0.00    +0.071 C 
ATOM      4  C   UNL     1       0.430   1.054  -0.431  0.00  0.00    +0.188 C 
ATOM      5  C   UNL     1       1.838   1.446  -0.212  0.00  0.00    +0.282 C 
ATOM      6  O   UNL     1       2.220   2.576   0.015  0.00  0.00    -0.267 OA
ENDROOT
BRANCH   2   7
ATOM      7  C   UNL     1       2.178  -1.417  -1.902  0.00  0.00    -0.019 A 
ATOM      8  C   UNL     1       2.353  -0.616  -3.016  0.00  0.00    +0.006 A 
ATOM      9  C   UNL     1       2.712  -1.180  -4.226  0.00  0.00    +0.004 A 
ATOM     10  C   UNL     1       2.897  -2.546  -4.325  0.00  0.00    +0.045 A 
ATOM     11  C   UNL     1       2.723  -3.351  -3.209  0.00  0.00    +0.117 A 
ATOM     12  C   UNL     1       2.368  -2.782  -1.995  0.00  0.00    +0.051 A 
BRANCH  11  13
ATOM     13  O   UNL     1       2.906  -4.694  -3.304  0.00  0.00    -0.507 OA
ATOM     14  H   UNL     1       3.812  -4.982  -3.125  0.00  0.00    +0.292 HD
ENDBRANCH  11  13
ENDBRANCH   2   7
BRANCH   4  15
ATOM     15  O   UNL     1      -0.629   1.895  -0.415  0.00  0.00    -0.502 OA
ATOM     16  H   UNL     1      -0.314   2.825  -0.227  0.00  0.00    +0.292 HD
ENDBRANCH   4  15
BRANCH   3  17
ATOM     17  C   UNL     1      -0.839  -1.067  -0.918  0.00  0.00    +0.195 C 
ATOM     18  O   UNL     1      -1.528  -0.821  -1.891  0.00  0.00    -0.287 OA
BRANCH  17  19
ATOM     19  C   UNL     1      -1.221  -2.160  -0.001  0.00  0.00    +0.023 A 
ATOM     20  C   UNL     1      -0.466  -2.411   1.149  0.00  0.00    +0.015 A 
ATOM     21  C   UNL     1      -0.824  -3.427   2.003  0.00  0.00    +0.046 A 
ATOM     22  C   UNL     1      -1.935  -4.226   1.725  0.00  0.00    +0.124 A 
ATOM     23  C   UNL     1      -2.683  -3.970   0.579  0.00  0.00    -0.002 A 
ATOM     24  C   UNL     1      -2.337  -2.956  -0.279  0.00  0.00    +0.019 A 
ATOM     25  C   UNL     1      -3.819  -4.976   0.558  0.00  0.00    +0.083 C 
ATOM     26  C   UNL     1      -3.803  -5.505   2.011  0.00  0.00    +0.175 C 
ATOM     27  O   UNL     1      -2.443  -5.279   2.419  0.00  0.00    -0.488 OA
ATOM     28  C   UNL     1      -4.140  -6.997   2.049  0.00  0.00    +0.052 C 
ENDBRANCH  17  19
ENDBRANCH   3  17
BRANCH   1  29
ATOM     29  C   UNL     1       4.091   0.352  -0.143  0.00  0.00    +0.107 C 
BRANCH  29  30
ATOM     30  C   UNL     1       4.754   0.579  -1.503  0.00  0.00    +0.000 C 
BRANCH  30  31
ATOM     31  C   UNL     1       6.275   0.565  -1.338  0.00  0.00    -0.077 C 
BRANCH  31  32
ATOM     32  N   UNL     1       6.900   0.764  -2.662  0.00  0.00    +0.379 N 
ATOM     33  H   UNL     1       6.501   0.088  -3.324  0.00  0.00    -0.082 HD
BRANCH  32  35
ATOM     34  C   UNL     1       7.142   3.170  -2.150  0.00  0.00    -0.017 C 
ATOM     35  C   UNL     1       6.627   2.132  -3.149  0.00  0.00    -0.082 C 
ENDBRANCH  32  35
BRANCH  32  36
ATOM     36  C   UNL     1       8.359   0.542  -2.570  0.00  0.00    -0.082 C 
ATOM     37  C   UNL     1       8.953   0.573  -3.980  0.00  0.00    -0.017 C 
ENDBRANCH  32  36
ENDBRANCH  31  32
ENDBRANCH  30  31
ENDBRANCH  29  30
ENDBRANCH   1  29
TORSDOF 11
