REMARK  Name = ZINC64746174
REMARK  5 active torsions:
REMARK  status: ('A' for Active; 'I' for Inactive)
REMARK    1  A    between atoms: C_1  and  C_2
REMARK    2  A    between atoms: C_5  and  C_8
REMARK    3  A    between atoms: C_9  and  N_30
REMARK    4  A    between atoms: C_22  and  C_24
REMARK    5  A    between atoms: N_30  and  C_31
REMARK                            x       y       z     vdW  Elec       q    Type
REMARK                         _______ _______ _______ _____ _____    ______ ____
ROOT
ATOM      1  C   UNL     1       3.363  -5.256  -1.482  0.00  0.00    +0.114 A 
ATOM      2  C   UNL     1       3.466  -5.928  -0.300  0.00  0.00    +0.150 A 
ATOM      3  N   UNL     1       2.987  -7.212  -0.505  0.00  0.00    -0.190 N 
ATOM      4  C   UNL     1       2.611  -7.252  -1.824  0.00  0.00    +0.199 A 
ATOM      5  N   UNL     1       2.826  -6.105  -2.396  0.00  0.00    -0.218 NA
ATOM      6  S   UNL     1       2.013  -8.917  -2.002  0.00  0.00    -0.013 S 
ATOM      7  C   UNL     1       2.298  -9.453  -0.323  0.00  0.00    +0.184 A 
ATOM      8  N   UNL     1       2.802  -8.382   0.226  0.00  0.00    -0.140 NA
ATOM      9  N   UNL     1       2.047 -10.689   0.250  0.00  0.00    -0.305 N 
ATOM     10  C   UNL     1       2.350 -10.932   1.667  0.00  0.00    +0.126 C 
ATOM     11  C   UNL     1       1.077 -11.430   2.362  0.00  0.00    +0.126 C 
ATOM     12  N   UNL     1       0.503 -12.522   1.564  0.00  0.00    -0.298 N 
ATOM     13  C   UNL     1       0.200 -12.280   0.146  0.00  0.00    +0.126 C 
ATOM     14  C   UNL     1       1.468 -11.780  -0.547  0.00  0.00    +0.126 C 
ATOM     15  C   UNL     1       0.259 -13.725   2.121  0.00  0.00    +0.219 C 
ATOM     16  O   UNL     1       0.585 -13.938   3.270  0.00  0.00    -0.275 OA
ENDROOT
BRANCH   1  21
ATOM     17  C   UNL     1       4.902   0.211  -2.423  0.00  0.00    +0.044 C 
ATOM     18  C   UNL     1       4.499  -1.220  -2.177  0.00  0.00    -0.050 A 
ATOM     19  C   UNL     1       4.658  -2.163  -3.177  0.00  0.00    +0.004 A 
ATOM     20  C   UNL     1       4.291  -3.474  -2.958  0.00  0.00    +0.010 A 
ATOM     21  C   UNL     1       3.759  -3.850  -1.724  0.00  0.00    +0.004 A 
ATOM     22  C   UNL     1       3.601  -2.895  -0.719  0.00  0.00    +0.010 A 
ATOM     23  C   UNL     1       3.977  -1.587  -0.949  0.00  0.00    +0.004 A 
ENDBRANCH   1  21
BRANCH  15  24
ATOM     24  C   UNL     1      -0.419 -14.804   1.317  0.00  0.00    +0.075 C 
ATOM     25  C   UNL     1      -1.933 -14.581   1.338  0.00  0.00    +0.013 C 
ATOM     26  C   UNL     1      -2.621 -15.678   0.522  0.00  0.00    +0.001 C 
ATOM     27  C   UNL     1      -2.298 -17.044   1.129  0.00  0.00    +0.000 C 
ATOM     28  C   UNL     1      -0.785 -17.267   1.109  0.00  0.00    +0.001 C 
ATOM     29  C   UNL     1      -0.097 -16.171   1.925  0.00  0.00    +0.013 C 
ENDBRANCH  15  24
BRANCH   2  30
ATOM     30  N   UNL     1       3.966  -5.414   0.900  0.00  0.00    -0.324 N 
ATOM     31  H   UNL     1       4.280  -4.498   0.942  0.00  0.00    +0.148 HD
BRANCH  30  32
ATOM     32  C   UNL     1       4.015  -6.261   2.095  0.00  0.00    +0.072 C 
ATOM     33  C   UNL     1       5.342  -7.047   2.131  0.00  0.00    +0.022 C 
ATOM     34  C   UNL     1       6.267  -6.190   3.031  0.00  0.00    +0.002 C 
ATOM     35  C   UNL     1       5.298  -5.674   4.123  0.00  0.00    +0.002 C 
ATOM     36  C   UNL     1       3.987  -5.388   3.361  0.00  0.00    +0.022 C 
ENDBRANCH  30  32
ENDBRANCH   2  30
TORSDOF 4
