REMARK  Name = ZINC39040572
REMARK  9 active torsions:
REMARK  status: ('A' for Active; 'I' for Inactive)
REMARK    1  A    between atoms: C_1  and  C_2
REMARK    2  A    between atoms: C_2  and  C_3
REMARK    3  A    between atoms: C_5  and  C_18
REMARK    4  A    between atoms: C_6  and  O_17
REMARK    5  A    between atoms: C_8  and  O_9
REMARK    6  A    between atoms: O_9  and  C_10
REMARK    7  A    between atoms: C_10  and  C_11
REMARK    8  A    between atoms: C_20  and  C_25
REMARK    9  A    between atoms: C_21  and  C_24
REMARK                            x       y       z     vdW  Elec       q    Type
REMARK                         _______ _______ _______ _____ _____    ______ ____
ROOT
ATOM      1  C   UNL     1       0.707  -0.490  -1.238  0.00  0.00    -0.005 A 
ATOM      2  C   UNL     1      -0.023  -0.817  -2.365  0.00  0.00    +0.016 A 
ATOM      3  C   UNL     1       0.621  -1.263  -3.503  0.00  0.00    +0.023 A 
ATOM      4  C   UNL     1       2.003  -1.383  -3.517  0.00  0.00    +0.126 A 
ATOM      5  C   UNL     1       2.738  -1.056  -2.388  0.00  0.00    +0.091 A 
ATOM      6  C   UNL     1       2.090  -0.604  -1.249  0.00  0.00    +0.128 A 
ENDROOT
BRANCH   3   7
ATOM      7  C   UNL     1      -0.179  -1.619  -4.729  0.00  0.00    +0.164 C 
ATOM      8  C   UNL     1      -0.197  -0.462  -5.714  0.00  0.00    +0.011 C 
ATOM      9  C   UNL     1      -1.511  -0.144  -5.807  0.00  0.00    +0.064 C 
ATOM     10  N   UNL     1      -2.245  -0.943  -5.024  0.00  0.00    -0.182 NA
ATOM     11  N   UNL     1      -1.603  -1.790  -4.392  0.00  0.00    -0.297 N 
ATOM     12  C   UNL     1      -2.067   0.958  -6.671  0.00  0.00    +0.068 C 
ATOM     13  H   UNL     1      -1.969  -2.449  -3.782  0.00  0.00    +0.183 HD
BRANCH   8  14
ATOM     14  C   UNL     1       0.941   0.163  -6.403  0.00  0.00    -0.014 A 
ATOM     15  C   UNL     1       1.687  -0.570  -7.333  0.00  0.00    +0.012 A 
ATOM     16  C   UNL     1       2.754   0.017  -7.979  0.00  0.00    +0.050 A 
ATOM     17  C   UNL     1       3.087   1.337  -7.707  0.00  0.00    +0.162 A 
ATOM     18  C   UNL     1       2.351   2.071  -6.784  0.00  0.00    +0.162 A 
ATOM     19  C   UNL     1       1.278   1.496  -6.135  0.00  0.00    +0.057 A 
ATOM     20  O   UNL     1       2.692   3.368  -6.529  0.00  0.00    -0.488 OA
ATOM     21  C   UNL     1       3.936   3.566  -5.853  0.00  0.00    +0.232 C 
ATOM     22  C   UNL     1       5.092   3.574  -6.841  0.00  0.00    +0.082 C 
ATOM     23  C   UNL     1       5.273   2.230  -7.529  0.00  0.00    +0.232 C 
ATOM     24  O   UNL     1       4.142   1.921  -8.345  0.00  0.00    -0.488 OA
ENDBRANCH   8  14
ENDBRANCH   3   7
BRANCH   1  26
ATOM     25  C   UNL     1      -0.019   1.526   0.010  0.00  0.00    +0.009 C 
ATOM     26  C   UNL     1       0.002  -0.004   0.002  0.00  0.00    +0.035 C 
ENDBRANCH   1  26
BRANCH   4  27
ATOM     27  O   UNL     1       2.636  -1.823  -4.637  0.00  0.00    -0.506 OA
ATOM     28  H   UNL     1       2.889  -1.117  -5.248  0.00  0.00    +0.292 HD
ENDBRANCH   4  27
BRANCH   6  29
ATOM     29  O   UNL     1       2.809  -0.276  -0.143  0.00  0.00    -0.487 OA
BRANCH  29  30
ATOM     30  C   UNL     1       4.228  -0.417  -0.226  0.00  0.00    +0.264 C 
BRANCH  30  31
ATOM     31  C   UNL     1       4.851  -0.011   1.085  0.00  0.00    -0.010 A 
ATOM     32  C   UNL     1       5.221   1.304   1.296  0.00  0.00    +0.007 A 
ATOM     33  C   UNL     1       5.792   1.676   2.499  0.00  0.00    +0.000 A 
ATOM     34  C   UNL     1       5.993   0.733   3.490  0.00  0.00    +0.000 A 
ATOM     35  C   UNL     1       5.622  -0.582   3.279  0.00  0.00    +0.000 A 
ATOM     36  C   UNL     1       5.047  -0.953   2.078  0.00  0.00    +0.007 A 
ENDBRANCH  30  31
ENDBRANCH  29  30
ENDBRANCH   6  29
TORSDOF 7
