REMARK  Name = ZINC21809613
REMARK  4 active torsions:
REMARK  status: ('A' for Active; 'I' for Inactive)
REMARK    1  A    between atoms: C_1  and  C_2
REMARK    2  A    between atoms: C_2  and  C_22
REMARK    3  A    between atoms: N_14  and  C_15
REMARK    4  A    between atoms: N_24  and  C_25
REMARK                            x       y       z     vdW  Elec       q    Type
REMARK                         _______ _______ _______ _____ _____    ______ ____
ROOT
ATOM      1  C   UNL     1       3.988   4.338   1.144  0.00  0.00    +0.044 C 
ATOM      2  C   UNL     1       3.271   2.990   1.052  0.00  0.00    +0.133 C 
ATOM      3  C   UNL     1       1.938   3.187   0.329  0.00  0.00    +0.158 C 
ATOM      4  N   UNL     1       1.388   1.876  -0.025  0.00  0.00    -0.333 N 
ATOM      5  C   UNL     1       0.066   1.502  -0.180  0.00  0.00    +0.057 A 
ATOM      6  C   UNL     1      -1.212   2.072  -0.084  0.00  0.00    +0.034 A 
ATOM      7  C   UNL     1      -2.309   1.326  -0.331  0.00  0.00    +0.048 A 
ATOM      8  S   UNL     1      -1.615  -0.268  -0.733  0.00  0.00    -0.095 S 
ATOM      9  C   UNL     1       0.100   0.147  -0.544  0.00  0.00    +0.038 A 
ATOM     10  C   UNL     1       1.419  -0.285  -0.601  0.00  0.00    +0.048 A 
ATOM     11  C   UNL     1       2.206   0.779  -0.275  0.00  0.00    +0.107 A 
ATOM     12  C   UNL     1       3.666   0.897  -0.182  0.00  0.00    +0.268 C 
ATOM     13  O   UNL     1       4.408   0.018  -0.579  0.00  0.00    -0.268 OA
ATOM     14  N   UNL     1       4.142   2.038   0.371  0.00  0.00    -0.250 N 
ENDROOT
BRANCH  14  15
ATOM     15  C   UNL     1       5.510   2.313   0.286  0.00  0.00    +0.039 A 
ATOM     16  C   UNL     1       5.970   3.298  -0.579  0.00  0.00    +0.023 A 
ATOM     17  C   UNL     1       7.322   3.567  -0.661  0.00  0.00    +0.003 A 
ATOM     18  C   UNL     1       8.219   2.857   0.118  0.00  0.00    +0.020 A 
ATOM     19  C   UNL     1       7.764   1.876   0.980  0.00  0.00    +0.043 A 
ATOM     20  C   UNL     1       6.411   1.605   1.071  0.00  0.00    +0.043 A 
ATOM     21 CL   UNL     1       8.893   0.988   1.956  0.00  0.00    -0.083 Cl
ENDBRANCH  14  15
BRANCH   2  22
ATOM     22  C   UNL     1       2.999   2.487   2.446  0.00  0.00    +0.239 C 
ATOM     23  O   UNL     1       1.937   2.724   2.980  0.00  0.00    -0.273 OA
ATOM     24  N   UNL     1       3.938   1.773   3.100  0.00  0.00    -0.311 N 
ATOM     25  H   UNL     1       4.901   1.558   2.615  0.00  0.00    +0.149 HD
BRANCH  24  26
ATOM     26  C   UNL     1       3.673   1.285   4.455  0.00  0.00    +0.073 C 
ATOM     27  C   UNL     1       3.985   2.411   5.462  0.00  0.00    +0.022 C 
ATOM     28  C   UNL     1       3.256   2.119   6.746  0.00  0.00    +0.002 C 
ATOM     29  C   UNL     1       4.133   1.362   7.761  0.00  0.00    +0.000 C 
ATOM     30  C   UNL     1       4.980   0.253   7.108  0.00  0.00    +0.000 C 
ATOM     31  C   UNL     1       4.211  -0.529   6.078  0.00  0.00    +0.002 C 
ATOM     32  C   UNL     1       4.476   0.094   4.692  0.00  0.00    +0.022 C 
ENDBRANCH  24  26
ENDBRANCH   2  22
TORSDOF 3
