REMARK  Name = ZINC20933900
REMARK  12 active torsions:
REMARK  status: ('A' for Active; 'I' for Inactive)
REMARK    1  A    between atoms: C_1  and  O_2
REMARK    2  A    between atoms: O_2  and  C_3
REMARK    3  A    between atoms: C_7  and  C_11
REMARK    4  A    between atoms: C_8  and  O_9
REMARK    5  A    between atoms: O_9  and  C_10
REMARK    6  A    between atoms: C_11  and  N_12
REMARK    7  A    between atoms: N_12  and  C_13
REMARK    8  A    between atoms: C_13  and  C_14
REMARK    9  A    between atoms: C_14  and  C_15
REMARK   10  A    between atoms: C_15  and  S_16
REMARK   11  A    between atoms: S_16  and  C_17
REMARK   12  A    between atoms: N_21  and  C_22
REMARK                            x       y       z     vdW  Elec       q    Type
REMARK                         _______ _______ _______ _____ _____    ______ ____
ROOT
ATOM      1  N   UNL     1       2.762   5.191   1.366  0.00  0.00    +0.382 N 
ATOM      2  H   UNL     1       1.954   5.842   1.732  0.00  0.00    -0.085 HD
ATOM      3  H   UNL     1       2.857   4.318   2.028  0.00  0.00    -0.085 HD
ENDROOT
BRANCH   1   4
ATOM      4  C   UNL     1       2.449   4.742   0.003  0.00  0.00    -0.043 C 
BRANCH   4   9
ATOM      5  C   UNL     1      -1.252   3.946   0.034  0.00  0.00    +0.163 A 
ATOM      6  C   UNL     1      -1.231   2.561   0.022  0.00  0.00    +0.064 A 
ATOM      7  C   UNL     1      -0.024   1.887   0.012  0.00  0.00    +0.022 A 
ATOM      8  C   UNL     1       1.166   2.593   0.005  0.00  0.00    +0.020 A 
ATOM      9  C   UNL     1       1.152   3.976   0.012  0.00  0.00    -0.018 A 
ATOM     10  C   UNL     1      -0.055   4.656   0.027  0.00  0.00    +0.163 A 
ATOM     11 BR   UNL     1       0.002  -0.004   0.002  0.00  0.00    -0.050 Br
BRANCH   5  13
ATOM     12  C   UNL     1      -3.626   3.816   0.056  0.00  0.00    +0.277 C 
ATOM     13  O   UNL     1      -2.438   4.610   0.049  0.00  0.00    -0.491 OA
ENDBRANCH   5  13
BRANCH  10  14
ATOM     14  O   UNL     1      -0.070   6.016   0.034  0.00  0.00    -0.491 OA
ATOM     15  C   UNL     1      -0.089   6.672  -1.236  0.00  0.00    +0.277 C 
ENDBRANCH  10  14
ENDBRANCH   4   9
ENDBRANCH   1   4
BRANCH   1  16
ATOM     16  C   UNL     1       4.023   5.944   1.397  0.00  0.00    -0.081 C 
BRANCH  16  17
ATOM     17  C   UNL     1       4.314   6.394   2.829  0.00  0.00    -0.008 C 
BRANCH  17  18
ATOM     18  C   UNL     1       5.628   7.178   2.861  0.00  0.00    +0.075 C 
BRANCH  18  19
ATOM     19  S   UNL     1       5.972   7.711   4.556  0.00  0.00    -0.084 S 
BRANCH  19  20
ATOM     20  C   UNL     1       7.494   8.563   4.306  0.00  0.00    +0.214 A 
ATOM     21  N   UNL     1       8.126   8.716   3.162  0.00  0.00    -0.101 NA
ATOM     22  N   UNL     1       9.206   9.389   3.331  0.00  0.00    -0.022 NA
ATOM     23  N   UNL     1       9.345   9.712   4.572  0.00  0.00    -0.038 NA
ATOM     24  N   UNL     1       8.232   9.191   5.255  0.00  0.00    -0.187 N 
BRANCH  24  25
ATOM     25  C   UNL     1       7.948   9.296   6.624  0.00  0.00    +0.070 A 
ATOM     26  C   UNL     1       6.634   9.421   7.054  0.00  0.00    +0.028 A 
ATOM     27  C   UNL     1       6.357   9.519   8.404  0.00  0.00    +0.002 A 
ATOM     28  C   UNL     1       7.387   9.504   9.326  0.00  0.00    +0.000 A 
ATOM     29  C   UNL     1       8.697   9.384   8.900  0.00  0.00    +0.002 A 
ATOM     30  C   UNL     1       8.981   9.281   7.552  0.00  0.00    +0.028 A 
ENDBRANCH  24  25
ENDBRANCH  19  20
ENDBRANCH  18  19
ENDBRANCH  17  18
ENDBRANCH  16  17
ENDBRANCH   1  16
TORSDOF 10
