REMARK  Name = ZINC08710816
REMARK  8 active torsions:
REMARK  status: ('A' for Active; 'I' for Inactive)
REMARK    1  A    between atoms: C_1  and  C_2
REMARK    2  A    between atoms: C_3  and  C_28
REMARK    3  A    between atoms: C_7  and  N_27
REMARK    4  A    between atoms: C_9  and  C_11
REMARK    5  A    between atoms: C_11  and  N_12
REMARK    6  A    between atoms: C_16  and  S_23
REMARK    7  A    between atoms: C_20  and  C_22
REMARK    8  A    between atoms: S_23  and  N_26
REMARK                            x       y       z     vdW  Elec       q    Type
REMARK                         _______ _______ _______ _____ _____    ______ ____
ROOT
ATOM      1  N   UNL     1       2.467   4.036  -0.034  0.00  0.00    -0.319 N 
ATOM      2  C   UNL     1       1.149   3.564  -0.063  0.00  0.00    +0.034 A 
ATOM      3  C   UNL     1      -0.054   4.268  -0.030  0.00  0.00    +0.025 A 
ATOM      4  C   UNL     1      -1.255   3.590  -0.055  0.00  0.00    +0.030 A 
ATOM      5  C   UNL     1      -1.274   2.208  -0.117  0.00  0.00    +0.105 A 
ATOM      6  C   UNL     1      -0.085   1.503  -0.148  0.00  0.00    +0.034 A 
ATOM      7  C   UNL     1       1.119   2.176  -0.126  0.00  0.00    -0.023 A 
ATOM      8  C   UNL     1       2.550   1.679  -0.168  0.00  0.00    +0.059 C 
ATOM      9  C   UNL     1       3.346   2.954  -0.529  0.00  0.00    +0.075 C 
ATOM     10  C   UNL     1       4.694   2.976   0.195  0.00  0.00    +0.028 C 
ENDROOT
BRANCH   5  11
ATOM     11  S   UNL     1      -2.811   1.347  -0.152  0.00  0.00    +0.056 S 
ATOM     12  O   UNL     1      -3.775   2.257  -0.664  0.00  0.00    -0.153 OA
ATOM     13  O   UNL     1      -2.557   0.086  -0.756  0.00  0.00    -0.153 OA
BRANCH  11  14
ATOM     14  N   UNL     1      -3.237   1.042   1.419  0.00  0.00    -0.204 NA
ATOM     15  H   UNL     1      -4.173   0.989   1.666  0.00  0.00    +0.144 HD
ATOM     16  H   UNL     1      -2.550   0.917   2.092  0.00  0.00    +0.144 HD
ENDBRANCH  11  14
ENDBRANCH   5  11
BRANCH   1  17
ATOM     17  C   UNL     1       2.611   5.247  -0.852  0.00  0.00    +0.181 C 
BRANCH  17  26
ATOM     18  C   UNL     1       1.034   3.829  -7.181  0.00  0.00    +0.045 C 
ATOM     19  C   UNL     1       2.287   3.869  -6.344  0.00  0.00    -0.028 A 
ATOM     20  C   UNL     1       3.474   3.562  -6.886  0.00  0.00    -0.008 A 
ATOM     21  S   UNL     1       4.614   3.753  -5.529  0.00  0.00    -0.074 S 
ATOM     22  C   UNL     1       3.465   4.241  -4.270  0.00  0.00    +0.114 A 
ATOM     23  C   UNL     1       2.223   4.242  -4.942  0.00  0.00    +0.050 A 
ATOM     24  C   UNL     1       1.100   4.605  -4.148  0.00  0.00    +0.128 A 
ATOM     25  N   UNL     1       1.284   4.910  -2.873  0.00  0.00    -0.215 NA
ATOM     26  C   UNL     1       2.478   4.888  -2.309  0.00  0.00    +0.149 A 
ATOM     27  N   UNL     1       3.557   4.564  -2.995  0.00  0.00    -0.223 NA
ATOM     28  C   UNL     1       3.774   3.152  -8.305  0.00  0.00    +0.052 C 
BRANCH  24  29
ATOM     29  N   UNL     1      -0.167   4.641  -4.701  0.00  0.00    -0.343 N 
ATOM     30  H   UNL     1      -0.275   4.741  -5.660  0.00  0.00    +0.144 HD
ATOM     31  H   UNL     1      -0.948   4.566  -4.131  0.00  0.00    +0.144 HD
ENDBRANCH  24  29
ENDBRANCH  17  26
ENDBRANCH   1  17
TORSDOF 5
