REMARK  Name = ZINC02890264
REMARK  11 active torsions:
REMARK  status: ('A' for Active; 'I' for Inactive)
REMARK    1  A    between atoms: C_1  and  C_2
REMARK    2  A    between atoms: C_2  and  N_59
REMARK    3  A    between atoms: C_3  and  C_4
REMARK    4  A    between atoms: C_3  and  N_59
REMARK    5  A    between atoms: C_5  and  C_6
REMARK    6  A    between atoms: C_5  and  N_59
REMARK    7  A    between atoms: C_6  and  C_7
REMARK    8  A    between atoms: C_7  and  N_8
REMARK    9  A    between atoms: C_9  and  C_25
REMARK   10  A    between atoms: C_28  and  O_31
REMARK   11  A    between atoms: O_31  and  C_32
REMARK                            x       y       z     vdW  Elec       q    Type
REMARK                         _______ _______ _______ _____ _____    ______ ____
ROOT
ATOM      1  N   UNL     1      -0.748   0.220   0.413  0.00  0.00    -0.284 N 
ATOM      2  C   UNL     1       0.685   0.456   0.198  0.00  0.00    +0.144 C 
ATOM      3  C   UNL     1       1.361  -0.873   0.411  0.00  0.00    +0.072 A 
ATOM      4  C   UNL     1       2.763  -1.296   0.344  0.00  0.00    +0.199 A 
ATOM      5  O   UNL     1       3.655  -0.513   0.070  0.00  0.00    -0.287 OA
ATOM      6  C   UNL     1       3.040  -2.719   0.624  0.00  0.00    +0.065 A 
ATOM      7  C   UNL     1       4.337  -3.228   0.587  0.00  0.00    +0.030 A 
ATOM      8  C   UNL     1       4.551  -4.562   0.855  0.00  0.00    +0.019 A 
ATOM      9  C   UNL     1       3.480  -5.393   1.161  0.00  0.00    +0.019 A 
ATOM     10  C   UNL     1       2.194  -4.901   1.200  0.00  0.00    +0.048 A 
ATOM     11  C   UNL     1       1.954  -3.557   0.932  0.00  0.00    +0.140 A 
ATOM     12  O   UNL     1       0.702  -3.065   0.967  0.00  0.00    -0.450 OA
ATOM     13  C   UNL     1       0.398  -1.776   0.720  0.00  0.00    +0.199 A 
ATOM     14  C   UNL     1      -0.913  -1.079   0.717  0.00  0.00    +0.283 C 
ATOM     15  O   UNL     1      -1.980  -1.607   0.956  0.00  0.00    -0.267 OA
ATOM     16 BR   UNL     1       6.306  -5.264   0.809  0.00  0.00    -0.050 Br
ENDROOT
BRANCH   2  17
ATOM     17  C   UNL     1       0.925   0.940  -1.209  0.00  0.00    -0.022 A 
ATOM     18  C   UNL     1       0.223   0.381  -2.261  0.00  0.00    +0.009 A 
ATOM     19  C   UNL     1       0.437   0.827  -3.551  0.00  0.00    +0.046 A 
ATOM     20  C   UNL     1       1.365   1.829  -3.791  0.00  0.00    +0.120 A 
ATOM     21  C   UNL     1       2.073   2.385  -2.735  0.00  0.00    +0.046 A 
ATOM     22  C   UNL     1       1.851   1.939  -1.446  0.00  0.00    +0.009 A 
BRANCH  20  23
ATOM     23  O   UNL     1       1.582   2.266  -5.060  0.00  0.00    -0.495 OA
ATOM     24  C   UNL     1       0.818   1.649  -6.098  0.00  0.00    +0.277 C 
ENDBRANCH  20  23
ENDBRANCH   2  17
BRANCH   1  25
ATOM     25  C   UNL     1      -1.812   1.222   0.310  0.00  0.00    +0.107 C 
BRANCH  25  26
ATOM     26  C   UNL     1      -2.028   1.879   1.675  0.00  0.00    +0.000 C 
BRANCH  26  27
ATOM     27  C   UNL     1      -3.138   2.926   1.567  0.00  0.00    -0.077 C 
BRANCH  27  28
ATOM     28  N   UNL     1      -3.349   3.536   2.896  0.00  0.00    +0.379 N 
ATOM     29  H   UNL     1      -3.483   2.789   3.588  0.00  0.00    -0.082 HD
BRANCH  28  31
ATOM     30  C   UNL     1      -1.919   5.448   2.255  0.00  0.00    -0.017 C 
ATOM     31  C   UNL     1      -2.168   4.338   3.278  0.00  0.00    -0.082 C 
ENDBRANCH  28  31
BRANCH  28  32
ATOM     32  C   UNL     1      -4.554   4.392   2.874  0.00  0.00    -0.082 C 
ATOM     33  C   UNL     1      -4.958   4.710   4.315  0.00  0.00    -0.017 C 
ENDBRANCH  28  32
ENDBRANCH  27  28
ENDBRANCH  26  27
ENDBRANCH  25  26
ENDBRANCH   1  25
TORSDOF 8
