REMARK  Name = ZINC05437739
REMARK  6 active torsions:
REMARK  status: ('A' for Active; 'I' for Inactive)
REMARK    1  A    between atoms: C_1  and  C_2
REMARK    2  A    between atoms: C_7  and  N_8
REMARK    3  A    between atoms: C_9  and  N_16
REMARK    4  A    between atoms: C_17  and  C_19
REMARK    5  A    between atoms: N_21  and  C_22
REMARK    6  A    between atoms: C_28  and  C_30
REMARK                            x       y       z     vdW  Elec       q    Type
REMARK                         _______ _______ _______ _____ _____    ______ ____
ROOT
ATOM      1  N   UNL     1      -3.553   1.614  -0.627  0.00  0.00    -0.218 N 
ATOM      2  C   UNL     1      -2.369   1.102  -0.208  0.00  0.00    +0.133 A 
ATOM      3  C   UNL     1      -2.614  -0.156   0.295  0.00  0.00    +0.026 A 
ATOM      4  C   UNL     1      -3.970  -0.406   0.169  0.00  0.00    +0.079 A 
ATOM      5  N   UNL     1      -4.538   0.654  -0.389  0.00  0.00    -0.168 NA
ATOM      6  C   UNL     1      -4.469  -1.760   0.668  0.00  0.00    +0.127 C 
ATOM      7  S   UNL     1      -3.050  -2.330   1.692  0.00  0.00    -0.150 S 
ATOM      8  C   UNL     1      -1.766  -1.262   0.920  0.00  0.00    +0.110 C 
ENDROOT
BRANCH   1  15
ATOM      9  C   UNL     1      -5.093   1.782  -3.015  0.00  0.00    +0.046 C 
ATOM     10  C   UNL     1      -4.496   3.003  -2.365  0.00  0.00    -0.025 A 
ATOM     11  C   UNL     1      -4.690   4.250  -2.928  0.00  0.00    +0.005 A 
ATOM     12  C   UNL     1      -4.143   5.372  -2.332  0.00  0.00    +0.000 A 
ATOM     13  C   UNL     1      -3.401   5.249  -1.171  0.00  0.00    +0.002 A 
ATOM     14  C   UNL     1      -3.208   4.006  -0.602  0.00  0.00    +0.028 A 
ATOM     15  C   UNL     1      -3.751   2.877  -1.200  0.00  0.00    +0.070 A 
ENDBRANCH   1  15
BRANCH   2  16
ATOM     16  N   UNL     1      -1.131   1.736  -0.269  0.00  0.00    -0.262 N 
ATOM     17  C   UNL     1      -0.003   1.005  -0.362  0.00  0.00    +0.304 C 
ATOM     18  O   UNL     1      -0.060  -0.207  -0.318  0.00  0.00    -0.265 OA
ATOM     19  H   UNL     1      -1.081   2.705  -0.244  0.00  0.00    +0.157 HD
BRANCH  17  20
ATOM     20  C   UNL     1       1.316   1.685  -0.527  0.00  0.00    +0.300 C 
ATOM     21  O   UNL     1       1.373   2.896  -0.571  0.00  0.00    -0.265 OA
ATOM     22  N   UNL     1       2.443   0.953  -0.626  0.00  0.00    -0.304 N 
ATOM     23  H   UNL     1       2.398  -0.015  -0.590  0.00  0.00    +0.149 HD
BRANCH  22  24
ATOM     24  C   UNL     1       3.738   1.620  -0.787  0.00  0.00    +0.076 C 
ATOM     25  C   UNL     1       4.286   2.010   0.588  0.00  0.00    +0.022 C 
ATOM     26  C   UNL     1       4.463   0.752   1.441  0.00  0.00    +0.002 C 
ATOM     27  C   UNL     1       5.444  -0.198   0.751  0.00  0.00    +0.000 C 
ATOM     28  C   UNL     1       4.896  -0.587  -0.623  0.00  0.00    +0.005 C 
ATOM     29  C   UNL     1       4.719   0.670  -1.476  0.00  0.00    +0.006 C 
ATOM     30  C   UNL     1       4.171   0.281  -2.851  0.00  0.00    +0.009 C 
ENDBRANCH  22  24
ENDBRANCH  17  20
ENDBRANCH   2  16
TORSDOF 4
