REMARK  Name = ZINC36597848
REMARK  10 active torsions:
REMARK  status: ('A' for Active; 'I' for Inactive)
REMARK    1  A    between atoms: C_1  and  C_2
REMARK    2  A    between atoms: C_5  and  C_7
REMARK    3  A    between atoms: C_7  and  N_8
REMARK    4  A    between atoms: N_8  and  C_9
REMARK    5  A    between atoms: C_9  and  C_11
REMARK    6  A    between atoms: C_9  and  C_20
REMARK    7  A    between atoms: N_22  and  C_23
REMARK    8  A    between atoms: C_29  and  C_31
REMARK    9  A    between atoms: C_35  and  O_38
REMARK   10  A    between atoms: C_36  and  O_37
REMARK                            x       y       z     vdW  Elec       q    Type
REMARK                         _______ _______ _______ _____ _____    ______ ____
ROOT
ATOM      1  N   UNL     1       2.867  -2.641  -1.242  0.00  0.00    -0.275 N 
ATOM      2  C   UNL     1       1.664  -2.137  -0.905  0.00  0.00    +0.252 C 
ATOM      3  O   UNL     1       1.372  -1.992   0.266  0.00  0.00    -0.270 OA
ENDROOT
BRANCH   2   4
ATOM      4  C   UNL     1       0.700  -1.761  -1.957  0.00  0.00    +0.082 A 
ATOM      5  C   UNL     1       0.860  -2.242  -3.260  0.00  0.00    +0.017 A 
ATOM      6  C   UNL     1      -0.042  -1.888  -4.240  0.00  0.00    +0.005 A 
ATOM      7  C   UNL     1      -1.109  -1.057  -3.942  0.00  0.00    +0.049 A 
ATOM      8  C   UNL     1      -1.280  -0.572  -2.656  0.00  0.00    +0.159 A 
ATOM      9  C   UNL     1      -0.381  -0.925  -1.655  0.00  0.00    +0.171 A 
BRANCH   9  10
ATOM     10  O   UNL     1      -0.548  -0.456  -0.392  0.00  0.00    -0.503 OA
ATOM     11  H   UNL     1      -0.105   0.387  -0.223  0.00  0.00    +0.292 HD
ENDBRANCH   9  10
BRANCH   8  12
ATOM     12  O   UNL     1      -2.330   0.244  -2.372  0.00  0.00    -0.503 OA
ATOM     13  H   UNL     1      -3.127  -0.224  -2.089  0.00  0.00    +0.292 HD
ENDBRANCH   8  12
ENDBRANCH   2   4
BRANCH   1  14
ATOM     14  C   UNL     1       3.743  -3.201  -0.209  0.00  0.00    +0.183 C 
BRANCH  14  19
ATOM     15  C   UNL     1       2.050  -7.873   0.652  0.00  0.00    +0.086 C 
ATOM     16  C   UNL     1       2.902  -6.736   0.152  0.00  0.00    +0.102 A 
ATOM     17  C   UNL     1       4.018  -6.856  -0.589  0.00  0.00    +0.045 A 
ATOM     18  C   UNL     1       4.493  -5.546  -0.831  0.00  0.00    +0.046 A 
ATOM     19  C   UNL     1       3.638  -4.704  -0.223  0.00  0.00    +0.122 A 
ATOM     20  O   UNL     1       2.674  -5.430   0.366  0.00  0.00    -0.463 OA
ENDBRANCH  14  19
ENDBRANCH   1  14
BRANCH   1  21
ATOM     21  C   UNL     1       3.300  -2.630  -2.642  0.00  0.00    +0.193 C 
BRANCH  21  22
ATOM     22  C   UNL     1       2.851  -1.349  -3.296  0.00  0.00    -0.014 A 
ATOM     23  C   UNL     1       2.417  -0.292  -2.518  0.00  0.00    +0.010 A 
ATOM     24  C   UNL     1       2.005   0.885  -3.113  0.00  0.00    +0.050 A 
ATOM     25  C   UNL     1       2.026   1.009  -4.493  0.00  0.00    +0.166 A 
ATOM     26  C   UNL     1       2.463  -0.056  -5.277  0.00  0.00    +0.167 A 
ATOM     27  C   UNL     1       2.880  -1.231  -4.673  0.00  0.00    +0.055 A 
ATOM     28  O   UNL     1       2.389   0.311  -6.590  0.00  0.00    -0.453 OA
ATOM     29  C   UNL     1       1.520   1.458  -6.621  0.00  0.00    +0.466 C 
ATOM     30  O   UNL     1       1.679   2.042  -5.314  0.00  0.00    -0.453 OA
ENDBRANCH  21  22
BRANCH  21  31
ATOM     31  C   UNL     1       4.803  -2.727  -2.704  0.00  0.00    +0.238 C 
ATOM     32  O   UNL     1       5.407  -3.340  -1.850  0.00  0.00    -0.273 OA
ATOM     33  N   UNL     1       5.475  -2.131  -3.709  0.00  0.00    -0.311 N 
ATOM     34  H   UNL     1       4.992  -1.640  -4.392  0.00  0.00    +0.149 HD
BRANCH  33  35
ATOM     35  C   UNL     1       6.936  -2.225  -3.769  0.00  0.00    +0.073 C 
ATOM     36  C   UNL     1       7.554  -1.127  -2.901  0.00  0.00    +0.022 C 
ATOM     37  C   UNL     1       9.079  -1.225  -2.963  0.00  0.00    +0.002 C 
ATOM     38  C   UNL     1       9.542  -1.051  -4.411  0.00  0.00    +0.000 C 
ATOM     39  C   UNL     1       8.924  -2.149  -5.280  0.00  0.00    +0.002 C 
ATOM     40  C   UNL     1       7.399  -2.051  -5.217  0.00  0.00    +0.022 C 
ENDBRANCH  33  35
ENDBRANCH  21  31
ENDBRANCH   1  21
TORSDOF 9
