REMARK  Name = ZINC17961040
REMARK  7 active torsions:
REMARK  status: ('A' for Active; 'I' for Inactive)
REMARK    1  A    between atoms: C_1  and  C_2
REMARK    2  A    between atoms: C_4  and  C_27
REMARK    3  A    between atoms: C_5  and  N_9
REMARK    4  A    between atoms: C_6  and  C_8
REMARK    5  A    between atoms: C_10  and  C_12
REMARK    6  A    between atoms: C_12  and  N_13
REMARK    7  A    between atoms: C_14  and  C_16
REMARK                            x       y       z     vdW  Elec       q    Type
REMARK                         _______ _______ _______ _____ _____    ______ ____
ROOT
ATOM      1  C   UNL     1      -4.837   1.094  -1.232  0.00  0.00    +0.200 C 
ENDROOT
BRANCH   1   3
ATOM      2  N   UNL     1      -2.745   1.346   0.062  0.00  0.00    -0.284 N 
ATOM      3  C   UNL     1      -4.092   1.347   0.053  0.00  0.00    +0.234 C 
ATOM      4  O   UNL     1      -4.706   1.553   1.079  0.00  0.00    -0.274 OA
ATOM      5  H   UNL     1      -2.254   1.102  -0.738  0.00  0.00    +0.155 HD
BRANCH   2  10
ATOM      6  C   UNL     1       0.069   2.757   4.782  0.00  0.00    +0.044 C 
ATOM      7  C   UNL     1      -0.680   2.384   3.529  0.00  0.00    -0.050 A 
ATOM      8  C   UNL     1      -0.452   3.079   2.355  0.00  0.00    +0.008 A 
ATOM      9  C   UNL     1      -1.136   2.739   1.205  0.00  0.00    -0.029 A 
ATOM     10  C   UNL     1      -2.053   1.696   1.227  0.00  0.00    +0.039 A 
ATOM     11  C   UNL     1      -2.284   1.003   2.408  0.00  0.00    -0.029 A 
ATOM     12  C   UNL     1      -1.595   1.347   3.555  0.00  0.00    +0.008 A 
ATOM     13  C   UNL     1      -3.280  -0.127   2.438  0.00  0.00    +0.045 C 
ATOM     14  C   UNL     1      -0.886   3.496  -0.073  0.00  0.00    +0.045 C 
ENDBRANCH   2  10
ENDBRANCH   1   3
BRANCH   1  15
ATOM     15  N   UNL     1      -6.279   1.148  -0.980  0.00  0.00    -0.304 N 
ATOM     16  C   UNL     1      -7.149   0.949  -1.990  0.00  0.00    +0.255 C 
ATOM     17  O   UNL     1      -6.737   0.726  -3.109  0.00  0.00    -0.272 OA
ATOM     18  H   UNL     1      -6.609   1.326  -0.085  0.00  0.00    +0.149 HD
BRANCH  16  19
ATOM     19  C   UNL     1      -8.632   1.004  -1.730  0.00  0.00    +0.263 C 
ATOM     20  C   UNL     1      -9.088  -0.216  -0.897  0.00  0.00    +0.093 C 
ATOM     21  C   UNL     1     -10.451  -0.511  -1.493  0.00  0.00    -0.000 A 
ATOM     22  C   UNL     1     -11.510  -1.271  -1.048  0.00  0.00    +0.027 A 
ATOM     23  C   UNL     1     -12.669  -1.352  -1.802  0.00  0.00    +0.041 A 
ATOM     24  C   UNL     1     -12.757  -0.667  -3.001  0.00  0.00    +0.023 A 
ATOM     25  C   UNL     1     -11.695   0.092  -3.449  0.00  0.00    +0.047 A 
ATOM     26  C   UNL     1     -10.525   0.174  -2.699  0.00  0.00    +0.125 A 
ATOM     27  O   UNL     1      -9.370   0.848  -2.954  0.00  0.00    -0.479 OA
ATOM     28 CL   UNL     1     -14.006  -2.308  -1.244  0.00  0.00    -0.084 Cl
ENDBRANCH  16  19
ENDBRANCH   1  15
TORSDOF 4
