REMARK  Name = ZINC39960143
REMARK  10 active torsions:
REMARK  status: ('A' for Active; 'I' for Inactive)
REMARK    1  A    between atoms: C_1  and  C_2
REMARK    2  A    between atoms: C_2  and  C_3
REMARK    3  A    between atoms: C_5  and  C_23
REMARK    4  A    between atoms: C_6  and  O_22
REMARK    5  A    between atoms: C_8  and  O_9
REMARK    6  A    between atoms: O_9  and  C_10
REMARK    7  A    between atoms: C_10  and  C_11
REMARK    8  A    between atoms: N_14  and  C_16
REMARK    9  A    between atoms: C_25  and  C_30
REMARK   10  A    between atoms: C_26  and  C_29
REMARK                            x       y       z     vdW  Elec       q    Type
REMARK                         _______ _______ _______ _____ _____    ______ ____
ROOT
ATOM      1  C   UNL     1       0.707  -0.490  -1.238  0.00  0.00    -0.005 A 
ATOM      2  C   UNL     1      -0.023  -0.817  -2.365  0.00  0.00    +0.016 A 
ATOM      3  C   UNL     1       0.621  -1.263  -3.503  0.00  0.00    +0.023 A 
ATOM      4  C   UNL     1       2.003  -1.383  -3.517  0.00  0.00    +0.126 A 
ATOM      5  C   UNL     1       2.738  -1.056  -2.388  0.00  0.00    +0.091 A 
ATOM      6  C   UNL     1       2.090  -0.604  -1.249  0.00  0.00    +0.128 A 
ENDROOT
BRANCH   3   7
ATOM      7  C   UNL     1      -0.179  -1.619  -4.729  0.00  0.00    +0.164 C 
ATOM      8  C   UNL     1      -0.523  -3.099  -4.736  0.00  0.00    +0.011 C 
ATOM      9  C   UNL     1      -1.877  -3.111  -4.707  0.00  0.00    +0.064 C 
ATOM     10  N   UNL     1      -2.359  -1.862  -4.684  0.00  0.00    -0.182 NA
ATOM     11  N   UNL     1      -1.501  -0.971  -4.696  0.00  0.00    -0.297 N 
ATOM     12  C   UNL     1      -2.724  -4.357  -4.701  0.00  0.00    +0.068 C 
ATOM     13  H   UNL     1      -1.668  -0.015  -4.685  0.00  0.00    +0.183 HD
BRANCH   8  14
ATOM     14  C   UNL     1       0.397  -4.246  -4.768  0.00  0.00    -0.018 A 
ATOM     15  C   UNL     1       1.255  -4.489  -3.691  0.00  0.00    +0.011 A 
ATOM     16  C   UNL     1       2.114  -5.566  -3.727  0.00  0.00    +0.039 A 
ATOM     17  C   UNL     1       2.128  -6.408  -4.829  0.00  0.00    +0.123 A 
ATOM     18  C   UNL     1       1.280  -6.174  -5.900  0.00  0.00    +0.039 A 
ATOM     19  C   UNL     1       0.412  -5.103  -5.874  0.00  0.00    +0.011 A 
ATOM     20  F   UNL     1       2.973  -7.462  -4.859  0.00  0.00    -0.205 F 
ENDBRANCH   8  14
ENDBRANCH   3   7
BRANCH   1  22
ATOM     21  C   UNL     1      -0.019   1.526   0.010  0.00  0.00    +0.009 C 
ATOM     22  C   UNL     1       0.002  -0.004   0.002  0.00  0.00    +0.035 C 
ENDBRANCH   1  22
BRANCH   4  23
ATOM     23  O   UNL     1       2.636  -1.823  -4.637  0.00  0.00    -0.506 OA
ATOM     24  H   UNL     1       2.889  -1.117  -5.248  0.00  0.00    +0.292 HD
ENDBRANCH   4  23
BRANCH   6  25
ATOM     25  O   UNL     1       2.809  -0.276  -0.143  0.00  0.00    -0.487 OA
BRANCH  25  26
ATOM     26  C   UNL     1       4.228  -0.417  -0.226  0.00  0.00    +0.267 C 
BRANCH  26  27
ATOM     27  C   UNL     1       4.851  -0.011   1.085  0.00  0.00    +0.027 A 
ATOM     28  C   UNL     1       5.270   1.277   1.433  0.00  0.00    +0.141 A 
ATOM     29  N   UNL     1       5.757   1.236   2.647  0.00  0.00    -0.174 NA
ATOM     30  N   UNL     1       5.664  -0.082   3.112  0.00  0.00    -0.239 N 
ATOM     31  C   UNL     1       5.098  -0.828   2.135  0.00  0.00    +0.121 A 
BRANCH  30  32
ATOM     32  C   UNL     1       6.078  -0.545   4.368  0.00  0.00    +0.065 A 
ATOM     33  C   UNL     1       5.932  -1.886   4.698  0.00  0.00    +0.028 A 
ATOM     34  C   UNL     1       6.342  -2.340   5.937  0.00  0.00    +0.002 A 
ATOM     35  C   UNL     1       6.897  -1.460   6.848  0.00  0.00    +0.000 A 
ATOM     36  C   UNL     1       7.044  -0.124   6.522  0.00  0.00    +0.002 A 
ATOM     37  C   UNL     1       6.641   0.334   5.283  0.00  0.00    +0.028 A 
ENDBRANCH  30  32
ENDBRANCH  26  27
ENDBRANCH  25  26
ENDBRANCH   6  25
TORSDOF 8
