REMARK  Name = ZINC36205915
REMARK  16 active torsions:
REMARK  status: ('A' for Active; 'I' for Inactive)
REMARK    1  A    between atoms: C_1  and  O_2
REMARK    2  A    between atoms: O_2  and  C_3
REMARK    3  A    between atoms: C_3  and  C_4
REMARK    4  A    between atoms: C_4  and  N_5
REMARK    5  A    between atoms: N_5  and  C_6
REMARK    6  A    between atoms: N_5  and  C_28
REMARK    7  A    between atoms: C_6  and  C_7
REMARK    8  A    between atoms: C_13  and  C_18
REMARK    9  A    between atoms: C_21  and  O_26
REMARK   10  A    between atoms: C_22  and  O_24
REMARK   11  A    between atoms: O_24  and  C_25
REMARK   12  A    between atoms: O_26  and  C_27
REMARK   13  A    between atoms: C_28  and  C_29
REMARK   14  A    between atoms: C_29  and  C_31
REMARK   15  A    between atoms: C_29  and  O_38
REMARK   16  A    between atoms: C_31  and  C_32
REMARK                            x       y       z     vdW  Elec       q    Type
REMARK                         _______ _______ _______ _____ _____    ______ ____
ROOT
ATOM      1  C   UNL     1      -1.075  -0.670  -3.059  0.00  0.00    +0.094 A 
ATOM      2  N   UNL     1      -1.497  -0.211  -4.265  0.00  0.00    -0.312 N 
ATOM      3  H   UNL     1      -1.853  -0.837  -4.915  0.00  0.00    +0.170 HD
ATOM      4  C   UNL     1      -1.430   1.097  -4.578  0.00  0.00    +0.260 A 
ATOM      5  O   UNL     1      -1.813   1.494  -5.665  0.00  0.00    -0.267 OA
ATOM      6  C   UNL     1      -0.902   2.014  -3.614  0.00  0.00    +0.080 A 
ATOM      7  C   UNL     1      -0.729   3.458  -3.713  0.00  0.00    +0.004 A 
ATOM      8  C   UNL     1      -0.202   4.125  -2.658  0.00  0.00    +0.056 A 
ATOM      9  S   UNL     1       0.094   2.838  -1.462  0.00  0.00    -0.076 S 
ATOM     10  C   UNL     1      -0.491   1.448  -2.396  0.00  0.00    +0.116 A 
ATOM     11  N   UNL     1      -0.594   0.143  -2.158  0.00  0.00    -0.229 NA
ENDROOT
BRANCH   7  12
ATOM     12  C   UNL     1      -1.121   4.183  -4.946  0.00  0.00    -0.013 A 
ATOM     13  C   UNL     1      -0.691   3.728  -6.191  0.00  0.00    +0.012 A 
ATOM     14  C   UNL     1      -1.057   4.403  -7.337  0.00  0.00    +0.050 A 
ATOM     15  C   UNL     1      -1.853   5.535  -7.254  0.00  0.00    +0.162 A 
ATOM     16  C   UNL     1      -2.286   5.995  -6.013  0.00  0.00    +0.162 A 
ATOM     17  C   UNL     1      -1.926   5.319  -4.861  0.00  0.00    +0.058 A 
BRANCH  16  18
ATOM     18  O   UNL     1      -3.066   7.106  -5.934  0.00  0.00    -0.491 OA
ATOM     19  C   UNL     1      -3.474   7.521  -4.629  0.00  0.00    +0.277 C 
ENDBRANCH  16  18
BRANCH  15  20
ATOM     20  O   UNL     1      -2.211   6.199  -8.386  0.00  0.00    -0.491 OA
ATOM     21  C   UNL     1      -1.731   5.672  -9.625  0.00  0.00    +0.277 C 
ENDBRANCH  15  20
ENDBRANCH   7  12
BRANCH   1  22
ATOM     22  C   UNL     1      -1.170  -2.143  -2.754  0.00  0.00    -0.003 C 
BRANCH  22  23
ATOM     23  N   UNL     1      -0.800  -2.377  -1.351  0.00  0.00    +0.388 N 
ATOM     24  H   UNL     1       0.101  -1.960  -1.167  0.00  0.00    -0.081 HD
BRANCH  23  25
ATOM     25  C   UNL     1      -0.731  -3.822  -1.097  0.00  0.00    -0.050 C 
BRANCH  25  26
ATOM     26  C   UNL     1       0.415  -4.429  -1.908  0.00  0.00    +0.141 C 
BRANCH  26  28
ATOM     27  C   UNL     1       2.791  -4.319  -2.209  0.00  0.00    +0.193 C 
ATOM     28  O   UNL     1       1.659  -3.901  -1.443  0.00  0.00    -0.385 OA
ENDBRANCH  26  28
ENDBRANCH  25  26
ENDBRANCH  23  25
BRANCH  23  29
ATOM     29  C   UNL     1      -1.808  -1.772  -0.471  0.00  0.00    -0.046 C 
BRANCH  29  30
ATOM     30  C   UNL     1      -1.361  -1.906   0.985  0.00  0.00    +0.102 C 
BRANCH  30  31
ATOM     31  O   UNL     1      -0.172  -1.140   1.191  0.00  0.00    -0.393 OA
ATOM     32  H   UNL     1      -0.276  -0.196   1.010  0.00  0.00    +0.210 HD
ENDBRANCH  30  31
BRANCH  30  33
ATOM     33  C   UNL     1      -2.466  -1.390   1.908  0.00  0.00    +0.064 C 
BRANCH  33  34
ATOM     34  C   UNL     1      -2.078  -1.634   3.344  0.00  0.00    -0.045 A 
ATOM     35  C   UNL     1      -2.427  -2.820   3.962  0.00  0.00    +0.004 A 
ATOM     36  C   UNL     1      -2.071  -3.045   5.279  0.00  0.00    +0.000 A 
ATOM     37  C   UNL     1      -1.364  -2.083   5.977  0.00  0.00    +0.000 A 
ATOM     38  C   UNL     1      -1.014  -0.898   5.358  0.00  0.00    +0.000 A 
ATOM     39  C   UNL     1      -1.367  -0.675   4.040  0.00  0.00    +0.004 A 
ENDBRANCH  33  34
ENDBRANCH  30  33
ENDBRANCH  29  30
ENDBRANCH  23  29
ENDBRANCH  22  23
ENDBRANCH   1  22
TORSDOF 13
