REMARK  Name = ZINC39539845
REMARK  8 active torsions:
REMARK  status: ('A' for Active; 'I' for Inactive)
REMARK    1  A    between atoms: C_1  and  C_2
REMARK    2  A    between atoms: C_7  and  C_8
REMARK    3  A    between atoms: N_10  and  C_11
REMARK    4  A    between atoms: C_11  and  C_12
REMARK    5  A    between atoms: C_12  and  N_14
REMARK    6  A    between atoms: C_17  and  C_20
REMARK    7  A    between atoms: C_20  and  N_21
REMARK    8  A    between atoms: C_24  and  C_27
REMARK                            x       y       z     vdW  Elec       q    Type
REMARK                         _______ _______ _______ _____ _____    ______ ____
ROOT
ATOM      1  N   UNL     1       0.952  -0.772   7.178  0.00  0.00    -0.155 NA
ATOM      2  C   UNL     1       1.224  -1.571   8.211  0.00  0.00    +0.163 A 
ATOM      3  N   UNL     1       1.323  -1.246   9.528  0.00  0.00    -0.341 N 
ATOM      4  C   UNL     1       1.612  -2.225  10.426  0.00  0.00    +0.008 A 
ATOM      5  C   UNL     1       1.783  -3.463   9.950  0.00  0.00    +0.067 A 
ATOM      6  S   UNL     1       1.521  -3.227   8.203  0.00  0.00    -0.061 S 
ATOM      7  H   UNL     1       1.191  -0.331   9.821  0.00  0.00    +0.167 HD
ENDROOT
BRANCH   1   8
ATOM      8  C   UNL     1       0.889  -1.273   5.950  0.00  0.00    +0.256 C 
ATOM      9  O   UNL     1       1.081  -2.460   5.768  0.00  0.00    -0.272 OA
BRANCH   8  10
ATOM     10  C   UNL     1       0.582  -0.371   4.783  0.00  0.00    +0.202 C 
BRANCH  10  13
ATOM     11  C   UNL     1       0.315  -0.557   2.369  0.00  0.00    +0.245 C 
ATOM     12  O   UNL     1       0.095   0.638   2.330  0.00  0.00    -0.270 OA
ATOM     13  N   UNL     1       0.570  -1.158   3.548  0.00  0.00    -0.303 N 
ATOM     14  H   UNL     1       0.746  -2.111   3.578  0.00  0.00    +0.150 HD
BRANCH  11  21
ATOM     15  C   UNL     1      -0.148   0.763  -0.164  0.00  0.00    +0.044 C 
ATOM     16  C   UNL     1       0.082  -0.725  -0.106  0.00  0.00    -0.038 A 
ATOM     17  C   UNL     1       0.078  -1.471  -1.267  0.00  0.00    +0.004 A 
ATOM     18  C   UNL     1       0.288  -2.837  -1.215  0.00  0.00    +0.000 A 
ATOM     19  C   UNL     1       0.503  -3.465  -0.001  0.00  0.00    +0.001 A 
ATOM     20  C   UNL     1       0.510  -2.731   1.167  0.00  0.00    +0.013 A 
ATOM     21  C   UNL     1       0.304  -1.351   1.121  0.00  0.00    +0.040 A 
ENDBRANCH  11  21
ENDBRANCH  10  13
ENDBRANCH   8  10
ENDBRANCH   1   8
BRANCH   4  22
ATOM     22  C   UNL     1       1.736  -1.927  11.899  0.00  0.00    -0.024 C 
BRANCH  22  23
ATOM     23  N   UNL     1       2.902  -1.063  12.127  0.00  0.00    +0.383 N 
ATOM     24  C   UNL     1       2.936  -0.652  13.536  0.00  0.00    -0.078 C 
ATOM     25  C   UNL     1       4.102   0.312  13.762  0.00  0.00    -0.016 C 
ATOM     26  C   UNL     1       5.415  -0.389  13.401  0.00  0.00    -0.018 C 
ATOM     27  C   UNL     1       5.339  -0.879  11.952  0.00  0.00    -0.016 C 
ATOM     28  C   UNL     1       4.127  -1.800  11.793  0.00  0.00    -0.078 C 
ATOM     29  C   UNL     1       6.577   0.594  13.549  0.00  0.00    +0.007 C 
ATOM     30  H   UNL     1       2.833  -0.244  11.542  0.00  0.00    -0.081 HD
ENDBRANCH  22  23
ENDBRANCH   4  22
TORSDOF 6
