REMARK  Name = ZINC43218941
REMARK  9 active torsions:
REMARK  status: ('A' for Active; 'I' for Inactive)
REMARK    1  A    between atoms: C_1  and  C_2
REMARK    2  A    between atoms: C_2  and  C_3
REMARK    3  A    between atoms: C_2  and  C_4
REMARK    4  A    between atoms: C_2  and  N_5
REMARK    5  A    between atoms: C_10  and  C_27
REMARK    6  A    between atoms: C_13  and  C_18
REMARK    7  A    between atoms: C_13  and  C_24
REMARK    8  A    between atoms: C_30  and  O_37
REMARK    9  A    between atoms: O_37  and  C_38
REMARK                            x       y       z     vdW  Elec       q    Type
REMARK                         _______ _______ _______ _____ _____    ______ ____
ROOT
ATOM      1  N   UNL     1       1.051  -0.347  -1.052  0.00  0.00    -0.236 N 
ATOM      2  C   UNL     1       0.327  -1.129  -1.917  0.00  0.00    +0.225 C 
ATOM      3  O   UNL     1      -0.869  -1.331  -1.907  0.00  0.00    -0.275 OA
ATOM      4  C   UNL     1       1.301  -1.658  -2.839  0.00  0.00    +0.077 C 
ATOM      5  C   UNL     1       1.389  -2.245  -4.187  0.00  0.00    -0.026 C 
ATOM      6  N   UNL     1       2.874  -2.268  -4.424  0.00  0.00    +0.398 N 
ATOM      7  C   UNL     1       3.494  -1.237  -3.539  0.00  0.00    +0.074 C 
ATOM      8  C   UNL     1       2.309  -0.447  -2.963  0.00  0.00    +0.090 C 
ATOM      9  C   UNL     1       2.316  -0.095  -1.502  0.00  0.00    +0.226 C 
ATOM     10  O   UNL     1       3.253   0.324  -0.856  0.00  0.00    -0.275 OA
ATOM     11  H   UNL     1       3.242  -3.180  -4.196  0.00  0.00    -0.083 HD
ATOM     12  H   UNL     1       3.069  -2.052  -5.389  0.00  0.00    -0.083 HD
ENDROOT
BRANCH   5  13
ATOM     13  C   UNL     1       0.819  -3.639  -4.205  0.00  0.00    -0.053 A 
ATOM     14  C   UNL     1       0.595  -4.301  -3.036  0.00  0.00    +0.006 A 
ATOM     15  C   UNL     1       0.069  -5.589  -3.029  0.00  0.00    +0.046 A 
ATOM     16  C   UNL     1      -0.239  -6.229  -4.197  0.00  0.00    +0.128 A 
ATOM     17  C   UNL     1      -0.020  -5.574  -5.426  0.00  0.00    +0.024 A 
ATOM     18  C   UNL     1       0.511  -4.260  -5.427  0.00  0.00    -0.013 A 
ATOM     19  C   UNL     1       0.724  -3.604  -6.652  0.00  0.00    +0.009 A 
ATOM     20  C   UNL     1       0.415  -4.237  -7.817  0.00  0.00    +0.001 A 
ATOM     21  C   UNL     1      -0.113  -5.526  -7.815  0.00  0.00    +0.001 A 
ATOM     22  C   UNL     1      -0.322  -6.196  -6.648  0.00  0.00    +0.012 A 
BRANCH  16  23
ATOM     23  O   UNL     1      -0.751  -7.486  -4.175  0.00  0.00    -0.495 OA
ATOM     24  C   UNL     1      -0.943  -8.085  -2.891  0.00  0.00    +0.277 C 
ENDBRANCH  16  23
ENDBRANCH   5  13
BRANCH   7  25
ATOM     25  C   UNL     1       4.291  -1.899  -2.445  0.00  0.00    -0.047 A 
ATOM     26  C   UNL     1       5.292  -1.199  -1.798  0.00  0.00    +0.003 A 
ATOM     27  C   UNL     1       6.023  -1.806  -0.794  0.00  0.00    +0.000 A 
ATOM     28  C   UNL     1       5.754  -3.114  -0.438  0.00  0.00    +0.000 A 
ATOM     29  C   UNL     1       4.753  -3.815  -1.085  0.00  0.00    +0.000 A 
ATOM     30  C   UNL     1       4.019  -3.206  -2.085  0.00  0.00    +0.003 A 
ENDBRANCH   7  25
BRANCH   1  32
ATOM     31  C   UNL     1       0.555   1.698   0.196  0.00  0.00    +0.031 C 
ATOM     32  C   UNL     1       0.522   0.168   0.214  0.00  0.00    +0.036 C 
ATOM     33  C   UNL     1       1.380  -0.346   1.372  0.00  0.00    +0.031 C 
ATOM     34  C   UNL     1      -0.920  -0.309   0.396  0.00  0.00    +0.031 C 
ENDBRANCH   1  32
BRANCH   7  35
ATOM     35  C   UNL     1       4.375  -0.319  -4.346  0.00  0.00    +0.350 C 
ATOM     36  O   UNL     1       4.514  -0.503  -5.543  0.00  0.00    -0.248 OA
ATOM     37  O   UNL     1       4.950   0.608  -3.801  0.00  0.00    -0.248 OA
ENDBRANCH   7  35
TORSDOF 5
