REMARK  Name = ZINC39677860
REMARK  9 active torsions:
REMARK  status: ('A' for Active; 'I' for Inactive)
REMARK    1  A    between atoms: C_1  and  C_2
REMARK    2  A    between atoms: C_2  and  C_4
REMARK    3  A    between atoms: C_2  and  O_35
REMARK    4  A    between atoms: C_8  and  C_17
REMARK    5  A    between atoms: N_19  and  C_20
REMARK    6  A    between atoms: C_20  and  C_21
REMARK    7  A    between atoms: N_24  and  C_28
REMARK    8  A    between atoms: C_28  and  C_29
REMARK    9  A    between atoms: O_35  and  C_36
REMARK                            x       y       z     vdW  Elec       q    Type
REMARK                         _______ _______ _______ _____ _____    ______ ____
ROOT
ATOM      1  C   UNL     1       0.494  -0.470   1.122  0.00  0.00    +0.256 C 
ATOM      2  O   UNL     1      -0.219  -0.911   1.998  0.00  0.00    -0.272 OA
ATOM      3  N   UNL     1       1.832  -0.463   1.282  0.00  0.00    -0.297 N 
ATOM      4  C   UNL     1       2.861  -0.040   0.303  0.00  0.00    +0.121 C 
ATOM      5  C   UNL     1       3.918   0.708   1.145  0.00  0.00    +0.100 C 
ATOM      6  C   UNL     1       3.747   0.155   2.570  0.00  0.00    -0.004 C 
ATOM      7  C   UNL     1       2.607  -0.869   2.479  0.00  0.00    +0.115 C 
ATOM      8  C   UNL     1       5.033  -0.524   3.031  0.00  0.00    -0.010 C 
ATOM      9  C   UNL     1       4.858  -1.015   4.471  0.00  0.00    -0.082 C 
ATOM     10  N   UNL     1       4.543   0.123   5.343  0.00  0.00    +0.379 N 
ATOM     11  C   UNL     1       3.258   0.714   4.950  0.00  0.00    -0.082 C 
ATOM     12  C   UNL     1       3.365   1.278   3.530  0.00  0.00    -0.010 C 
ATOM     13  H   UNL     1       4.489  -0.193   6.299  0.00  0.00    -0.086 HD
ATOM     14  H   UNL     1       5.270   0.818   5.262  0.00  0.00    -0.086 HD
ENDROOT
BRANCH   5  15
ATOM     15  C   UNL     1       5.303   0.417   0.629  0.00  0.00    +0.218 C 
ATOM     16  O   UNL     1       5.545  -0.653   0.111  0.00  0.00    -0.275 OA
ATOM     17  N   UNL     1       6.274   1.345   0.743  0.00  0.00    -0.313 N 
ATOM     18  H   UNL     1       6.081   2.201   1.157  0.00  0.00    +0.149 HD
BRANCH  17  19
ATOM     19  C   UNL     1       7.621   1.062   0.241  0.00  0.00    +0.137 C 
BRANCH  19  20
ATOM     20  C   UNL     1       8.524   2.271   0.492  0.00  0.00    +0.149 C 
ATOM     21  C   UNL     1       9.896   2.025  -0.140  0.00  0.00    +0.118 C 
ATOM     22  N   UNL     1      10.783   3.156   0.171  0.00  0.00    -0.293 NA
ATOM     23  C   UNL     1      10.921   3.326   1.624  0.00  0.00    +0.113 C 
ATOM     24  C   UNL     1       9.538   3.559   2.239  0.00  0.00    +0.175 C 
ATOM     25  O   UNL     1       8.680   2.466   1.901  0.00  0.00    -0.372 OA
BRANCH  22  26
ATOM     26  C   UNL     1      12.095   2.986  -0.467  0.00  0.00    +0.119 C 
BRANCH  26  27
ATOM     27  C   UNL     1      12.887   4.261  -0.335  0.00  0.00    -0.033 A 
ATOM     28  C   UNL     1      12.792   5.237  -1.310  0.00  0.00    +0.005 A 
ATOM     29  C   UNL     1      13.518   6.407  -1.190  0.00  0.00    +0.000 A 
ATOM     30  C   UNL     1      14.338   6.602  -0.094  0.00  0.00    +0.000 A 
ATOM     31  C   UNL     1      14.432   5.627   0.881  0.00  0.00    +0.000 A 
ATOM     32  C   UNL     1      13.703   4.459   0.763  0.00  0.00    +0.005 A 
ENDBRANCH  26  27
ENDBRANCH  22  26
ENDBRANCH  19  20
ENDBRANCH  17  19
ENDBRANCH   5  15
BRANCH   1  34
ATOM     33  C   UNL     1       0.093   1.585  -0.207  0.00  0.00    +0.062 C 
ATOM     34  C   UNL     1      -0.117   0.071  -0.145  0.00  0.00    +0.256 C 
BRANCH  34  35
ATOM     35  O   UNL     1      -1.516  -0.217  -0.161  0.00  0.00    -0.480 OA
BRANCH  35  36
ATOM     36  C   UNL     1      -2.118  -0.291  -1.377  0.00  0.00    +0.122 A 
ATOM     37  C   UNL     1      -1.401   0.009  -2.526  0.00  0.00    +0.045 A 
ATOM     38  C   UNL     1      -2.015  -0.067  -3.761  0.00  0.00    +0.004 A 
ATOM     39  C   UNL     1      -3.343  -0.440  -3.853  0.00  0.00    +0.000 A 
ATOM     40  C   UNL     1      -4.060  -0.739  -2.709  0.00  0.00    +0.004 A 
ATOM     41  C   UNL     1      -3.449  -0.671  -1.472  0.00  0.00    +0.045 A 
ENDBRANCH  35  36
ENDBRANCH  34  35
ENDBRANCH   1  34
TORSDOF 8
