REMARK  Name = ZINC67549878
REMARK  5 active torsions:
REMARK  status: ('A' for Active; 'I' for Inactive)
REMARK    1  A    between atoms: C_4  and  C_7
REMARK    2  A    between atoms: C_7  and  N_8
REMARK    3  A    between atoms: C_12  and  C_14
REMARK    4  A    between atoms: C_14  and  N_15
REMARK    5  A    between atoms: C_22  and  C_24
REMARK                            x       y       z     vdW  Elec       q    Type
REMARK                         _______ _______ _______ _____ _____    ______ ____
ROOT
ATOM      1  C   UNL     1       4.354  -1.156  -4.401  0.00  0.00    +0.090 C 
ENDROOT
BRANCH   1   2
ATOM      2  N   UNL     1       5.032  -0.133  -3.601  0.00  0.00    -0.301 N 
ATOM      3  C   UNL     1       5.532   0.968  -4.198  0.00  0.00    +0.305 C 
ATOM      4  O   UNL     1       5.420   1.111  -5.400  0.00  0.00    -0.252 OA
ATOM      5  N   UNL     1       6.155   1.909  -3.462  0.00  0.00    -0.247 N 
ATOM      6  C   UNL     1       6.671   3.044  -4.077  0.00  0.00    +0.189 A 
ATOM      7  N   UNL     1       6.647   3.383  -5.351  0.00  0.00    -0.125 NA
ATOM      8  N   UNL     1       7.162   4.460  -5.766  0.00  0.00    -0.139 NA
ATOM      9  C   UNL     1       7.742   5.268  -4.901  0.00  0.00    +0.169 A 
ATOM     10  S   UNL     1       7.484   4.350  -3.389  0.00  0.00    -0.030 S 
ATOM     11  H   UNL     1       5.121  -0.248  -2.642  0.00  0.00    +0.150 HD
ATOM     12  H   UNL     1       6.245   1.794  -2.503  0.00  0.00    +0.158 HD
BRANCH   9  13
ATOM     13  C   UNL     1       8.425   6.593  -5.123  0.00  0.00    +0.398 C 
ATOM     14  F   UNL     1       7.840   7.241  -6.216  0.00  0.00    -0.202 F 
ATOM     15  F   UNL     1       8.285   7.387  -3.981  0.00  0.00    -0.202 F 
ENDBRANCH   9  13
ENDBRANCH   1   2
BRANCH   1  20
ATOM     16  N   UNL     1       2.843  -1.907  -2.612  0.00  0.00    +0.383 N 
ATOM     17  C   UNL     1       1.664  -2.751  -2.901  0.00  0.00    -0.078 C 
ATOM     18  C   UNL     1       2.247  -4.048  -3.515  0.00  0.00    -0.020 C 
ATOM     19  C   UNL     1       3.425  -3.494  -4.358  0.00  0.00    -0.016 C 
ATOM     20  C   UNL     1       3.946  -2.322  -3.499  0.00  0.00    -0.051 C 
ATOM     21  H   UNL     1       3.118  -2.029  -1.649  0.00  0.00    -0.081 HD
BRANCH  16  22
ATOM     22  C   UNL     1       2.514  -0.497  -2.858  0.00  0.00    -0.075 C 
BRANCH  22  26
ATOM     23  C   UNL     1      -0.977   1.347  -1.087  0.00  0.00    +0.000 C 
ATOM     24  C   UNL     1       0.387   1.990  -0.830  0.00  0.00    +0.000 C 
ATOM     25  C   UNL     1       1.385   1.508  -1.885  0.00  0.00    +0.002 C 
ATOM     26  C   UNL     1       1.516  -0.014  -1.804  0.00  0.00    -0.028 C 
ATOM     27  C   UNL     1       0.152  -0.658  -2.060  0.00  0.00    +0.002 C 
ATOM     28  C   UNL     1      -0.846  -0.176  -1.006  0.00  0.00    +0.000 C 
ENDBRANCH  22  26
ENDBRANCH  16  22
ENDBRANCH   1  20
TORSDOF 5
