REMARK  Name = ZINC64450907
REMARK  12 active torsions:
REMARK  status: ('A' for Active; 'I' for Inactive)
REMARK    1  A    between atoms: C_1  and  C_2
REMARK    2  A    between atoms: C_2  and  C_3
REMARK    3  A    between atoms: C_6  and  C_9
REMARK    4  A    between atoms: C_10  and  N_30
REMARK    5  A    between atoms: N_25  and  C_26
REMARK    6  A    between atoms: C_26  and  C_27
REMARK    7  A    between atoms: C_26  and  C_28
REMARK    8  A    between atoms: C_26  and  C_29
REMARK    9  A    between atoms: N_30  and  C_31
REMARK   10  A    between atoms: C_31  and  C_32
REMARK   11  A    between atoms: C_31  and  C_33
REMARK   12  A    between atoms: C_31  and  C_34
REMARK                            x       y       z     vdW  Elec       q    Type
REMARK                         _______ _______ _______ _____ _____    ______ ____
ROOT
ATOM      1  C   UNL     1       2.708  -2.247   4.770  0.00  0.00    +0.114 A 
ATOM      2  C   UNL     1       2.393  -1.770   6.008  0.00  0.00    +0.150 A 
ATOM      3  N   UNL     1       3.273  -2.342   6.914  0.00  0.00    -0.190 N 
ATOM      4  C   UNL     1       4.090  -3.151   6.164  0.00  0.00    +0.199 A 
ATOM      5  N   UNL     1       3.757  -3.100   4.909  0.00  0.00    -0.218 NA
ATOM      6  S   UNL     1       5.177  -3.840   7.390  0.00  0.00    -0.013 S 
ATOM      7  C   UNL     1       4.483  -3.015   8.814  0.00  0.00    +0.184 A 
ATOM      8  N   UNL     1       3.522  -2.310   8.283  0.00  0.00    -0.140 NA
ATOM      9  N   UNL     1       4.866  -3.103  10.143  0.00  0.00    -0.305 N 
ATOM     10  C   UNL     1       4.154  -2.340  11.178  0.00  0.00    +0.126 C 
ATOM     11  C   UNL     1       3.668  -3.315  12.258  0.00  0.00    +0.128 C 
ATOM     12  N   UNL     1       4.793  -4.173  12.657  0.00  0.00    -0.283 N 
ATOM     13  C   UNL     1       5.505  -4.935  11.622  0.00  0.00    +0.128 C 
ATOM     14  C   UNL     1       5.987  -3.965  10.543  0.00  0.00    +0.126 C 
ATOM     15  C   UNL     1       5.165  -4.258  13.949  0.00  0.00    +0.303 C 
ATOM     16  O   UNL     1       4.506  -3.707  14.810  0.00  0.00    -0.253 OA
ATOM     17  N   UNL     1       6.269  -4.954  14.288  0.00  0.00    -0.294 N 
ATOM     18  H   UNL     1       6.837  -5.328  13.597  0.00  0.00    +0.151 HD
ENDROOT
BRANCH   1  22
ATOM     19  C   UNL     1       0.749  -1.259   1.131  0.00  0.00    -0.048 A 
ATOM     20  C   UNL     1       2.113  -1.492   1.138  0.00  0.00    +0.004 A 
ATOM     21  C   UNL     1       2.755  -1.813   2.316  0.00  0.00    +0.010 A 
ATOM     22  C   UNL     1       2.026  -1.902   3.502  0.00  0.00    +0.004 A 
ATOM     23  C   UNL     1       0.651  -1.666   3.489  0.00  0.00    +0.010 A 
ATOM     24  C   UNL     1       0.022  -1.340   2.305  0.00  0.00    +0.004 A 
BRANCH  19  26
ATOM     25  C   UNL     1       0.064   0.611  -0.348  0.00  0.00    +0.009 C 
ATOM     26  C   UNL     1       0.055  -0.908  -0.160  0.00  0.00    +0.032 C 
ENDBRANCH  19  26
ENDBRANCH   1  22
BRANCH  17  27
ATOM     27  C   UNL     1       6.610  -5.144  15.700  0.00  0.00    +0.028 C 
ATOM     28  C   UNL     1       5.473  -5.889  16.403  0.00  0.00    +0.031 C 
ATOM     29  C   UNL     1       7.898  -5.962  15.808  0.00  0.00    +0.031 C 
ATOM     30  C   UNL     1       6.814  -3.781  16.364  0.00  0.00    +0.031 C 
ENDBRANCH  17  27
BRANCH   2  31
ATOM     31  N   UNL     1       1.370  -0.867   6.308  0.00  0.00    -0.323 N 
ATOM     32  H   UNL     1       0.822  -0.500   5.596  0.00  0.00    +0.148 HD
BRANCH  31  33
ATOM     33  C   UNL     1       1.123  -0.475   7.698  0.00  0.00    +0.025 C 
ATOM     34  C   UNL     1       2.375   0.194   8.269  0.00  0.00    +0.031 C 
ATOM     35  C   UNL     1      -0.049   0.507   7.751  0.00  0.00    +0.031 C 
ATOM     36  C   UNL     1       0.786  -1.717   8.526  0.00  0.00    +0.031 C 
ENDBRANCH  31  33
ENDBRANCH   2  31
TORSDOF 5
