REMARK  Name = ZINC20732406
REMARK  5 active torsions:
REMARK  status: ('A' for Active; 'I' for Inactive)
REMARK    1  A    between atoms: C_1  and  O_2
REMARK    2  A    between atoms: O_2  and  C_3
REMARK    3  A    between atoms: C_3  and  C_5
REMARK    4  A    between atoms: C_5  and  N_6
REMARK    5  A    between atoms: C_18  and  C_20
REMARK                            x       y       z     vdW  Elec       q    Type
REMARK                         _______ _______ _______ _____ _____    ______ ____
ROOT
ATOM      1  N   UNL     1      -1.908  -4.937   0.030  0.00  0.00    -0.289 N 
ATOM      2  C   UNL     1      -2.848  -3.971   0.012  0.00  0.00    +0.303 C 
ATOM      3  O   UNL     1      -2.521  -2.803   0.093  0.00  0.00    -0.253 OA
ATOM      4  N   UNL     1      -4.151  -4.301  -0.096  0.00  0.00    -0.273 N 
ATOM      5  C   UNL     1      -5.182  -3.261  -0.229  0.00  0.00    +0.116 C 
ATOM      6  C   UNL     1      -6.098  -3.302   1.000  0.00  0.00    +0.074 C 
ATOM      7  C   UNL     1      -6.453  -4.736   1.293  0.00  0.00    +0.040 A 
ATOM      8  C   UNL     1      -5.782  -5.809   0.822  0.00  0.00    +0.062 A 
ATOM      9  N   UNL     1      -6.375  -6.909   1.290  0.00  0.00    -0.348 N 
ATOM     10  C   UNL     1      -7.394  -6.563   2.033  0.00  0.00    +0.171 A 
ATOM     11  N   UNL     1      -7.475  -5.212   2.058  0.00  0.00    -0.349 N 
ATOM     12  H   UNL     1      -8.136  -4.683   2.532  0.00  0.00    +0.166 HD
ATOM     13  C   UNL     1      -4.576  -5.712  -0.089  0.00  0.00    +0.159 C 
ATOM     14  H   UNL     1      -2.172  -5.871   0.039  0.00  0.00    +0.151 HD
ATOM     15  H   UNL     1      -6.096  -7.820   1.107  0.00  0.00    +0.167 HD
ENDROOT
BRANCH  13  16
ATOM     16  C   UNL     1      -4.946  -6.144  -1.484  0.00  0.00    +0.014 A 
ATOM     17  C   UNL     1      -6.276  -6.260  -1.842  0.00  0.00    +0.011 A 
ATOM     18  C   UNL     1      -6.616  -6.655  -3.122  0.00  0.00    +0.039 A 
ATOM     19  C   UNL     1      -5.625  -6.935  -4.047  0.00  0.00    +0.126 A 
ATOM     20  C   UNL     1      -4.293  -6.819  -3.691  0.00  0.00    +0.077 A 
ATOM     21  C   UNL     1      -3.953  -6.417  -2.410  0.00  0.00    +0.131 A 
ATOM     22  F   UNL     1      -2.653  -6.298  -2.062  0.00  0.00    -0.205 F 
ATOM     23  F   UNL     1      -5.959  -7.322  -5.298  0.00  0.00    -0.205 F 
ENDBRANCH  13  16
BRANCH   1  24
ATOM     24  C   UNL     1      -0.488  -4.577   0.035  0.00  0.00    +0.226 C 
BRANCH  24  25
ATOM     25  C   UNL     1       0.348  -5.831   0.056  0.00  0.00    +0.324 C 
ATOM     26  O   UNL     1      -0.188  -6.914   0.065  0.00  0.00    -0.249 OA
BRANCH  25  28
ATOM     27  C   UNL     1       2.417  -6.973   0.084  0.00  0.00    +0.280 C 
ATOM     28  O   UNL     1       1.687  -5.744   0.064  0.00  0.00    -0.467 OA
ENDBRANCH  25  28
ENDBRANCH  24  25
ENDBRANCH   1  24
TORSDOF 4
