REMARK  Name = ZINC16032405
REMARK  16 active torsions:
REMARK  status: ('A' for Active; 'I' for Inactive)
REMARK    1  A    between atoms: C_1  and  C_2
REMARK    2  A    between atoms: C_2  and  C_3
REMARK    3  A    between atoms: C_3  and  C_4
REMARK    4  A    between atoms: C_4  and  C_5
REMARK    5  A    between atoms: C_5  and  C_6
REMARK    6  A    between atoms: C_6  and  N_7
REMARK    7  A    between atoms: C_8  and  C_10
REMARK    8  A    between atoms: C_10  and  N_75
REMARK    9  A    between atoms: C_13  and  O_34
REMARK   10  A    between atoms: C_20  and  C_22
REMARK   11  A    between atoms: C_24  and  O_32
REMARK   12  A    between atoms: C_25  and  O_30
REMARK   13  A    between atoms: C_26  and  O_28
REMARK   14  A    between atoms: O_28  and  C_29
REMARK   15  A    between atoms: O_30  and  C_31
REMARK   16  A    between atoms: O_32  and  C_33
REMARK                            x       y       z     vdW  Elec       q    Type
REMARK                         _______ _______ _______ _____ _____    ______ ____
ROOT
ATOM      1  C   UNL     1      -3.774   2.042   0.323  0.00  0.00    -0.075 C 
ATOM      2  C   UNL     1      -4.309   2.131  -1.109  0.00  0.00    +0.016 C 
ATOM      3  C   UNL     1      -3.283   2.857  -1.982  0.00  0.00    +0.066 C 
ATOM      4  C   UNL     1      -3.821   3.006  -3.406  0.00  0.00    +0.035 C 
ATOM      5  C   UNL     1      -2.781   3.730  -4.265  0.00  0.00    +0.003 C 
ATOM      6  C   UNL     1      -2.500   5.113  -3.675  0.00  0.00    +0.000 C 
ATOM      7  C   UNL     1      -1.974   4.966  -2.245  0.00  0.00    +0.005 C 
ATOM      8  C   UNL     1      -3.020   4.247  -1.394  0.00  0.00    +0.011 C 
ATOM      9  C   UNL     1      -2.515   4.097   0.042  0.00  0.00    -0.031 C 
ATOM     10  N   UNL     1      -3.552   3.409   0.842  0.00  0.00    +0.390 N 
ATOM     11  H   UNL     1      -4.429   3.937   0.774  0.00  0.00    -0.080 HD
ENDROOT
BRANCH   9  12
ATOM     12  C   UNL     1      -1.231   3.307   0.043  0.00  0.00    -0.053 A 
ATOM     13  C   UNL     1      -0.140   3.764  -0.671  0.00  0.00    +0.051 A 
ATOM     14  C   UNL     1       1.041   3.037  -0.676  0.00  0.00    +0.165 A 
ATOM     15  C   UNL     1       1.130   1.853   0.046  0.00  0.00    +0.204 A 
ATOM     16  C   UNL     1       0.031   1.399   0.766  0.00  0.00    +0.165 A 
ATOM     17  C   UNL     1      -1.148   2.129   0.762  0.00  0.00    +0.051 A 
BRANCH  16  18
ATOM     18  O   UNL     1       0.113   0.241   1.475  0.00  0.00    -0.491 OA
ATOM     19  C   UNL     1      -1.055  -0.164   2.192  0.00  0.00    +0.277 C 
ENDBRANCH  16  18
BRANCH  15  20
ATOM     20  O   UNL     1       2.288   1.139   0.047  0.00  0.00    -0.488 OA
ATOM     21  C   UNL     1       3.241   1.450   1.066  0.00  0.00    +0.277 C 
ENDBRANCH  15  20
BRANCH  14  22
ATOM     22  O   UNL     1       2.114   3.486  -1.383  0.00  0.00    -0.491 OA
ATOM     23  C   UNL     1       1.951   4.710  -2.101  0.00  0.00    +0.277 C 
ENDBRANCH  14  22
ENDBRANCH   9  12
BRANCH   3  24
ATOM     24  O   UNL     1      -2.065   2.111  -2.008  0.00  0.00    -0.388 OA
ATOM     25  H   UNL     1      -2.159   1.217  -2.363  0.00  0.00    +0.210 HD
ENDBRANCH   3  24
BRANCH  10  26
ATOM     26  C   UNL     1      -3.137   3.348   2.259  0.00  0.00    +0.019 C 
BRANCH  26  28
ATOM     27  N   UNL     1      -2.750   4.961   4.093  0.00  0.00    -0.317 N 
ATOM     28  C   UNL     1      -3.175   4.740   2.834  0.00  0.00    +0.196 C 
ATOM     29  O   UNL     1      -3.588   5.663   2.163  0.00  0.00    -0.278 OA
ATOM     30  H   UNL     1      -2.420   4.224   4.630  0.00  0.00    +0.149 HD
BRANCH  27  31
ATOM     31  C   UNL     1      -2.786   6.315   4.652  0.00  0.00    +0.104 C 
BRANCH  31  32
ATOM     32  C   UNL     1      -2.253   6.289   6.086  0.00  0.00    +0.019 C 
BRANCH  32  33
ATOM     33  C   UNL     1      -2.291   7.703   6.670  0.00  0.00    +0.002 C 
BRANCH  33  34
ATOM     34  C   UNL     1      -1.758   7.677   8.104  0.00  0.00    -0.000 C 
BRANCH  34  36
ATOM     35  C   UNL     1      -1.263   9.066  10.121  0.00  0.00    +0.004 C 
ATOM     36  C   UNL     1      -1.796   9.091   8.687  0.00  0.00    -0.003 C 
ENDBRANCH  34  36
ENDBRANCH  33  34
ENDBRANCH  32  33
ENDBRANCH  31  32
ENDBRANCH  27  31
ENDBRANCH  26  28
ENDBRANCH  10  26
TORSDOF 12
