REMARK  Name = ZINC64774283
REMARK  9 active torsions:
REMARK  status: ('A' for Active; 'I' for Inactive)
REMARK    1  A    between atoms: C_1  and  C_2
REMARK    2  A    between atoms: C_2  and  C_3
REMARK    3  A    between atoms: C_3  and  O_4
REMARK    4  A    between atoms: O_4  and  C_5
REMARK    5  A    between atoms: C_8  and  C_11
REMARK    6  A    between atoms: C_19  and  S_25
REMARK    7  A    between atoms: S_25  and  C_26
REMARK    8  A    between atoms: C_26  and  C_27
REMARK    9  A    between atoms: C_27  and  C_28
REMARK                            x       y       z     vdW  Elec       q    Type
REMARK                         _______ _______ _______ _____ _____    ______ ____
ROOT
ATOM      1  C   UNL     1       3.346  -4.486   5.542  0.00  0.00    +0.047 C 
ATOM      2  C   UNL     1       4.415  -5.444   5.009  0.00  0.00    +0.105 C 
ATOM      3  C   UNL     1       3.786  -6.651   4.377  0.00  0.00    +0.219 C 
ATOM      4  O   UNL     1       4.453  -7.306   3.605  0.00  0.00    -0.275 OA
ATOM      5  N   UNL     1       2.528  -7.045   4.619  0.00  0.00    -0.273 N 
ATOM      6  C   UNL     1       1.702  -6.306   5.417  0.00  0.00    +0.117 C 
ATOM      7  N   UNL     1       0.411  -6.465   5.367  0.00  0.00    -0.212 NA
ATOM      8  C   UNL     1      -0.432  -5.680   6.050  0.00  0.00    +0.182 C 
ATOM      9  N   UNL     1      -0.008  -4.663   6.787  0.00  0.00    -0.154 NA
ATOM     10  C   UNL     1       1.283  -4.412   6.950  0.00  0.00    +0.249 C 
ATOM     11  O   UNL     1       1.625  -3.445   7.602  0.00  0.00    -0.273 OA
ATOM     12  C   UNL     1       2.328  -5.298   6.348  0.00  0.00    +0.148 C 
ATOM     13  H   UNL     1       2.200  -7.867   4.221  0.00  0.00    +0.156 HD
ENDROOT
BRANCH   1  17
ATOM     14  C   UNL     1       1.385  -2.554   2.273  0.00  0.00    +0.121 A 
ATOM     15  C   UNL     1       1.861  -1.804   3.339  0.00  0.00    +0.046 A 
ATOM     16  C   UNL     1       2.494  -2.431   4.395  0.00  0.00    +0.007 A 
ATOM     17  C   UNL     1       2.654  -3.804   4.389  0.00  0.00    -0.042 A 
ATOM     18  C   UNL     1       2.182  -4.554   3.328  0.00  0.00    +0.007 A 
ATOM     19  C   UNL     1       1.543  -3.932   2.272  0.00  0.00    +0.046 A 
BRANCH  14  20
ATOM     20  O   UNL     1       0.761  -1.940   1.234  0.00  0.00    -0.492 OA
BRANCH  20  21
ATOM     21  C   UNL     1       0.635  -0.518   1.302  0.00  0.00    +0.229 C 
BRANCH  21  23
ATOM     22  C   UNL     1      -0.224   1.512   0.126  0.00  0.00    +0.007 C 
ATOM     23  C   UNL     1      -0.088  -0.010   0.053  0.00  0.00    +0.038 C 
ENDBRANCH  21  23
ENDBRANCH  20  21
ENDBRANCH  14  20
ENDBRANCH   1  17
BRANCH   8  24
ATOM     24  S   UNL     1      -2.161  -6.009   5.965  0.00  0.00    -0.089 S 
BRANCH  24  25
ATOM     25  C   UNL     1      -2.903  -4.730   7.016  0.00  0.00    +0.077 C 
BRANCH  25  26
ATOM     26  C   UNL     1      -4.423  -4.902   7.031  0.00  0.00    +0.008 C 
ATOM     27  C   UNL     1      -5.049  -3.823   7.918  0.00  0.00    +0.004 C 
ENDBRANCH  25  26
ENDBRANCH  24  25
ENDBRANCH   8  24
TORSDOF 7
