REMARK  Name = ZINC36645470
REMARK  12 active torsions:
REMARK  status: ('A' for Active; 'I' for Inactive)
REMARK    1  A    between atoms: C_1  and  C_2
REMARK    2  A    between atoms: C_5  and  O_35
REMARK    3  A    between atoms: N_11  and  C_12
REMARK    4  A    between atoms: C_12  and  C_13
REMARK    5  A    between atoms: C_13  and  C_14
REMARK    6  A    between atoms: C_14  and  N_15
REMARK    7  A    between atoms: N_15  and  C_16
REMARK    8  A    between atoms: N_15  and  C_17
REMARK    9  A    between atoms: C_18  and  C_20
REMARK   10  A    between atoms: C_23  and  N_29
REMARK   11  A    between atoms: C_24  and  N_26
REMARK   12  A    between atoms: O_35  and  C_36
REMARK                            x       y       z     vdW  Elec       q    Type
REMARK                         _______ _______ _______ _____ _____    ______ ____
ROOT
ATOM      1  C   UNL     1       0.969   2.177   0.799  0.00  0.00    +0.045 C 
ATOM      2  C   UNL     1       0.750   0.702   0.579  0.00  0.00    -0.034 A 
ATOM      3  C   UNL     1       0.789   0.178  -0.700  0.00  0.00    +0.008 A 
ATOM      4  C   UNL     1       0.586  -1.182  -0.883  0.00  0.00    +0.048 A 
ATOM      5  C   UNL     1       0.346  -2.022   0.180  0.00  0.00    +0.147 A 
ATOM      6  C   UNL     1       0.300  -1.516   1.503  0.00  0.00    +0.122 A 
ATOM      7  C   UNL     1       0.517  -0.128   1.648  0.00  0.00    +0.047 A 
ATOM      8  S   UNL     1       0.390   0.093   3.407  0.00  0.00    -0.051 S 
ATOM      9  C   UNL     1       0.074  -1.615   3.826  0.00  0.00    +0.168 A 
ATOM     10  N   UNL     1       0.078  -2.197   2.649  0.00  0.00    -0.221 NA
ATOM     11  N   UNL     1      -0.132  -2.180   5.074  0.00  0.00    -0.246 N 
ATOM     12  C   UNL     1      -0.108  -1.405   6.176  0.00  0.00    +0.252 C 
ATOM     13  O   UNL     1       0.020  -0.201   6.070  0.00  0.00    -0.270 OA
ENDROOT
BRANCH  12  14
ATOM     14  C   UNL     1      -0.237  -2.018   7.511  0.00  0.00    +0.040 A 
ATOM     15  C   UNL     1       0.408  -3.227   7.793  0.00  0.00    +0.015 A 
ATOM     16  C   UNL     1       0.286  -3.796   9.039  0.00  0.00    +0.026 A 
ATOM     17  C   UNL     1      -0.480  -3.171  10.020  0.00  0.00    +0.060 A 
ATOM     18  C   UNL     1      -1.124  -1.968   9.742  0.00  0.00    +0.148 A 
ATOM     19  C   UNL     1      -1.000  -1.390   8.500  0.00  0.00    +0.047 A 
BRANCH  17  20
ATOM     20  N   UNL     1      -0.602  -3.749  11.278  0.00  0.00    -0.328 N 
ATOM     21  C   UNL     1      -1.685  -4.701  11.563  0.00  0.00    +0.105 C 
ATOM     22  C   UNL     1      -1.074  -5.988  12.126  0.00  0.00    +0.019 C 
ATOM     23  C   UNL     1      -0.203  -5.647  13.337  0.00  0.00    +0.003 C 
ATOM     24  C   UNL     1       0.936  -4.722  12.903  0.00  0.00    +0.019 C 
ATOM     25  C   UNL     1       0.352  -3.425  12.347  0.00  0.00    +0.105 C 
ENDBRANCH  17  20
BRANCH  18  26
ATOM     26  N   UNL     1      -1.937  -1.307  10.788  0.00  0.00    +0.058 N 
ATOM     27  O   UNL     1      -2.497  -0.263  10.548  0.00  0.00    -0.126 OA
ATOM     28  O   UNL     1      -2.042  -1.812  11.881  0.00  0.00    -0.126 OA
ENDBRANCH  18  26
ENDBRANCH  12  14
BRANCH   5  29
ATOM     29  O   UNL     1       0.151  -3.349  -0.041  0.00  0.00    -0.493 OA
ATOM     30  C   UNL     1       0.209  -3.796  -1.397  0.00  0.00    +0.277 C 
ENDBRANCH   5  29
BRANCH  11  31
ATOM     31  C   UNL     1      -0.376  -3.619   5.195  0.00  0.00    +0.114 C 
BRANCH  31  32
ATOM     32  C   UNL     1       0.930  -4.380   4.959  0.00  0.00    +0.001 C 
BRANCH  32  33
ATOM     33  C   UNL     1       0.710  -5.869   5.234  0.00  0.00    -0.078 C 
BRANCH  33  34
ATOM     34  N   UNL     1       1.964  -6.599   5.008  0.00  0.00    +0.376 N 
ATOM     35  C   UNL     1       1.786  -8.008   5.386  0.00  0.00    -0.097 C 
ATOM     36  C   UNL     1       2.330  -6.516   3.588  0.00  0.00    -0.097 C 
ATOM     37  H   UNL     1       2.697  -6.191   5.569  0.00  0.00    -0.083 HD
ENDBRANCH  33  34
ENDBRANCH  32  33
ENDBRANCH  31  32
ENDBRANCH  11  31
TORSDOF 8
