REMARK  Name = ZINC34733275
REMARK  7 active torsions:
REMARK  status: ('A' for Active; 'I' for Inactive)
REMARK    1  A    between atoms: C_1  and  C_2
REMARK    2  A    between atoms: C_2  and  N_3
REMARK    3  A    between atoms: C_8  and  C_21
REMARK    4  A    between atoms: C_12  and  C_14
REMARK    5  A    between atoms: C_18  and  C_20
REMARK    6  A    between atoms: C_26  and  C_29
REMARK    7  A    between atoms: C_29  and  C_30
REMARK                            x       y       z     vdW  Elec       q    Type
REMARK                         _______ _______ _______ _____ _____    ______ ____
ROOT
ATOM      1  N   UNL     1      -0.513  -0.634  -1.753  0.00  0.00    -0.299 N 
ATOM      2  C   UNL     1       0.014  -1.875  -1.777  0.00  0.00    +0.303 C 
ATOM      3  O   UNL     1      -0.276  -2.675  -0.909  0.00  0.00    -0.253 OA
ATOM      4  N   UNL     1       0.862  -2.228  -2.763  0.00  0.00    -0.278 N 
ATOM      5  C   UNL     1       1.314  -1.240  -3.752  0.00  0.00    +0.122 C 
ATOM      6  C   UNL     1       2.845  -1.243  -3.788  0.00  0.00    +0.093 C 
ATOM      7  C   UNL     1       3.342  -2.667  -4.050  0.00  0.00    +0.016 C 
ATOM      8  C   UNL     1       2.884  -3.586  -2.916  0.00  0.00    +0.028 C 
ATOM      9  C   UNL     1       1.358  -3.607  -2.865  0.00  0.00    +0.108 C 
ATOM     10  H   UNL     1      -0.233   0.024  -2.409  0.00  0.00    +0.150 HD
ENDROOT
BRANCH   6  11
ATOM     11  C   UNL     1       3.324  -0.332  -4.889  0.00  0.00    +0.220 C 
ATOM     12  O   UNL     1       3.469  -0.764  -6.013  0.00  0.00    -0.275 OA
ATOM     13  N   UNL     1       3.592   0.962  -4.624  0.00  0.00    -0.301 N 
ATOM     14  C   UNL     1       3.536   1.471  -3.247  0.00  0.00    +0.108 C 
ATOM     15  C   UNL     1       2.607   2.688  -3.209  0.00  0.00    +0.023 C 
ATOM     16  C   UNL     1       3.076   3.716  -4.241  0.00  0.00    -0.004 C 
ATOM     17  C   UNL     1       3.011   3.103  -5.641  0.00  0.00    +0.023 C 
ATOM     18  C   UNL     1       3.950   1.889  -5.707  0.00  0.00    +0.108 C 
BRANCH  16  19
ATOM     19  C   UNL     1       2.171   4.948  -4.181  0.00  0.00    +0.038 C 
BRANCH  19  20
ATOM     20  C   UNL     1       2.705   6.009  -5.109  0.00  0.00    -0.047 A 
ATOM     21  C   UNL     1       3.619   6.937  -4.644  0.00  0.00    +0.003 A 
ATOM     22  C   UNL     1       4.109   7.911  -5.495  0.00  0.00    +0.000 A 
ATOM     23  C   UNL     1       3.685   7.956  -6.810  0.00  0.00    +0.000 A 
ATOM     24  C   UNL     1       2.773   7.027  -7.275  0.00  0.00    +0.000 A 
ATOM     25  C   UNL     1       2.286   6.051  -6.425  0.00  0.00    +0.003 A 
ENDBRANCH  19  20
ENDBRANCH  16  19
ENDBRANCH   6  11
BRANCH   9  26
ATOM     26  C   UNL     1       0.905  -4.397  -1.665  0.00  0.00    -0.027 A 
ATOM     27  C   UNL     1       1.413  -4.105  -0.413  0.00  0.00    +0.005 A 
ATOM     28  C   UNL     1       0.998  -4.830   0.689  0.00  0.00    +0.001 A 
ATOM     29  C   UNL     1       0.074  -5.847   0.538  0.00  0.00    +0.003 A 
ATOM     30  C   UNL     1      -0.435  -6.139  -0.713  0.00  0.00    -0.050 A 
ATOM     31  C   UNL     1      -0.023  -5.411  -1.814  0.00  0.00    +0.008 A 
ATOM     32  C   UNL     1      -1.442  -7.248  -0.877  0.00  0.00    +0.044 C 
ENDBRANCH   9  26
BRANCH   1  34
ATOM     33  C   UNL     1      -1.938   1.175  -0.932  0.00  0.00    +0.024 C 
ATOM     34  C   UNL     1      -1.507  -0.280  -0.737  0.00  0.00    +0.102 C 
ENDBRANCH   1  34
TORSDOF 5
