REMARK  Name = ZINC35831256
REMARK  6 active torsions:
REMARK  status: ('A' for Active; 'I' for Inactive)
REMARK    1  A    between atoms: C_1  and  C_2
REMARK    2  A    between atoms: C_5  and  N_9
REMARK    3  A    between atoms: C_12  and  C_16
REMARK    4  A    between atoms: N_18  and  C_19
REMARK    5  A    between atoms: C_19  and  C_21
REMARK    6  A    between atoms: C_19  and  C_22
REMARK                            x       y       z     vdW  Elec       q    Type
REMARK                         _______ _______ _______ _____ _____    ______ ____
ROOT
ATOM      1  N   UNL     1       0.057  -4.171  -0.023  0.00  0.00    -0.269 N 
ATOM      2  C   UNL     1      -1.144  -5.015  -0.028  0.00  0.00    +0.115 C 
ATOM      3  C   UNL     1      -0.663  -6.414  -0.472  0.00  0.00    +0.041 C 
ATOM      4  C   UNL     1       0.824  -6.386  -0.047  0.00  0.00    +0.162 C 
ATOM      5  C   UNL     1       1.177  -4.915  -0.034  0.00  0.00    +0.232 C 
ATOM      6  O   UNL     1       2.305  -4.472  -0.031  0.00  0.00    -0.274 OA
ENDROOT
BRANCH   1  11
ATOM      7  C   UNL     1      -0.018   1.503   0.010  0.00  0.00    +0.044 C 
ATOM      8  C   UNL     1       0.002  -0.004   0.002  0.00  0.00    -0.049 A 
ATOM      9  C   UNL     1       0.006  -0.687  -1.200  0.00  0.00    +0.005 A 
ATOM     10  C   UNL     1       0.024  -2.068  -1.212  0.00  0.00    +0.025 A 
ATOM     11  C   UNL     1       0.039  -2.771  -0.015  0.00  0.00    +0.055 A 
ATOM     12  C   UNL     1       0.036  -2.082   1.192  0.00  0.00    +0.063 A 
ATOM     13  C   UNL     1       0.023  -0.700   1.196  0.00  0.00    +0.025 A 
ATOM     14 CL   UNL     1       0.055  -2.956   2.692  0.00  0.00    -0.082 Cl
ENDBRANCH   1  11
BRANCH   4  15
ATOM     15  C   UNL     1       1.673  -7.122  -1.051  0.00  0.00    +0.225 C 
ATOM     16  O   UNL     1       1.158  -7.630  -2.024  0.00  0.00    -0.275 OA
ATOM     17  N   UNL     1       3.005  -7.216  -0.867  0.00  0.00    -0.308 N 
ATOM     18  H   UNL     1       3.417  -6.810  -0.088  0.00  0.00    +0.149 HD
BRANCH  17  19
ATOM     19  C   UNL     1       3.831  -7.932  -1.842  0.00  0.00    +0.100 C 
ATOM     20  C   UNL     1       3.828  -9.426  -1.514  0.00  0.00    +0.033 C 
BRANCH  19  21
ATOM     21  C   UNL     1       5.243  -7.408  -1.786  0.00  0.00    -0.027 A 
ATOM     22  C   UNL     1       5.822  -7.111  -0.566  0.00  0.00    +0.005 A 
ATOM     23  C   UNL     1       7.117  -6.630  -0.514  0.00  0.00    +0.000 A 
ATOM     24  C   UNL     1       7.833  -6.447  -1.683  0.00  0.00    +0.000 A 
ATOM     25  C   UNL     1       7.254  -6.744  -2.902  0.00  0.00    +0.000 A 
ATOM     26  C   UNL     1       5.961  -7.229  -2.954  0.00  0.00    +0.005 A 
ENDBRANCH  19  21
ENDBRANCH  17  19
ENDBRANCH   4  15
TORSDOF 4
