REMARK  Name = ZINC63373764
REMARK  3 active torsions:
REMARK  status: ('A' for Active; 'I' for Inactive)
REMARK    1  A    between atoms: C_7  and  C_10
REMARK    2  A    between atoms: C_10  and  C_11
REMARK    3  A    between atoms: N_19  and  C_22
REMARK                            x       y       z     vdW  Elec       q    Type
REMARK                         _______ _______ _______ _____ _____    ______ ____
ROOT
ATOM      1  C   UNL     1       0.392  -3.639  -1.441  0.00  0.00    +0.072 C 
ATOM      2  C   UNL     1      -0.497  -4.901  -1.469  0.00  0.00    +0.107 C 
ATOM      3  C   UNL     1       0.501  -6.090  -1.539  0.00  0.00    +0.123 C 
ATOM      4  C   UNL     1       0.212  -6.706  -2.889  0.00  0.00    +0.233 C 
ATOM      5  O   UNL     1       0.770  -7.680  -3.349  0.00  0.00    -0.274 OA
ATOM      6  N   UNL     1      -0.753  -6.010  -3.499  0.00  0.00    -0.210 N 
ATOM      7  C   UNL     1      -1.234  -4.965  -2.787  0.00  0.00    +0.232 C 
ATOM      8  O   UNL     1      -2.106  -4.201  -3.139  0.00  0.00    -0.274 OA
ATOM      9  C   UNL     1       1.886  -5.433  -1.542  0.00  0.00    +0.136 C 
ATOM     10  N   UNL     1       1.676  -4.059  -2.062  0.00  0.00    -0.295 NA
ATOM     11  C   UNL     1       2.857  -6.189  -2.402  0.00  0.00    +0.003 A 
ATOM     12  C   UNL     1       2.875  -6.532  -3.736  0.00  0.00    +0.008 A 
ATOM     13  C   UNL     1       3.938  -7.251  -4.252  0.00  0.00    +0.000 A 
ATOM     14  C   UNL     1       4.981  -7.626  -3.425  0.00  0.00    +0.002 A 
ATOM     15  C   UNL     1       4.967  -7.287  -2.088  0.00  0.00    +0.023 A 
ATOM     16  C   UNL     1       3.901  -6.562  -1.560  0.00  0.00    +0.039 A 
ATOM     17  N   UNL     1       3.661  -6.107  -0.262  0.00  0.00    -0.283 N 
ATOM     18  C   UNL     1       2.498  -5.434  -0.167  0.00  0.00    +0.243 C 
ATOM     19  O   UNL     1       2.034  -4.927   0.833  0.00  0.00    -0.273 OA
ATOM     20  H   UNL     1       1.610  -4.050  -3.069  0.00  0.00    +0.124 HD
ATOM     21  H   UNL     1       4.261  -6.258   0.484  0.00  0.00    +0.155 HD
ENDROOT
BRANCH   6  22
ATOM     22  C   UNL     1      -1.236  -6.339  -4.774  0.00  0.00    +0.044 A 
ATOM     23  C   UNL     1      -1.948  -7.515  -4.965  0.00  0.00    +0.025 A 
ATOM     24  C   UNL     1      -2.423  -7.837  -6.222  0.00  0.00    +0.022 A 
ATOM     25  C   UNL     1      -2.189  -6.987  -7.289  0.00  0.00    +0.041 A 
ATOM     26  C   UNL     1      -1.479  -5.815  -7.101  0.00  0.00    +0.022 A 
ATOM     27  C   UNL     1      -1.008  -5.486  -5.845  0.00  0.00    +0.025 A 
ATOM     28 CL   UNL     1      -2.787  -7.395  -8.867  0.00  0.00    -0.084 Cl
ENDBRANCH   6  22
BRANCH   1  29
ATOM     29  C   UNL     1       0.623  -3.182   0.001  0.00  0.00    +0.052 C 
BRANCH  29  36
ATOM     30  C   UNL     1      -3.413  -3.553   2.154  0.00  0.00    +0.001 A 
ATOM     31  C   UNL     1      -4.084  -2.332   2.304  0.00  0.00    +0.002 A 
ATOM     32  C   UNL     1      -3.581  -1.163   1.853  0.00  0.00    +0.026 A 
ATOM     33  C   UNL     1      -2.321  -1.129   1.195  0.00  0.00    +0.043 A 
ATOM     34  N   UNL     1      -1.633  -0.141   0.677  0.00  0.00    -0.380 N 
ATOM     35  C   UNL     1      -0.388  -0.679   0.119  0.00  0.00    +0.144 C 
ATOM     36  C   UNL     1      -0.426  -2.168   0.381  0.00  0.00    -0.040 C 
ATOM     37  C   UNL     1      -1.591  -2.406   1.024  0.00  0.00    -0.001 A 
ATOM     38  C   UNL     1      -2.209  -3.632   1.543  0.00  0.00    +0.010 A 
ATOM     39  H   UNL     1      -1.902   0.791   0.665  0.00  0.00    +0.160 HD
ENDBRANCH  29  36
ENDBRANCH   1  29
TORSDOF 3
