REMARK  Name = ZINC64541227
REMARK  10 active torsions:
REMARK  status: ('A' for Active; 'I' for Inactive)
REMARK    1  A    between atoms: C_1  and  C_2
REMARK    2  A    between atoms: C_2  and  N_3
REMARK    3  A    between atoms: N_6  and  C_9
REMARK    4  A    between atoms: C_9  and  C_10
REMARK    5  A    between atoms: C_10  and  C_11
REMARK    6  A    between atoms: C_11  and  N_12
REMARK    7  A    between atoms: C_13  and  C_15
REMARK    8  A    between atoms: C_15  and  C_17
REMARK    9  A    between atoms: C_15  and  C_18
REMARK   10  A    between atoms: C_24  and  C_26
REMARK                            x       y       z     vdW  Elec       q    Type
REMARK                         _______ _______ _______ _____ _____    ______ ____
ROOT
ATOM      1  C   UNL     1      -8.682  -8.960  -1.538  0.00  0.00    +0.004 C 
ATOM      2  C   UNL     1      -9.420  -8.561  -0.258  0.00  0.00    +0.023 C 
ATOM      3  C   UNL     1     -10.855  -9.094  -0.313  0.00  0.00    +0.108 C 
ATOM      4  N   UNL     1     -10.813 -10.542  -0.559  0.00  0.00    -0.300 N 
ATOM      5  C   UNL     1     -10.053 -11.041  -1.713  0.00  0.00    +0.108 C 
ATOM      6  C   UNL     1      -8.627 -10.486  -1.642  0.00  0.00    +0.023 C 
ATOM      7  C   UNL     1     -11.458 -11.396   0.260  0.00  0.00    +0.242 C 
ATOM      8  O   UNL     1     -12.082 -10.971   1.210  0.00  0.00    -0.273 OA
ENDROOT
BRANCH   7   9
ATOM      9  C   UNL     1     -11.405 -12.878  -0.005  0.00  0.00    +0.190 C 
ATOM     10  C   UNL     1     -12.041 -13.192  -1.341  0.00  0.00    +0.016 C 
ATOM     11  C   UNL     1     -13.084 -14.011  -1.077  0.00  0.00    -0.002 A 
ATOM     12  C   UNL     1     -14.083 -14.657  -1.937  0.00  0.00    +0.029 A 
ATOM     13  C   UNL     1     -15.029 -15.441  -1.369  0.00  0.00    +0.042 A 
ATOM     14  C   UNL     1     -15.079 -15.649   0.017  0.00  0.00    +0.022 A 
ATOM     15  C   UNL     1     -14.196 -15.089   0.871  0.00  0.00    +0.027 A 
ATOM     16  C   UNL     1     -13.159 -14.247   0.383  0.00  0.00    +0.043 A 
ATOM     17  N   UNL     1     -12.197 -13.600   0.998  0.00  0.00    -0.370 N 
ATOM     18 CL   UNL     1     -16.212 -16.206  -2.382  0.00  0.00    -0.084 Cl
ATOM     19  H   UNL     1     -12.037 -13.598   1.954  0.00  0.00    +0.161 HD
ENDBRANCH   7   9
BRANCH   1  20
ATOM     20  C   UNL     1      -7.258  -8.400  -1.501  0.00  0.00    +0.075 C 
ATOM     21  C   UNL     1      -6.521  -8.798  -2.781  0.00  0.00    +0.017 C 
BRANCH  20  23
ATOM     22  N   UNL     1      -6.169  -6.184  -1.351  0.00  0.00    -0.315 N 
ATOM     23  C   UNL     1      -7.312  -6.898  -1.399  0.00  0.00    +0.216 C 
ATOM     24  O   UNL     1      -8.383  -6.331  -1.359  0.00  0.00    -0.276 OA
ATOM     25  H   UNL     1      -5.313  -6.638  -1.383  0.00  0.00    +0.149 HD
BRANCH  22  26
ATOM     26  C   UNL     1      -6.222  -4.724  -1.252  0.00  0.00    +0.105 C 
BRANCH  26  27
ATOM     27  C   UNL     1      -4.798  -4.164  -1.215  0.00  0.00    +0.034 C 
BRANCH  27  28
ATOM     28  C   UNL     1      -4.853  -2.639  -1.111  0.00  0.00    +0.086 C 
BRANCH  28  32
ATOM     29  N   UNL     1      -1.376  -0.512   0.012  0.00  0.00    +0.381 N 
ATOM     30  C   UNL     1      -2.050  -0.124  -1.234  0.00  0.00    -0.063 C 
ATOM     31  C   UNL     1      -3.492  -0.638  -1.215  0.00  0.00    +0.066 C 
ATOM     32  N   UNL     1      -3.486  -2.101  -1.076  0.00  0.00    -0.306 NA
ATOM     33  C   UNL     1      -2.792  -2.506   0.155  0.00  0.00    +0.066 C 
ATOM     34  C   UNL     1      -1.357  -1.977   0.125  0.00  0.00    -0.063 C 
ATOM     35  H   UNL     1      -1.873  -0.121   0.799  0.00  0.00    -0.082 HD
BRANCH  29  37
ATOM     36  C   UNL     1      -0.019   1.526   0.010  0.00  0.00    -0.017 C 
ATOM     37  C   UNL     1       0.002  -0.004   0.002  0.00  0.00    -0.082 C 
ENDBRANCH  29  37
ENDBRANCH  28  32
ENDBRANCH  27  28
ENDBRANCH  26  27
ENDBRANCH  22  26
ENDBRANCH  20  23
ENDBRANCH   1  20
TORSDOF 8
