REMARK  Name = ZINC35665075
REMARK  10 active torsions:
REMARK  status: ('A' for Active; 'I' for Inactive)
REMARK    1  A    between atoms: C_1  and  C_2
REMARK    2  A    between atoms: C_2  and  C_3
REMARK    3  A    between atoms: C_3  and  N_4
REMARK    4  A    between atoms: N_4  and  C_5
REMARK    5  A    between atoms: C_5  and  N_7
REMARK    6  A    between atoms: C_14  and  C_29
REMARK    7  A    between atoms: N_18  and  C_19
REMARK    8  A    between atoms: C_19  and  C_20
REMARK    9  A    between atoms: C_29  and  C_30
REMARK   10  A    between atoms: C_29  and  C_31
REMARK                            x       y       z     vdW  Elec       q    Type
REMARK                         _______ _______ _______ _____ _____    ______ ____
ROOT
ATOM      1  N   UNL     1       0.675  -3.961   1.306  0.00  0.00    -0.313 N 
ATOM      2  C   UNL     1       0.139  -5.048   0.475  0.00  0.00    +0.107 C 
ATOM      3  C   UNL     1       1.309  -5.814  -0.151  0.00  0.00    +0.025 C 
ATOM      4  C   UNL     1       2.265  -6.267   0.951  0.00  0.00    +0.006 C 
ATOM      5  C   UNL     1       2.818  -5.059   1.705  0.00  0.00    +0.025 C 
ATOM      6  C   UNL     1       1.664  -4.286   2.342  0.00  0.00    +0.107 C 
ATOM      7  N   UNL     1       3.379  -7.037   0.358  0.00  0.00    +0.401 N 
ATOM      8  C   UNL     1       3.682  -8.046   1.402  0.00  0.00    +0.022 C 
ATOM      9  C   UNL     1       2.384  -8.218   2.161  0.00  0.00    +0.201 C 
ATOM     10  O   UNL     1       2.112  -9.141   2.900  0.00  0.00    -0.277 OA
ATOM     11  N   UNL     1       1.580  -7.173   1.877  0.00  0.00    -0.309 N 
ATOM     12  H   UNL     1       3.087  -7.486  -0.497  0.00  0.00    -0.082 HD
ATOM     13  H   UNL     1       4.178  -6.442   0.196  0.00  0.00    -0.082 HD
ENDROOT
BRANCH   8  14
ATOM     14  C   UNL     1       4.105  -9.368   0.758  0.00  0.00    -0.023 C 
ATOM     15  C   UNL     1       4.412 -10.393   1.851  0.00  0.00    +0.006 C 
ATOM     16  C   UNL     1       2.970  -9.890  -0.126  0.00  0.00    +0.006 C 
ENDBRANCH   8  14
BRANCH   1  17
ATOM     17  C   UNL     1       0.272  -2.689   1.117  0.00  0.00    +0.133 C 
ATOM     18  S   UNL     1      -0.926  -2.336  -0.055  0.00  0.00    -0.019 S 
BRANCH  17  19
ATOM     19  N   UNL     1       0.811  -1.695   1.850  0.00  0.00    -0.326 N 
ATOM     20  H   UNL     1       1.460  -1.899   2.541  0.00  0.00    +0.148 HD
BRANCH  19  21
ATOM     21  C   UNL     1       0.416  -0.306   1.603  0.00  0.00    +0.103 C 
BRANCH  21  23
ATOM     22  C   UNL     1       0.758   2.067   2.305  0.00  0.00    +0.005 C 
ATOM     23  C   UNL     1       1.169   0.617   2.563  0.00  0.00    +0.015 C 
ENDBRANCH  21  23
ENDBRANCH  19  21
ENDBRANCH  17  19
ENDBRANCH   1  17
BRANCH  11  24
ATOM     24  C   UNL     1       0.231  -6.973   2.411  0.00  0.00    +0.141 C 
BRANCH  24  25
ATOM     25  C   UNL     1      -0.736  -7.869   1.682  0.00  0.00    -0.026 A 
ATOM     26  C   UNL     1      -1.254  -7.477   0.461  0.00  0.00    +0.009 A 
ATOM     27  C   UNL     1      -2.141  -8.296  -0.212  0.00  0.00    +0.050 A 
ATOM     28  C   UNL     1      -2.514  -9.512   0.335  0.00  0.00    +0.166 A 
ATOM     29  C   UNL     1      -1.992  -9.908   1.564  0.00  0.00    +0.167 A 
ATOM     30  C   UNL     1      -1.099  -9.085   2.231  0.00  0.00    +0.054 A 
ATOM     31  O   UNL     1      -2.508 -11.131   1.884  0.00  0.00    -0.453 OA
ATOM     32  C   UNL     1      -3.660 -11.295   1.037  0.00  0.00    +0.466 C 
ATOM     33  O   UNL     1      -3.356 -10.488  -0.116  0.00  0.00    -0.453 OA
ENDBRANCH  24  25
ENDBRANCH  11  24
TORSDOF 7
