REMARK  Name = ZINC17028304
REMARK  10 active torsions:
REMARK  status: ('A' for Active; 'I' for Inactive)
REMARK    1  A    between atoms: CG1_1  and  CB_2
REMARK    2  A    between atoms: CB_2  and  CG2_3
REMARK    3  A    between atoms: CB_2  and  CA_4
REMARK    4  A    between atoms: CA_4  and  C_6
REMARK    5  A    between atoms: CA_4  and  N_20
REMARK    6  A    between atoms: N_8  and  CA_9
REMARK    7  A    between atoms: CA_9  and  CB_11
REMARK    8  A    between atoms: CA_9  and  C_18
REMARK    9  A    between atoms: CB_11  and  CG_12
REMARK   10  A    between atoms: C_25  and  O_33
REMARK                            x       y       z     vdW  Elec       q    Type
REMARK                         _______ _______ _______ _____ _____    ______ ____
ROOT
ATOM      1  CA  PHE A   1      -5.563  -1.734   1.656  0.00  0.00    +0.163 C 
ENDROOT
BRANCH   1   2
ATOM      2  N   PHE A   1      -4.412  -2.622   1.840  0.00  0.00    -0.287 N 
ATOM      3  C   UNK A   0      -3.163  -2.114   1.849  0.00  0.00    +0.308 C 
ATOM      4  O   UNK A   0      -2.992  -0.919   1.705  0.00  0.00    -0.252 OA
ATOM      5  N   UNK A   0      -2.105  -2.931   2.018  0.00  0.00    -0.245 N 
ATOM      6  C   UNK A   0      -2.275  -4.382   2.195  0.00  0.00    +0.210 C 
ATOM      7  C   UNK A   0      -1.308  -4.865   3.245  0.00  0.00    +0.206 C 
ATOM      8  N   UNK A   0      -0.189  -4.255   3.469  0.00  0.00    -0.214 NA
ATOM      9  C   UNK A   0       0.173  -3.131   2.775  0.00  0.00    +0.089 A 
ATOM     10  C   UNK A   0      -0.792  -2.434   2.033  0.00  0.00    +0.064 A 
ATOM     11  C   UNK A   0      -0.445  -1.294   1.336  0.00  0.00    +0.026 A 
ATOM     12  C   UNK A   0       0.862  -0.840   1.369  0.00  0.00    +0.002 A 
ATOM     13  C   UNK A   0       1.820  -1.524   2.096  0.00  0.00    +0.002 A 
ATOM     14  C   UNK A   0       1.485  -2.666   2.798  0.00  0.00    +0.030 A 
ATOM     15  H   PHE A   1      -4.548  -3.576   1.955  0.00  0.00    +0.151 HD
BRANCH   7  16
ATOM     16  O   UNK A   0      -1.617  -5.960   3.969  0.00  0.00    -0.494 OA
ATOM     17  H   UNK A   0      -0.945  -6.203   4.620  0.00  0.00    +0.293 HD
ENDBRANCH   7  16
ENDBRANCH   1   2
BRANCH   1  18
ATOM     18  C   PHE A   1      -6.786  -2.364   2.271  0.00  0.00    +0.234 C 
ATOM     19  O   PHE A   1      -6.823  -3.562   2.457  0.00  0.00    -0.274 OA
ATOM     20  N   PHE A   1      -7.839  -1.596   2.614  0.00  0.00    -0.300 N 
ATOM     21  H   PHE A   1      -7.838  -0.649   2.405  0.00  0.00    +0.150 HD
BRANCH  20  22
ATOM     22  CA  PHE A   1      -8.986  -2.192   3.304  0.00  0.00    +0.191 C 
BRANCH  22  23
ATOM     23  C   PHE A   1      -8.673  -2.330   4.772  0.00  0.00    +0.376 C 
ATOM     24  O   PHE A   1      -7.602  -1.968   5.198  0.00  0.00    -0.244 OA
ATOM     25  OXT PHE A   1      -9.584  -2.855   5.606  0.00  0.00    -0.244 OA
ENDBRANCH  22  23
BRANCH  22  26
ATOM     26  CB  PHE A   1     -10.211  -1.293   3.126  0.00  0.00    +0.069 C 
BRANCH  26  27
ATOM     27  CG  PHE A   1     -10.598  -1.254   1.671  0.00  0.00    -0.045 A 
ATOM     28  CD2 PHE A   1     -10.169  -0.213   0.869  0.00  0.00    +0.004 A 
ATOM     29  CE2 PHE A   1     -10.521  -0.180  -0.468  0.00  0.00    +0.000 A 
ATOM     30  CZ  PHE A   1     -11.310  -1.183  -1.000  0.00  0.00    +0.000 A 
ATOM     31  CE1 PHE A   1     -11.743  -2.221  -0.197  0.00  0.00    +0.000 A 
ATOM     32  CD1 PHE A   1     -11.388  -2.257   1.138  0.00  0.00    +0.004 A 
ENDBRANCH  26  27
ENDBRANCH  22  26
ENDBRANCH  20  22
ENDBRANCH   1  18
BRANCH   1  34
ATOM     33  CG1 PHE A   1      -6.979  -0.554  -0.029  0.00  0.00    +0.009 C 
ATOM     34  CB  PHE A   1      -5.801  -1.510   0.162  0.00  0.00    +0.012 C 
ATOM     35  CG2 PHE A   1      -4.545  -0.905  -0.469  0.00  0.00    +0.009 C 
ENDBRANCH   1  34
TORSDOF 8
