REMARK  Name = ZINC01003198
REMARK  10 active torsions:
REMARK  status: ('A' for Active; 'I' for Inactive)
REMARK    1  A    between atoms: C_1  and  C_2
REMARK    2  A    between atoms: C_2  and  C_3
REMARK    3  A    between atoms: C_10  and  N_16
REMARK    4  A    between atoms: C_11  and  C_12
REMARK    5  A    between atoms: C_12  and  O_14
REMARK    6  A    between atoms: O_14  and  C_15
REMARK    7  A    between atoms: C_17  and  C_19
REMARK    8  A    between atoms: C_27  and  C_29
REMARK    9  A    between atoms: C_33  and  C_34
REMARK   10  A    between atoms: C_33  and  C_35
REMARK                            x       y       z     vdW  Elec       q    Type
REMARK                         _______ _______ _______ _____ _____    ______ ____
ROOT
ATOM      1  N   UNL     1       1.269  -2.143  -7.354  0.00  0.00    -0.279 N 
ATOM      2  C   UNL     1       0.704  -1.357  -8.292  0.00  0.00    +0.222 C 
ATOM      3  O   UNL     1      -0.003  -0.429  -7.959  0.00  0.00    -0.275 OA
ATOM      4  H   UNL     1       1.835  -2.885  -7.620  0.00  0.00    +0.155 HD
ENDROOT
BRANCH   2   5
ATOM      5  C   UNL     1       0.950  -1.631  -9.753  0.00  0.00    +0.097 C 
ATOM      6  C   UNL     1       0.157  -0.622 -10.638  0.00  0.00    +0.028 C 
ATOM      7  C   UNL     1       0.706  -0.844 -12.080  0.00  0.00    +0.009 C 
ATOM      8  C   UNL     1       0.149  -2.227 -12.490  0.00  0.00    +0.009 C 
ATOM      9  C   UNL     1      -0.676  -2.691 -11.251  0.00  0.00    +0.030 C 
ATOM     10  C   UNL     1       0.382  -3.015 -10.147  0.00  0.00    +0.122 C 
ATOM     11  C   UNL     1      -1.218  -1.325 -10.719  0.00  0.00    -0.063 C 
ATOM     12  C   UNL     1      -2.427  -0.904 -10.445  0.00  0.00    -0.076 C 
ATOM     13  C   UNL     1      -2.641   0.505  -9.954  0.00  0.00    +0.039 C 
ATOM     14  C   UNL     1      -3.605  -1.827 -10.620  0.00  0.00    +0.039 C 
BRANCH  10  15
ATOM     15  C   UNL     1       1.467  -3.884 -10.727  0.00  0.00    +0.360 C 
ATOM     16  O   UNL     1       2.636  -3.657 -10.465  0.00  0.00    -0.246 OA
ATOM     17  O   UNL     1       1.177  -4.815 -11.459  0.00  0.00    -0.246 OA
ENDBRANCH  10  15
ENDBRANCH   2   5
BRANCH   1  24
ATOM     18  C   UNL     1       0.545  -0.764  -1.181  0.00  0.00    -0.006 C 
ATOM     19  C   UNL     1       0.648  -2.292  -1.176  0.00  0.00    +0.008 C 
ATOM     20  C   UNL     1       1.590  -2.754  -2.290  0.00  0.00    +0.037 C 
ATOM     21  C   UNL     1       1.147  -2.117  -3.599  0.00  0.00    -0.021 A 
ATOM     22  C   UNL     1       0.336  -1.038  -3.615  0.00  0.00    -0.004 A 
ATOM     23  S   UNL     1       0.108  -0.673  -5.331  0.00  0.00    -0.077 S 
ATOM     24  C   UNL     1       1.043  -1.891  -6.010  0.00  0.00    +0.086 A 
ATOM     25  C   UNL     1       1.537  -2.588  -4.917  0.00  0.00    +0.091 A 
ATOM     26  C   UNL     1      -0.230  -0.319  -2.429  0.00  0.00    +0.046 C 
BRANCH  18  28
ATOM     27  C   UNL     1      -0.190   1.233   0.128  0.00  0.00    +0.004 C 
ATOM     28  C   UNL     1      -0.193  -0.296   0.075  0.00  0.00    +0.000 C 
ENDBRANCH  18  28
BRANCH  25  29
ATOM     29  C   UNL     1       2.414  -3.748  -5.085  0.00  0.00    +0.342 C 
ATOM     30  O   UNL     1       1.937  -4.863  -5.177  0.00  0.00    -0.245 OA
BRANCH  29  31
ATOM     31  O   UNL     1       3.752  -3.581  -5.136  0.00  0.00    -0.464 OA
ATOM     32  C   UNL     1       4.547  -4.757  -5.301  0.00  0.00    +0.280 C 
ENDBRANCH  29  31
ENDBRANCH  25  29
ENDBRANCH   1  24
TORSDOF 6
