REMARK  Name = ZINC40017480
REMARK  12 active torsions:
REMARK  status: ('A' for Active; 'I' for Inactive)
REMARK    1  A    between atoms: C_1  and  C_2
REMARK    2  A    between atoms: C_2  and  C_3
REMARK    3  A    between atoms: C_3  and  C_4
REMARK    4  A    between atoms: C_4  and  C_5
REMARK    5  A    between atoms: C_4  and  C_6
REMARK    6  A    between atoms: C_4  and  O_36
REMARK    7  A    between atoms: C_12  and  O_34
REMARK    8  A    between atoms: N_18  and  C_33
REMARK    9  A    between atoms: C_25  and  O_28
REMARK   10  A    between atoms: O_28  and  C_29
REMARK   11  A    between atoms: C_29  and  C_31
REMARK   12  A    between atoms: O_34  and  C_35
REMARK                            x       y       z     vdW  Elec       q    Type
REMARK                         _______ _______ _______ _____ _____    ______ ____
ROOT
ATOM      1  C   UNL     1      -2.758  -2.623  -0.277  0.00  0.00    +0.061 C 
ATOM      2  C   UNL     1      -3.204  -2.125  -1.661  0.00  0.00    +0.020 C 
ATOM      3  C   UNL     1      -3.840  -3.346  -2.383  0.00  0.00    -0.009 C 
ATOM      4  C   UNL     1      -2.663  -4.250  -2.581  0.00  0.00    -0.022 C 
ATOM      5  C   UNL     1      -2.008  -4.619  -1.466  0.00  0.00    +0.008 C 
ATOM      6  C   UNL     1      -2.711  -4.150  -0.153  0.00  0.00    +0.130 C 
ATOM      7  C   UNL     1      -4.026  -4.819  -0.416  0.00  0.00    +0.221 C 
ATOM      8  C   UNL     1      -4.804  -3.865  -1.323  0.00  0.00    +0.045 C 
ATOM      9  C   UNL     1      -5.638  -2.734  -0.776  0.00  0.00    -0.003 C 
ATOM     10  C   UNL     1      -6.467  -2.221  -1.975  0.00  0.00    -0.078 C 
ATOM     11  N   UNL     1      -5.620  -1.893  -3.119  0.00  0.00    +0.381 N 
ATOM     12  C   UNL     1      -4.719  -2.976  -3.547  0.00  0.00    -0.054 C 
ATOM     13  C   UNL     1      -5.521  -4.132  -4.151  0.00  0.00    +0.021 C 
ATOM     14  C   UNL     1      -6.119  -5.064  -3.146  0.00  0.00    -0.041 A 
ATOM     15  C   UNL     1      -5.723  -4.922  -1.844  0.00  0.00    +0.012 A 
ATOM     16  C   UNL     1      -5.945  -5.765  -0.749  0.00  0.00    +0.167 A 
ATOM     17  C   UNL     1      -6.845  -6.798  -0.972  0.00  0.00    +0.173 A 
ATOM     18  C   UNL     1      -7.368  -6.906  -2.264  0.00  0.00    +0.050 A 
ATOM     19  C   UNL     1      -7.021  -6.091  -3.335  0.00  0.00    +0.008 A 
ATOM     20  O   UNL     1      -5.106  -5.380   0.285  0.00  0.00    -0.481 OA
ATOM     21  C   UNL     1      -6.486  -1.534  -4.251  0.00  0.00    -0.096 C 
ATOM     22  H   UNL     1      -5.061  -1.087  -2.882  0.00  0.00    -0.082 HD
ENDROOT
BRANCH   1  23
ATOM     23  C   UNL     1      -1.363  -2.068   0.015  0.00  0.00    +0.069 C 
ATOM     24  C   UNL     1      -0.356  -2.677  -0.963  0.00  0.00    +0.041 C 
BRANCH  23  25
ATOM     25  O   UNL     1      -0.988  -2.401   1.353  0.00  0.00    -0.388 OA
ATOM     26  H   UNL     1      -1.583  -2.047   2.028  0.00  0.00    +0.210 HD
ENDBRANCH  23  25
BRANCH  23  27
ATOM     27  C   UNL     1      -1.375  -0.546  -0.147  0.00  0.00    +0.034 C 
BRANCH  27  29
ATOM     28  C   UNL     1       0.033   1.518  -0.140  0.00  0.00    +0.004 C 
ATOM     29  C   UNL     1       0.045  -0.004   0.022  0.00  0.00    -0.001 C 
ENDBRANCH  27  29
ENDBRANCH  23  27
ENDBRANCH   1  23
BRANCH   6  30
ATOM     30  O   UNL     1      -2.060  -4.595   1.039  0.00  0.00    -0.368 OA
ATOM     31  C   UNL     1      -2.005  -6.016   1.175  0.00  0.00    +0.195 C 
ENDBRANCH   6  30
BRANCH  17  32
ATOM     32  O   UNL     1      -7.201  -7.662   0.017  0.00  0.00    -0.422 OA
BRANCH  32  33
ATOM     33  C   UNL     1      -8.132  -7.263   0.898  0.00  0.00    +0.309 C 
ATOM     34  O   UNL     1      -8.695  -6.205   0.744  0.00  0.00    -0.251 OA
ATOM     35  C   UNL     1      -8.475  -8.135   2.078  0.00  0.00    +0.136 C 
ENDBRANCH  32  33
ENDBRANCH  17  32
TORSDOF 7
