REMARK  Name = ZINC35092180
REMARK  9 active torsions:
REMARK  status: ('A' for Active; 'I' for Inactive)
REMARK    1  A    between atoms: C_1  and  C_2
REMARK    2  A    between atoms: C_2  and  C_3
REMARK    3  A    between atoms: C_3  and  C_5
REMARK    4  A    between atoms: C_3  and  N_24
REMARK    5  A    between atoms: N_15  and  C_16
REMARK    6  A    between atoms: C_19  and  C_23
REMARK    7  A    between atoms: C_21  and  C_22
REMARK    8  A    between atoms: N_24  and  C_25
REMARK    9  A    between atoms: N_28  and  C_29
REMARK                            x       y       z     vdW  Elec       q    Type
REMARK                         _______ _______ _______ _____ _____    ______ ____
ROOT
ATOM      1  C   UNL     1       0.776  -0.492  -0.801  0.00  0.00    +0.143 C 
ENDROOT
BRANCH   1   2
ATOM      2  C   UNL     1       0.985  -1.979  -0.931  0.00  0.00    +0.138 A 
ATOM      3  N   UNL     1      -0.043  -2.760  -0.790  0.00  0.00    -0.231 NA
ATOM      4  C   UNL     1       0.069  -4.108  -0.893  0.00  0.00    +0.078 A 
ATOM      5  C   UNL     1      -1.036  -4.948  -0.741  0.00  0.00    +0.028 A 
ATOM      6  C   UNL     1      -0.877  -6.311  -0.855  0.00  0.00    +0.002 A 
ATOM      7  C   UNL     1       0.370  -6.863  -1.118  0.00  0.00    +0.001 A 
ATOM      8  C   UNL     1       1.475  -6.055  -1.271  0.00  0.00    +0.015 A 
ATOM      9  C   UNL     1       1.335  -4.673  -1.161  0.00  0.00    +0.065 A 
ATOM     10  C   UNL     1       2.479  -3.761  -1.316  0.00  0.00    +0.266 A 
ATOM     11  O   UNL     1       3.597  -4.183  -1.548  0.00  0.00    -0.267 OA
ATOM     12  N   UNL     1       2.239  -2.435  -1.196  0.00  0.00    -0.263 N 
BRANCH  12  13
ATOM     13  C   UNL     1       3.292  -1.523  -1.340  0.00  0.00    +0.054 A 
ATOM     14  C   UNL     1       3.966  -1.055  -0.219  0.00  0.00    +0.027 A 
ATOM     15  C   UNL     1       5.005  -0.157  -0.365  0.00  0.00    +0.005 A 
ATOM     16  C   UNL     1       5.374   0.277  -1.625  0.00  0.00    -0.050 A 
ATOM     17  C   UNL     1       4.705  -0.186  -2.743  0.00  0.00    +0.008 A 
ATOM     18  C   UNL     1       3.669  -1.089  -2.604  0.00  0.00    -0.026 A 
ATOM     19  C   UNL     1       2.945  -1.599  -3.824  0.00  0.00    +0.046 C 
ATOM     20  C   UNL     1       6.508   1.258  -1.780  0.00  0.00    +0.044 C 
ENDBRANCH  12  13
ENDBRANCH   1   2
BRANCH   1  21
ATOM     21  N   UNL     1      -0.072  -0.020  -1.899  0.00  0.00    -0.279 N 
ATOM     22  C   UNL     1      -1.426  -0.555  -2.061  0.00  0.00    +0.134 C 
ATOM     23  C   UNL     1       0.394   0.905  -2.760  0.00  0.00    +0.303 C 
ATOM     24  O   UNL     1       1.518   1.349  -2.627  0.00  0.00    -0.253 OA
ATOM     25  N   UNL     1      -0.385   1.339  -3.770  0.00  0.00    -0.294 N 
ATOM     26  H   UNL     1      -1.282   0.986  -3.877  0.00  0.00    +0.151 HD
BRANCH  25  27
ATOM     27  C   UNL     1       0.121   2.346  -4.707  0.00  0.00    +0.037 C 
ATOM     28  C   UNL     1       0.478   3.621  -3.941  0.00  0.00    +0.029 C 
ATOM     29  C   UNL     1       1.007   4.673  -4.918  0.00  0.00    -0.008 C 
ATOM     30  C   UNL     1      -0.068   4.987  -5.960  0.00  0.00    +0.007 C 
ATOM     31  C   UNL     1      -0.425   3.712  -6.726  0.00  0.00    -0.008 C 
ATOM     32  C   UNL     1      -0.954   2.661  -5.748  0.00  0.00    +0.029 C 
ATOM     33  C   UNL     1       0.823   3.173  -7.428  0.00  0.00    +0.007 C 
ATOM     34  C   UNL     1       1.898   2.858  -6.387  0.00  0.00    -0.008 C 
ATOM     35  C   UNL     1       2.255   4.133  -5.621  0.00  0.00    +0.007 C 
ATOM     36  C   UNL     1       1.369   1.807  -5.409  0.00  0.00    +0.029 C 
ENDBRANCH  25  27
ENDBRANCH   1  21
BRANCH   1  38
ATOM     37  C   UNL     1      -0.017   1.328   0.716  0.00  0.00    +0.006 C 
ATOM     38  C   UNL     1       0.097  -0.187   0.535  0.00  0.00    +0.027 C 
ENDBRANCH   1  38
TORSDOF 5
