REMARK  Name = ZINC00639513
REMARK  6 active torsions:
REMARK  status: ('A' for Active; 'I' for Inactive)
REMARK    1  A    between atoms: C_1  and  O_2
REMARK    2  A    between atoms: O_2  and  C_3
REMARK    3  A    between atoms: C_6  and  O_9
REMARK    4  A    between atoms: O_9  and  C_10
REMARK    5  A    between atoms: C_10  and  C_11
REMARK    6  A    between atoms: C_14  and  C_20
REMARK                            x       y       z     vdW  Elec       q    Type
REMARK                         _______ _______ _______ _____ _____    ______ ____
ROOT
ATOM      1  C   UNL     1       2.257  -4.216   0.303  0.00  0.00    +0.274 C 
ATOM      2  O   UNL     1       1.163  -4.741   0.323  0.00  0.00    -0.270 OA
ATOM      3  N   UNL     1       3.361  -4.967   0.120  0.00  0.00    -0.186 N 
ATOM      4  C   UNL     1       3.227  -6.353   0.044  0.00  0.00    +0.070 C 
ATOM      5  C   UNL     1       4.227  -7.193   0.293  0.00  0.00    +0.073 C 
ATOM      6  S   UNL     1       5.829  -6.636   0.751  0.00  0.00    -0.071 S 
ATOM      7  C   UNL     1       5.754  -4.952   0.257  0.00  0.00    +0.128 C 
ATOM      8  S   UNL     1       7.214  -4.076   0.079  0.00  0.00    -0.026 S 
ATOM      9  N   UNL     1       4.594  -4.331   0.009  0.00  0.00    -0.245 N 
ATOM     10  H   UNL     1       4.642  -3.274  -0.293  0.00  0.00    +0.172 HD
ENDROOT
BRANCH   4  11
ATOM     11  C   UNL     1       1.912  -6.913  -0.332  0.00  0.00    -0.001 A 
ATOM     12  C   UNL     1       1.301  -7.872   0.480  0.00  0.00    +0.011 A 
ATOM     13  C   UNL     1       0.071  -8.387   0.126  0.00  0.00    +0.016 A 
ATOM     14  C   UNL     1      -0.552  -7.965  -1.036  0.00  0.00    +0.018 A 
ATOM     15  C   UNL     1       0.051  -7.019  -1.847  0.00  0.00    +0.016 A 
ATOM     16  C   UNL     1       1.278  -6.492  -1.502  0.00  0.00    +0.011 A 
ATOM     17 BR   UNL     1      -2.234  -8.683  -1.516  0.00  0.00    -0.050 Br
ENDBRANCH   4  11
BRANCH   1  18
ATOM     18  C   UNL     1       2.381  -2.725   0.484  0.00  0.00    +0.326 C 
BRANCH  18  19
ATOM     19  O   UNL     1       1.082  -2.157   0.659  0.00  0.00    -0.483 OA
BRANCH  19  23
ATOM     20  C   UNL     1       0.881   1.931   1.198  0.00  0.00    +0.120 A 
ATOM     21  C   UNL     1      -0.281   1.174   1.193  0.00  0.00    +0.049 A 
ATOM     22  C   UNL     1      -0.214  -0.194   1.012  0.00  0.00    +0.049 A 
ATOM     23  C   UNL     1       1.016  -0.810   0.837  0.00  0.00    +0.121 A 
ATOM     24  C   UNL     1       2.178  -0.054   0.842  0.00  0.00    +0.049 A 
ATOM     25  C   UNL     1       2.111   1.314   1.022  0.00  0.00    +0.049 A 
BRANCH  20  27
ATOM     26  C   UNL     1       2.051   3.994   1.369  0.00  0.00    +0.277 C 
ATOM     27  O   UNL     1       0.815   3.277   1.375  0.00  0.00    -0.495 OA
ENDBRANCH  20  27
ENDBRANCH  19  23
ENDBRANCH  18  19
ENDBRANCH   1  18
TORSDOF 5
