REMARK  Name = ZINC62500387
REMARK  7 active torsions:
REMARK  status: ('A' for Active; 'I' for Inactive)
REMARK    1  A    between atoms: C_1  and  C_2
REMARK    2  A    between atoms: N_6  and  C_8
REMARK    3  A    between atoms: C_8  and  C_9
REMARK    4  A    between atoms: C_9  and  C_10
REMARK    5  A    between atoms: C_9  and  N_11
REMARK    6  A    between atoms: C_17  and  N_20
REMARK    7  A    between atoms: C_21  and  C_23
REMARK                            x       y       z     vdW  Elec       q    Type
REMARK                         _______ _______ _______ _____ _____    ______ ____
ROOT
ATOM      1  N   UNL     1       1.241  -6.615   1.143  0.00  0.00    -0.298 N 
ATOM      2  C   UNL     1       0.114  -5.955   1.476  0.00  0.00    +0.302 C 
ATOM      3  O   UNL     1       0.177  -4.817   1.899  0.00  0.00    -0.253 OA
ATOM      4  N   UNL     1      -1.084  -6.558   1.341  0.00  0.00    -0.286 N 
ATOM      5  C   UNL     1      -2.328  -5.816   1.592  0.00  0.00    +0.111 C 
ATOM      6  C   UNL     1      -3.238  -5.951   0.367  0.00  0.00    +0.041 C 
ATOM      7  C   UNL     1      -3.443  -7.434   0.050  0.00  0.00    +0.076 C 
ATOM      8  C   UNL     1      -2.095  -8.079  -0.277  0.00  0.00    +0.041 C 
ATOM      9  C   UNL     1      -1.172  -7.967   0.935  0.00  0.00    +0.111 C 
ATOM     10  H   UNL     1       1.196  -7.545   0.870  0.00  0.00    +0.150 HD
ENDROOT
BRANCH   7  11
ATOM     11  N   UNL     1      -4.340  -7.567  -1.101  0.00  0.00    -0.312 N 
ATOM     12  C   UNL     1      -5.063  -8.693  -1.265  0.00  0.00    +0.216 C 
ATOM     13  O   UNL     1      -4.971  -9.595  -0.460  0.00  0.00    -0.276 OA
ATOM     14  H   UNL     1      -4.413  -6.846  -1.745  0.00  0.00    +0.149 HD
BRANCH  12  15
ATOM     15  C   UNL     1      -5.985  -8.830  -2.449  0.00  0.00    +0.075 C 
ATOM     16  C   UNL     1      -7.036  -7.718  -2.408  0.00  0.00    +0.013 C 
ATOM     17  C   UNL     1      -7.972  -7.858  -3.610  0.00  0.00    +0.001 C 
ATOM     18  C   UNL     1      -8.668  -9.219  -3.560  0.00  0.00    +0.000 C 
ATOM     19  C   UNL     1      -7.617 -10.331  -3.600  0.00  0.00    +0.001 C 
ATOM     20  C   UNL     1      -6.681 -10.192  -2.398  0.00  0.00    +0.013 C 
ENDBRANCH  12  15
ENDBRANCH   7  11
BRANCH   1  21
ATOM     21  C   UNL     1       2.533  -5.927   1.192  0.00  0.00    +0.055 C 
ATOM     22  C   UNL     1       2.730  -5.118  -0.092  0.00  0.00    +0.026 C 
BRANCH  21  23
ATOM     23  C   UNL     1       3.656  -6.959   1.321  0.00  0.00    -0.057 C 
BRANCH  23  29
ATOM     24  C   UNL     1       3.289  -6.985   6.202  0.00  0.00    +0.005 C 
ATOM     25  C   UNL     1       3.181  -7.839   4.938  0.00  0.00    -0.031 C 
ATOM     26  C   UNL     1       4.170  -9.005   5.023  0.00  0.00    -0.001 C 
ATOM     27  C   UNL     1       4.110  -9.809   3.720  0.00  0.00    -0.018 C 
ATOM     28  C   UNL     1       4.408  -8.880   2.541  0.00  0.00    -0.079 C 
ATOM     29  N   UNL     1       3.413  -7.802   2.499  0.00  0.00    +0.381 N 
ATOM     30  C   UNL     1       3.513  -6.984   3.713  0.00  0.00    -0.076 C 
ATOM     31  H   UNL     1       2.488  -8.201   2.439  0.00  0.00    -0.082 HD
ENDBRANCH  23  29
ENDBRANCH  21  23
ENDBRANCH   1  21
TORSDOF 5
