REMARK  Name = ZINC39400671
REMARK  9 active torsions:
REMARK  status: ('A' for Active; 'I' for Inactive)
REMARK    1  A    between atoms: C_1  and  O_2
REMARK    2  A    between atoms: O_2  and  C_3
REMARK    3  A    between atoms: C_6  and  C_9
REMARK    4  A    between atoms: C_13  and  C_15
REMARK    5  A    between atoms: C_15  and  N_16
REMARK    6  A    between atoms: C_19  and  C_22
REMARK    7  A    between atoms: C_22  and  C_29
REMARK    8  A    between atoms: C_29  and  C_30
REMARK    9  A    between atoms: C_30  and  C_31
REMARK                            x       y       z     vdW  Elec       q    Type
REMARK                         _______ _______ _______ _____ _____    ______ ____
ROOT
ATOM      1  N   UNL     1      -4.748  -6.213   1.208  0.00  0.00    +0.380 N 
ATOM      2  C   UNL     1      -3.951  -6.720   0.084  0.00  0.00    -0.078 C 
ATOM      3  C   UNL     1      -4.164  -8.229  -0.057  0.00  0.00    -0.013 C 
ATOM      4  C   UNL     1      -3.726  -8.924   1.236  0.00  0.00    +0.018 C 
ATOM      5  C   UNL     1      -4.511  -8.334   2.411  0.00  0.00    -0.013 C 
ATOM      6  C   UNL     1      -4.285  -6.822   2.461  0.00  0.00    -0.078 C 
ATOM      7  H   UNL     1      -5.719  -6.445   1.061  0.00  0.00    -0.082 HD
ENDROOT
BRANCH   4   8
ATOM      8  C   UNL     1      -4.010 -10.424   1.132  0.00  0.00    +0.115 C 
ATOM      9  C   UNL     1      -3.353 -11.006  -0.104  0.00  0.00    +0.244 C 
ATOM     10  O   UNL     1      -2.168 -11.036  -0.359  0.00  0.00    -0.273 OA
ATOM     11  N   UNL     1      -4.361 -11.486  -0.860  0.00  0.00    -0.238 N 
ATOM     12  C   UNL     1      -5.550 -11.289  -0.279  0.00  0.00    +0.307 C 
ATOM     13  O   UNL     1      -6.607 -11.636  -0.770  0.00  0.00    -0.252 OA
ATOM     14  N   UNL     1      -5.446 -10.665   0.908  0.00  0.00    -0.285 N 
ATOM     15  H   UNL     1      -4.239 -11.920  -1.719  0.00  0.00    +0.159 HD
ATOM     16  H   UNL     1      -6.174 -10.422   1.501  0.00  0.00    +0.151 HD
BRANCH   8  17
ATOM     17  C   UNL     1      -3.532 -11.149   2.392  0.00  0.00    +0.040 C 
BRANCH  17  18
ATOM     18  C   UNL     1      -3.828 -12.644   2.263  0.00  0.00    +0.038 C 
BRANCH  18  19
ATOM     19  C   UNL     1      -3.357 -13.358   3.503  0.00  0.00    -0.047 A 
ATOM     20  C   UNL     1      -2.067 -13.849   3.571  0.00  0.00    +0.003 A 
ATOM     21  C   UNL     1      -1.635 -14.504   4.710  0.00  0.00    +0.000 A 
ATOM     22  C   UNL     1      -2.494 -14.668   5.780  0.00  0.00    +0.000 A 
ATOM     23  C   UNL     1      -3.784 -14.176   5.713  0.00  0.00    +0.000 A 
ATOM     24  C   UNL     1      -4.214 -13.518   4.576  0.00  0.00    +0.003 A 
ENDBRANCH  18  19
ENDBRANCH  17  18
ENDBRANCH   8  17
ENDBRANCH   4   8
BRANCH   1  25
ATOM     25  C   UNL     1      -4.601  -4.754   1.290  0.00  0.00    -0.063 C 
BRANCH  25  30
ATOM     26  C   UNL     1      -4.952  -2.614   0.037  0.00  0.00    +0.077 C 
ATOM     27  N   UNL     1      -6.134  -2.060   0.041  0.00  0.00    -0.153 NA
ATOM     28  N   UNL     1      -7.156  -3.003   0.050  0.00  0.00    -0.161 NA
ATOM     29  C   UNL     1      -6.709  -4.217   0.051  0.00  0.00    +0.115 C 
ATOM     30  C   UNL     1      -5.197  -4.110   0.037  0.00  0.00    +0.066 C 
BRANCH  26  34
ATOM     31  C   UNL     1      -1.199  -0.637   0.010  0.00  0.00    +0.120 A 
ATOM     32  C   UNL     1      -2.373   0.107   0.020  0.00  0.00    +0.046 A 
ATOM     33  C   UNL     1      -3.594  -0.530   0.028  0.00  0.00    +0.013 A 
ATOM     34  C   UNL     1      -3.651  -1.929   0.027  0.00  0.00    -0.001 A 
ATOM     35  C   UNL     1      -2.466  -2.672   0.017  0.00  0.00    +0.013 A 
ATOM     36  C   UNL     1      -1.250  -2.026   0.003  0.00  0.00    +0.046 A 
BRANCH  31  38
ATOM     37  C   UNL     1      -0.017   1.425   0.010  0.00  0.00    +0.277 C 
ATOM     38  O   UNL     1       0.002  -0.004   0.002  0.00  0.00    -0.495 OA
ENDBRANCH  31  38
ENDBRANCH  26  34
ENDBRANCH  25  30
ENDBRANCH   1  25
TORSDOF 8
