REMARK  Name = ZINC02759068
REMARK  9 active torsions:
REMARK  status: ('A' for Active; 'I' for Inactive)
REMARK    1  A    between atoms: C_1  and  C_2
REMARK    2  A    between atoms: C_2  and  C_3
REMARK    3  A    between atoms: C_3  and  O_4
REMARK    4  A    between atoms: O_4  and  C_5
REMARK    5  A    between atoms: C_8  and  C_13
REMARK    6  A    between atoms: C_10  and  O_11
REMARK    7  A    between atoms: O_11  and  C_12
REMARK    8  A    between atoms: N_14  and  N_15
REMARK    9  A    between atoms: C_16  and  C_18
REMARK                            x       y       z     vdW  Elec       q    Type
REMARK                         _______ _______ _______ _____ _____    ______ ____
ROOT
ATOM      1  C   UNL     1      -1.302   2.115   0.020  0.00  0.00    +0.138 C 
ATOM      2  N   UNL     1      -1.318   3.413   0.027  0.00  0.00    -0.187 NA
ENDROOT
BRANCH   1   6
ATOM      3  C   UNL     1       2.405   0.041  -0.021  0.00  0.00    +0.162 A 
ATOM      4  C   UNL     1       2.387   1.428  -0.013  0.00  0.00    +0.050 A 
ATOM      5  C   UNL     1       1.186   2.105   0.002  0.00  0.00    +0.013 A 
ATOM      6  C   UNL     1      -0.017   1.393   0.010  0.00  0.00    -0.002 A 
ATOM      7  C   UNL     1       0.002  -0.004   0.002  0.00  0.00    +0.059 A 
ATOM      8  C   UNL     1       1.210  -0.675  -0.013  0.00  0.00    +0.162 A 
BRANCH   8   9
ATOM      9  O   UNL     1       1.232  -2.035  -0.020  0.00  0.00    -0.491 OA
ATOM     10  C   UNL     1      -0.030  -2.705  -0.011  0.00  0.00    +0.277 C 
ENDBRANCH   8   9
BRANCH   3  11
ATOM     11  O   UNL     1       3.592  -0.622  -0.036  0.00  0.00    -0.488 OA
BRANCH  11  12
ATOM     12  C   UNL     1       4.779   0.174  -0.043  0.00  0.00    +0.229 C 
BRANCH  12  14
ATOM     13  C   UNL     1       7.277   0.112  -0.067  0.00  0.00    +0.007 C 
ATOM     14  C   UNL     1       6.006  -0.740  -0.059  0.00  0.00    +0.038 C 
ENDBRANCH  12  14
ENDBRANCH  11  12
ENDBRANCH   3  11
ENDBRANCH   1   6
BRANCH   2  15
ATOM     15  N   UNL     1      -2.540   4.098   0.036  0.00  0.00    -0.202 N 
ATOM     16  C   UNL     1      -2.556   5.446   0.044  0.00  0.00    +0.271 C 
ATOM     17  O   UNL     1      -1.509   6.067   0.042  0.00  0.00    -0.268 OA
ATOM     18  H   UNL     1      -3.374   3.603   0.038  0.00  0.00    +0.178 HD
BRANCH  16  19
ATOM     19  C   UNL     1      -3.836   6.164   0.054  0.00  0.00    +0.095 A 
ATOM     20  C   UNL     1      -4.054   7.508   0.068  0.00  0.00    +0.068 A 
ATOM     21  C   UNL     1      -5.372   8.004   0.072  0.00  0.00    +0.008 A 
ATOM     22  C   UNL     1      -5.801   9.356   0.082  0.00  0.00    +0.010 A 
ATOM     23  C   UNL     1      -7.123   9.665   0.092  0.00  0.00    +0.001 A 
ATOM     24  C   UNL     1      -8.102   8.679   0.091  0.00  0.00    +0.001 A 
ATOM     25  C   UNL     1      -7.728   7.350   0.081  0.00  0.00    +0.016 A 
ATOM     26  C   UNL     1      -6.390   7.021   0.072  0.00  0.00    +0.021 A 
ATOM     27  S   UNL     1      -5.489   5.492   0.059  0.00  0.00    -0.082 S 
ATOM     28 CL   UNL     1      -2.711   8.608   0.075  0.00  0.00    -0.082 Cl
ENDBRANCH  16  19
ENDBRANCH   2  15
TORSDOF 7
