REMARK  Name = ZINC39638520
REMARK  8 active torsions:
REMARK  status: ('A' for Active; 'I' for Inactive)
REMARK    1  A    between atoms: C_1  and  O_2
REMARK    2  A    between atoms: O_2  and  C_3
REMARK    3  A    between atoms: C_7  and  C_11
REMARK    4  A    between atoms: C_8  and  O_9
REMARK    5  A    between atoms: O_9  and  C_10
REMARK    6  A    between atoms: C_11  and  N_12
REMARK    7  A    between atoms: C_13  and  C_15
REMARK    8  A    between atoms: C_26  and  C_28
REMARK                            x       y       z     vdW  Elec       q    Type
REMARK                         _______ _______ _______ _____ _____    ______ ____
ROOT
ATOM      1  C   UNL     1      -0.310  -4.943  -4.489  0.00  0.00    +0.100 C 
ATOM      2  C   UNL     1      -0.260  -4.060  -5.755  0.00  0.00    +0.121 C 
ATOM      3  N   UNL     1       0.423  -4.897  -6.769  0.00  0.00    -0.296 N 
ATOM      4  C   UNL     1      -0.114  -6.261  -6.543  0.00  0.00    +0.115 C 
ATOM      5  C   UNL     1      -0.217  -6.387  -5.010  0.00  0.00    -0.004 C 
ATOM      6  C   UNL     1      -1.471  -7.168  -4.628  0.00  0.00    -0.010 C 
ATOM      7  C   UNL     1      -1.330  -8.616  -5.106  0.00  0.00    -0.082 C 
ATOM      8  N   UNL     1      -0.144  -9.224  -4.491  0.00  0.00    +0.379 N 
ATOM      9  C   UNL     1       1.066  -8.523  -4.938  0.00  0.00    -0.082 C 
ATOM     10  C   UNL     1       1.027  -7.072  -4.453  0.00  0.00    -0.010 C 
ATOM     11  C   UNL     1       1.327  -4.508  -7.690  0.00  0.00    +0.252 C 
ATOM     12  O   UNL     1       1.800  -5.322  -8.460  0.00  0.00    -0.270 OA
ATOM     13  H   UNL     1      -0.217  -9.159  -3.486  0.00  0.00    -0.086 HD
ATOM     14  H   UNL     1      -0.088 -10.195  -4.759  0.00  0.00    -0.086 HD
ENDROOT
BRANCH  11  15
ATOM     15  C   UNL     1       1.742  -3.094  -7.764  0.00  0.00    +0.108 A 
ATOM     16  C   UNL     1       2.837  -2.643  -7.019  0.00  0.00    +0.138 A 
ATOM     17  C   UNL     1       3.220  -1.317  -7.094  0.00  0.00    +0.041 A 
ATOM     18  C   UNL     1       2.524  -0.436  -7.902  0.00  0.00    +0.026 A 
ATOM     19  C   UNL     1       1.440  -0.874  -8.642  0.00  0.00    +0.077 A 
ATOM     20  C   UNL     1       1.046  -2.199  -8.583  0.00  0.00    +0.156 A 
ATOM     21  F   UNL     1      -0.009  -2.626  -9.310  0.00  0.00    -0.203 F 
ATOM     22 CL   UNL     1       0.574   0.242  -9.651  0.00  0.00    -0.081 Cl
ATOM     23  F   UNL     1       3.519  -3.501  -6.229  0.00  0.00    -0.205 F 
ENDBRANCH  11  15
BRANCH   1  25
ATOM     24  N   UNL     1       0.764  -4.857  -2.262  0.00  0.00    -0.311 N 
ATOM     25  C   UNL     1       0.859  -4.635  -3.588  0.00  0.00    +0.218 C 
ATOM     26  O   UNL     1       1.884  -4.187  -4.056  0.00  0.00    -0.275 OA
ATOM     27  H   UNL     1      -0.028  -5.280  -1.896  0.00  0.00    +0.149 HD
BRANCH  24  28
ATOM     28  C   UNL     1       1.858  -4.459  -1.373  0.00  0.00    +0.143 C 
BRANCH  28  33
ATOM     29  C   UNL     1       1.137  -6.179   1.921  0.00  0.00    +0.162 A 
ATOM     30  C   UNL     1       0.702  -5.114   2.694  0.00  0.00    +0.049 A 
ATOM     31  C   UNL     1       0.643  -3.844   2.150  0.00  0.00    +0.004 A 
ATOM     32  C   UNL     1       1.017  -3.634   0.836  0.00  0.00    +0.009 A 
ATOM     33  C   UNL     1       1.452  -4.692   0.059  0.00  0.00    +0.015 A 
ATOM     34  C   UNL     1       1.519  -5.966   0.600  0.00  0.00    +0.166 A 
BRANCH  29  36
ATOM     35  C   UNL     1       0.788  -7.572   3.817  0.00  0.00    +0.277 C 
ATOM     36  O   UNL     1       1.196  -7.428   2.455  0.00  0.00    -0.491 OA
ENDBRANCH  29  36
BRANCH  34  37
ATOM     37  O   UNL     1       1.952  -7.007  -0.160  0.00  0.00    -0.491 OA
ATOM     38  C   UNL     1       0.953  -7.800  -0.804  0.00  0.00    +0.277 C 
ENDBRANCH  34  37
ENDBRANCH  28  33
ENDBRANCH  24  28
ENDBRANCH   1  25
TORSDOF 6
