REMARK  Name = ZINC16955420
REMARK  9 active torsions:
REMARK  status: ('A' for Active; 'I' for Inactive)
REMARK    1  A    between atoms: C_1  and  C_2
REMARK    2  A    between atoms: C_2  and  C_35
REMARK    3  A    between atoms: N_7  and  C_8
REMARK    4  A    between atoms: C_11  and  O_15
REMARK    5  A    between atoms: O_15  and  C_16
REMARK    6  A    between atoms: C_16  and  C_17
REMARK    7  A    between atoms: C_21  and  C_23
REMARK    8  A    between atoms: N_25  and  C_26
REMARK    9  A    between atoms: N_25  and  C_27
REMARK                            x       y       z     vdW  Elec       q    Type
REMARK                         _______ _______ _______ _____ _____    ______ ____
ROOT
ATOM      1  C   UNL     1       0.630   1.712   2.419  0.00  0.00    +0.040 A 
ATOM      2  C   UNL     1       0.918   3.068   2.510  0.00  0.00    +0.027 A 
ATOM      3  C   UNL     1       1.981   3.498   3.279  0.00  0.00    +0.049 A 
ATOM      4  C   UNL     1       2.762   2.577   3.960  0.00  0.00    +0.139 A 
ATOM      5  C   UNL     1       2.476   1.222   3.870  0.00  0.00    +0.084 A 
ATOM      6  C   UNL     1       1.409   0.791   3.105  0.00  0.00    +0.047 A 
ATOM      7 CL   UNL     1       3.455   0.069   4.723  0.00  0.00    -0.080 Cl
ENDROOT
BRANCH   1  14
ATOM      8  C   UNL     1       1.212   0.328   0.101  0.00  0.00    +0.056 C 
ATOM      9  C   UNL     1      -0.255   0.323   0.536  0.00  0.00    +0.109 C 
ATOM     10  N   UNL     1      -1.105   0.738  -0.586  0.00  0.00    -0.337 N 
ATOM     11  C   UNL     1      -2.201   1.415  -0.369  0.00  0.00    +0.191 C 
ATOM     12  N   UNL     1      -2.571   1.794   0.866  0.00  0.00    -0.187 NA
ATOM     13  C   UNL     1      -1.727   1.723   1.879  0.00  0.00    +0.189 C 
ATOM     14  N   UNL     1      -0.449   1.276   1.639  0.00  0.00    -0.250 N 
ATOM     15  N   UNL     1      -2.116   2.086   3.138  0.00  0.00    -0.331 N 
ATOM     16  N   UNL     1      -3.002   1.752  -1.441  0.00  0.00    -0.329 N 
ATOM     17  C   UNL     1      -0.652  -1.083   0.993  0.00  0.00    +0.056 C 
ATOM     18  H   UNL     1      -3.039   2.331   3.309  0.00  0.00    +0.145 HD
ATOM     19  H   UNL     1      -1.469   2.098   3.861  0.00  0.00    +0.145 HD
ATOM     20  H   UNL     1      -2.749   1.486  -2.339  0.00  0.00    +0.145 HD
ATOM     21  H   UNL     1      -3.819   2.255  -1.297  0.00  0.00    +0.145 HD
ATOM     22  H   UNL     1      -0.851   0.508  -1.494  0.00  0.00    +0.164 HD
ENDBRANCH   1  14
BRANCH   4  23
ATOM     23  O   UNL     1       3.809   3.002   4.717  0.00  0.00    -0.486 OA
BRANCH  23  24
ATOM     24  C   UNL     1       4.046   4.410   4.765  0.00  0.00    +0.264 C 
BRANCH  24  25
ATOM     25  C   UNL     1       5.237   4.690   5.645  0.00  0.00    -0.010 A 
ATOM     26  C   UNL     1       5.059   4.902   7.001  0.00  0.00    +0.007 A 
ATOM     27  C   UNL     1       6.147   5.160   7.816  0.00  0.00    +0.001 A 
ATOM     28  C   UNL     1       7.418   5.207   7.281  0.00  0.00    +0.013 A 
ATOM     29  C   UNL     1       7.604   4.993   5.914  0.00  0.00    +0.038 A 
ATOM     30  C   UNL     1       6.503   4.728   5.098  0.00  0.00    +0.020 A 
BRANCH  29  31
ATOM     31  C   UNL     1       8.963   5.042   5.334  0.00  0.00    +0.251 C 
ATOM     32  O   UNL     1       9.234   4.364   4.363  0.00  0.00    -0.270 OA
ATOM     33  N   UNL     1       9.902   5.839   5.883  0.00  0.00    -0.271 N 
ATOM     34  C   UNL     1       9.616   6.558   7.127  0.00  0.00    +0.138 C 
BRANCH  33  35
ATOM     35  C   UNL     1      11.148   5.980   5.264  0.00  0.00    +0.036 A 
ATOM     36  C   UNL     1      11.358   5.455   3.995  0.00  0.00    +0.023 A 
ATOM     37  C   UNL     1      12.590   5.596   3.387  0.00  0.00    +0.002 A 
ATOM     38  C   UNL     1      13.613   6.260   4.039  0.00  0.00    +0.000 A 
ATOM     39  C   UNL     1      13.407   6.784   5.302  0.00  0.00    +0.002 A 
ATOM     40  C   UNL     1      12.175   6.651   5.914  0.00  0.00    +0.023 A 
ENDBRANCH  33  35
ENDBRANCH  29  31
ENDBRANCH  24  25
ENDBRANCH  23  24
ENDBRANCH   4  23
TORSDOF 6
