REMARK  Name = ZINC16564658
REMARK  7 active torsions:
REMARK  status: ('A' for Active; 'I' for Inactive)
REMARK    1  A    between atoms: C_1  and  C_2
REMARK    2  A    between atoms: C_2  and  C_4
REMARK    3  A    between atoms: C_2  and  N_14
REMARK    4  A    between atoms: N_6  and  C_7
REMARK    5  A    between atoms: N_6  and  C_8
REMARK    6  A    between atoms: N_17  and  C_20
REMARK    7  A    between atoms: C_25  and  N_26
REMARK                            x       y       z     vdW  Elec       q    Type
REMARK                         _______ _______ _______ _____ _____    ______ ____
ROOT
ATOM      1  N   UNL     1       0.686  -0.466  -1.213  0.00  0.00    -0.289 NA
ATOM      2  C   UNL     1       0.077   0.106  -2.422  0.00  0.00    +0.104 C 
ATOM      3  C   UNL     1       0.699  -0.547  -3.661  0.00  0.00    +0.120 C 
ATOM      4  N   UNL     1       2.161  -0.410  -3.576  0.00  0.00    -0.326 N 
ATOM      5  C   UNL     1       2.830  -0.835  -2.337  0.00  0.00    +0.120 C 
ATOM      6  C   UNL     1       2.123  -0.171  -1.151  0.00  0.00    +0.104 C 
ENDROOT
BRANCH   4   7
ATOM      7  C   UNL     1       2.895   0.110  -4.645  0.00  0.00    +0.060 A 
ATOM      8  C   UNL     1       3.136   1.476  -4.725  0.00  0.00    +0.025 A 
ATOM      9  C   UNL     1       3.863   1.986  -5.782  0.00  0.00    +0.002 A 
ATOM     10  C   UNL     1       4.350   1.139  -6.761  0.00  0.00    +0.002 A 
ATOM     11  C   UNL     1       4.112  -0.220  -6.685  0.00  0.00    +0.034 A 
ATOM     12  C   UNL     1       3.391  -0.738  -5.627  0.00  0.00    +0.147 A 
BRANCH  12  13
ATOM     13  N   UNL     1       3.142  -2.195  -5.543  0.00  0.00    +0.058 N 
ATOM     14  O   UNL     1       3.573  -2.932  -6.398  0.00  0.00    -0.126 OA
ATOM     15  O   UNL     1       2.506  -2.647  -4.619  0.00  0.00    -0.126 OA
ENDBRANCH  12  13
ENDBRANCH   4   7
BRANCH   1  17
ATOM     16  C   UNL     1      -0.032   1.536   0.001  0.00  0.00    +0.034 C 
ATOM     17  C   UNL     1      -0.002   0.007  -0.004  0.00  0.00    +0.141 C 
BRANCH  17  18
ATOM     18  C   UNL     1      -1.412  -0.523   0.011  0.00  0.00    +0.237 C 
ATOM     19  O   UNL     1      -1.806  -1.225  -0.896  0.00  0.00    -0.274 OA
ATOM     20  N   UNL     1      -2.236  -0.217   1.033  0.00  0.00    -0.273 N 
ATOM     21  C   UNL     1      -1.727   0.530   2.186  0.00  0.00    +0.138 C 
BRANCH  20  22
ATOM     22  C   UNL     1      -3.578  -0.613   0.993  0.00  0.00    +0.036 A 
ATOM     23  C   UNL     1      -3.906  -1.962   1.020  0.00  0.00    +0.023 A 
ATOM     24  C   UNL     1      -5.231  -2.349   0.981  0.00  0.00    +0.002 A 
ATOM     25  C   UNL     1      -6.231  -1.395   0.914  0.00  0.00    +0.000 A 
ATOM     26  C   UNL     1      -5.907  -0.051   0.886  0.00  0.00    +0.002 A 
ATOM     27  C   UNL     1      -4.584   0.343   0.931  0.00  0.00    +0.023 A 
ENDBRANCH  20  22
ENDBRANCH  17  18
ENDBRANCH   1  17
TORSDOF 5
