REMARK  Name = ZINC13644298
REMARK  5 active torsions:
REMARK  status: ('A' for Active; 'I' for Inactive)
REMARK    1  A    between atoms: C_1  and  N_2
REMARK    2  A    between atoms: N_2  and  C_3
REMARK    3  A    between atoms: N_2  and  C_4
REMARK    4  A    between atoms: C_7  and  C_10
REMARK    5  A    between atoms: C_23  and  C_26
REMARK                            x       y       z     vdW  Elec       q    Type
REMARK                         _______ _______ _______ _____ _____    ______ ____
ROOT
ATOM      1  C   UNL     1       2.520   1.069   0.033  0.00  0.00    +0.105 C 
ATOM      2  C   UNL     1       3.121   1.036   1.423  0.00  0.00    +0.029 C 
ATOM      3  C   UNL     1       2.366   0.269   2.515  0.00  0.00    +0.033 C 
ATOM      4  C   UNL     1       3.515  -0.182   3.420  0.00  0.00    -0.030 C 
ATOM      5  C   UNL     1       4.638  -0.273   2.715  0.00  0.00    -0.023 C 
ATOM      6  C   UNL     1       4.336   0.065   1.303  0.00  0.00    +0.049 C 
ATOM      7  C   UNL     1       5.316   0.717   0.407  0.00  0.00    -0.019 A 
ATOM      8  C   UNL     1       6.673   0.549   0.573  0.00  0.00    +0.006 A 
ATOM      9  C   UNL     1       7.574   1.158  -0.285  0.00  0.00    +0.001 A 
ATOM     10  C   UNL     1       7.113   1.940  -1.321  0.00  0.00    +0.015 A 
ATOM     11  C   UNL     1       5.744   2.123  -1.503  0.00  0.00    +0.058 A 
ATOM     12  C   UNL     1       4.820   1.517  -0.626  0.00  0.00    +0.044 A 
ATOM     13  N   UNL     1       3.476   1.774  -0.835  0.00  0.00    -0.336 N 
ATOM     14  H   UNL     1       3.233   1.660  -1.808  0.00  0.00    +0.147 HD
ENDROOT
BRANCH  11  15
ATOM     15  C   UNL     1       5.258   2.956  -2.618  0.00  0.00    +0.248 C 
ATOM     16  O   UNL     1       4.500   3.882  -2.399  0.00  0.00    -0.270 OA
ATOM     17  N   UNL     1       5.654   2.692  -3.878  0.00  0.00    -0.297 N 
ATOM     18  C   UNL     1       6.472   1.508  -4.174  0.00  0.00    +0.108 C 
ATOM     19  C   UNL     1       5.780   0.700  -5.282  0.00  0.00    +0.019 C 
ATOM     20  C   UNL     1       5.531   1.609  -6.488  0.00  0.00    +0.003 C 
ATOM     21  C   UNL     1       4.606   2.758  -6.081  0.00  0.00    +0.019 C 
ATOM     22  C   UNL     1       5.280   3.586  -4.983  0.00  0.00    +0.108 C 
ENDBRANCH  11  15
BRANCH   1  26
ATOM     23  C   UNL     1      -1.205   3.163   0.104  0.00  0.00    +0.029 A 
ATOM     24  C   UNL     1      -1.187   1.774   0.103  0.00  0.00    +0.023 A 
ATOM     25  C   UNL     1       0.018   1.101   0.086  0.00  0.00    +0.007 A 
ATOM     26  C   UNL     1       1.207   1.807   0.058  0.00  0.00    -0.027 A 
ATOM     27  C   UNL     1       1.193   3.190   0.054  0.00  0.00    +0.007 A 
ATOM     28  C   UNL     1      -0.009   3.870   0.077  0.00  0.00    +0.023 A 
BRANCH  23  30
ATOM     29  C   UNL     1      -2.439   5.313   0.123  0.00  0.00    +0.129 C 
ATOM     30  N   UNL     1      -2.422   3.848   0.128  0.00  0.00    -0.336 N 
ATOM     31  C   UNL     1      -3.682   3.101   0.157  0.00  0.00    +0.129 C 
ENDBRANCH  23  30
ENDBRANCH   1  26
TORSDOF 3
