REMARK  Name = ZINC00621500
REMARK  4 active torsions:
REMARK  status: ('A' for Active; 'I' for Inactive)
REMARK    1  A    between atoms: C_1  and  C_2
REMARK    2  A    between atoms: C_2  and  C_4
REMARK    3  A    between atoms: C_2  and  N_13
REMARK    4  A    between atoms: N_16  and  C_17
REMARK                            x       y       z     vdW  Elec       q    Type
REMARK                         _______ _______ _______ _____ _____    ______ ____
ROOT
ATOM      1  N   UNL     1      -1.366  -0.528   0.010  0.00  0.00    -0.293 N 
ATOM      2  C   UNL     1      -2.048  -0.649  -1.146  0.00  0.00    +0.304 C 
ATOM      3  O   UNL     1      -1.522  -0.344  -2.198  0.00  0.00    -0.252 OA
ATOM      4  N   UNL     1      -3.315  -1.109  -1.135  0.00  0.00    -0.267 N 
ATOM      5  H   UNL     1      -1.786  -0.771   0.849  0.00  0.00    +0.151 HD
ATOM      6  H   UNL     1      -3.714  -1.414  -0.305  0.00  0.00    +0.156 HD
ENDROOT
BRANCH   4   7
ATOM      7  C   UNL     1      -4.057  -1.148  -2.324  0.00  0.00    +0.070 A 
ATOM      8  C   UNL     1      -3.426  -1.425  -3.528  0.00  0.00    +0.029 A 
ATOM      9  C   UNL     1      -4.159  -1.463  -4.699  0.00  0.00    +0.040 A 
ATOM     10  C   UNL     1      -5.523  -1.224  -4.672  0.00  0.00    +0.126 A 
ATOM     11  C   UNL     1      -6.156  -0.947  -3.473  0.00  0.00    +0.078 A 
ATOM     12  C   UNL     1      -5.427  -0.914  -2.297  0.00  0.00    +0.147 A 
ATOM     13  F   UNL     1      -6.046  -0.649  -1.126  0.00  0.00    -0.203 F 
ATOM     14  F   UNL     1      -6.236  -1.262  -5.819  0.00  0.00    -0.205 F 
ENDBRANCH   4   7
BRANCH   1  16
ATOM     15  C   UNL     1      -0.001   1.502   0.015  0.00  0.00    +0.033 C 
ATOM     16  C   UNL     1       0.011  -0.028  -0.002  0.00  0.00    +0.102 C 
BRANCH  16  17
ATOM     17  C   UNL     1       0.741  -0.538   1.214  0.00  0.00    -0.024 A 
ATOM     18  C   UNL     1       0.093  -0.596   2.433  0.00  0.00    +0.009 A 
ATOM     19  C   UNL     1       0.758  -1.064   3.551  0.00  0.00    +0.050 A 
ATOM     20  C   UNL     1       2.078  -1.475   3.452  0.00  0.00    +0.166 A 
ATOM     21  C   UNL     1       2.731  -1.417   2.223  0.00  0.00    +0.167 A 
ATOM     22  C   UNL     1       2.056  -0.952   1.106  0.00  0.00    +0.055 A 
ATOM     23  O   UNL     1       4.007  -1.872   2.385  0.00  0.00    -0.453 OA
ATOM     24  C   UNL     1       4.255  -1.825   3.803  0.00  0.00    +0.466 C 
ATOM     25  O   UNL     1       2.945  -1.967   4.384  0.00  0.00    -0.453 OA
ENDBRANCH  16  17
ENDBRANCH   1  16
TORSDOF 3
