REMARK  Name = ZINC16492730
REMARK  5 active torsions:
REMARK  status: ('A' for Active; 'I' for Inactive)
REMARK    1  A    between atoms: C_5  and  N_7
REMARK    2  A    between atoms: C_16  and  C_20
REMARK    3  A    between atoms: N_22  and  C_23
REMARK    4  A    between atoms: C_23  and  C_24
REMARK    5  A    between atoms: C_24  and  C_25
REMARK                            x       y       z     vdW  Elec       q    Type
REMARK                         _______ _______ _______ _____ _____    ______ ____
ROOT
ATOM      1  N   UNL     1       1.241  -2.081  -0.016  0.00  0.00    -0.267 N 
ATOM      2  C   UNL     1       2.413  -2.735  -0.137  0.00  0.00    +0.307 C 
ATOM      3  O   UNL     1       3.458  -2.112  -0.148  0.00  0.00    -0.252 OA
ATOM      4  N   UNL     1       2.428  -4.078  -0.245  0.00  0.00    -0.285 N 
ATOM      5  C   UNL     1       1.172  -4.834  -0.342  0.00  0.00    +0.109 C 
ATOM      6  C   UNL     1       1.229  -5.713  -1.603  0.00  0.00    +0.017 C 
ATOM      7  C   UNL     1       2.494  -6.559  -1.573  0.00  0.00    -0.016 C 
ATOM      8  C   UNL     1       3.743  -5.692  -1.518  0.00  0.00    +0.017 C 
ATOM      9  C   UNL     1       3.701  -4.813  -0.263  0.00  0.00    +0.109 C 
ATOM     10  C   UNL     1       2.624  -8.930  -0.829  0.00  0.00    +0.028 C 
ATOM     11  C   UNL     1       2.029  -9.201  -2.243  0.00  0.00    +0.061 C 
ATOM     12  S   UNL     1       2.553  -7.630  -3.066  0.00  0.00    -0.174 S 
ATOM     13  H   UNL     1       0.414  -2.581   0.077  0.00  0.00    +0.156 HD
ATOM     14  N   UNL     1       2.459  -7.507  -0.416  0.00  0.00    +0.397 N 
ATOM     15  H   UNL     1       1.556  -7.407   0.062  0.00  0.00    -0.083 HD
ATOM     16  H   UNL     1       3.218  -7.263   0.231  0.00  0.00    -0.083 HD
ENDROOT
BRANCH   1  21
ATOM     17  C   UNL     1       2.205   1.411  -0.651  0.00  0.00    +0.002 A 
ATOM     18  C   UNL     1       1.165   2.087  -0.039  0.00  0.00    +0.003 A 
ATOM     19  C   UNL     1       0.149   1.383   0.582  0.00  0.00    +0.040 A 
ATOM     20  C   UNL     1       0.171   0.000   0.591  0.00  0.00    +0.145 A 
ATOM     21  C   UNL     1       1.215  -0.681  -0.024  0.00  0.00    +0.070 A 
ATOM     22  C   UNL     1       2.232   0.030  -0.645  0.00  0.00    +0.026 A 
ATOM     23  F   UNL     1      -0.822  -0.687   1.197  0.00  0.00    -0.204 F 
ENDBRANCH   1  21
BRANCH  10  24
ATOM     24  C   UNL     1       1.912  -9.791   0.182  0.00  0.00    +0.200 C 
ATOM     25  O   UNL     1       1.290  -9.275   1.087  0.00  0.00    -0.278 OA
ATOM     26  N   UNL     1       1.966 -11.134   0.082  0.00  0.00    -0.316 N 
ATOM     27  H   UNL     1       2.463 -11.546  -0.642  0.00  0.00    +0.149 HD
BRANCH  26  28
ATOM     28  C   UNL     1       1.274 -11.970   1.065  0.00  0.00    +0.109 C 
BRANCH  28  29
ATOM     29  C   UNL     1       1.493 -13.446   0.724  0.00  0.00    +0.055 C 
BRANCH  29  30
ATOM     30  C   UNL     1       0.781 -14.306   1.735  0.00  0.00    -0.027 A 
ATOM     31  C   UNL     1      -0.448 -14.860   1.429  0.00  0.00    +0.006 A 
ATOM     32  C   UNL     1      -1.102 -15.650   2.356  0.00  0.00    +0.020 A 
ATOM     33  C   UNL     1      -0.526 -15.887   3.591  0.00  0.00    +0.042 A 
ATOM     34  C   UNL     1       0.704 -15.333   3.899  0.00  0.00    +0.040 A 
ATOM     35  C   UNL     1       1.360 -14.547   2.968  0.00  0.00    +0.046 A 
ATOM     36 CL   UNL     1       2.906 -13.857   3.351  0.00  0.00    -0.083 Cl
ATOM     37 CL   UNL     1      -1.347 -16.878   4.756  0.00  0.00    -0.083 Cl
ENDBRANCH  29  30
ENDBRANCH  28  29
ENDBRANCH  26  28
ENDBRANCH  10  24
TORSDOF 5
