REMARK  Name = ZINC63387270
REMARK  4 active torsions:
REMARK  status: ('A' for Active; 'I' for Inactive)
REMARK    1  A    between atoms: C_4  and  C_7
REMARK    2  A    between atoms: C_7  and  C_8
REMARK    3  A    between atoms: C_7  and  N_14
REMARK    4  A    between atoms: C_22  and  N_30
REMARK                            x       y       z     vdW  Elec       q    Type
REMARK                         _______ _______ _______ _____ _____    ______ ____
ROOT
ATOM      1  N   UNL     1       3.464  -1.791  -1.037  0.00  0.00    -0.289 NA
ATOM      2  C   UNL     1       2.897  -1.576  -2.375  0.00  0.00    +0.104 C 
ATOM      3  C   UNL     1       2.793  -2.920  -3.103  0.00  0.00    +0.121 C 
ATOM      4  N   UNL     1       4.115  -3.565  -3.084  0.00  0.00    -0.315 N 
ATOM      5  C   UNL     1       4.808  -3.693  -1.793  0.00  0.00    +0.121 C 
ATOM      6  C   UNL     1       4.833  -2.318  -1.116  0.00  0.00    +0.104 C 
ATOM      7  C   UNL     1       4.676  -4.029  -4.221  0.00  0.00    +0.110 C 
ATOM      8  N   UNL     1       4.122  -3.804  -5.396  0.00  0.00    -0.316 N 
ATOM      9  C   UNL     1       4.572  -4.342  -6.536  0.00  0.00    +0.212 C 
ATOM     10  N   UNL     1       5.404  -5.386  -6.546  0.00  0.00    -0.197 NA
ATOM     11  C   UNL     1       5.939  -5.748  -5.396  0.00  0.00    +0.166 C 
ATOM     12  N   UNL     1       6.465  -6.853  -4.941  0.00  0.00    -0.218 NA
ATOM     13  C   UNL     1       6.459  -6.875  -3.603  0.00  0.00    +0.218 C 
ATOM     14  N   UNL     1       6.126  -5.728  -3.072  0.00  0.00    -0.254 NA
ATOM     15  C   UNL     1       5.952  -4.809  -4.191  0.00  0.00    +0.235 C 
ATOM     16  H   UNL     1       3.348  -3.220  -5.436  0.00  0.00    +0.170 HD
ENDROOT
BRANCH   9  17
ATOM     17  N   UNL     1       4.165  -3.805  -7.728  0.00  0.00    -0.234 NA
ATOM     18  H   UNL     1       4.482  -4.184  -8.563  0.00  0.00    +0.173 HD
ENDBRANCH   9  17
BRANCH   1  19
ATOM     19  C   UNL     1       3.421  -0.556  -0.243  0.00  0.00    +0.117 C 
BRANCH  19  23
ATOM     20  C   UNL     1      -0.595   0.890  -0.077  0.00  0.00    +0.000 A 
ATOM     21  C   UNL     1       0.454   1.778  -0.227  0.00  0.00    +0.000 A 
ATOM     22  C   UNL     1       1.753   1.311  -0.280  0.00  0.00    +0.005 A 
ATOM     23  C   UNL     1       2.004  -0.045  -0.183  0.00  0.00    -0.026 A 
ATOM     24  C   UNL     1       0.956  -0.933  -0.033  0.00  0.00    +0.005 A 
ATOM     25  C   UNL     1      -0.344  -0.465   0.019  0.00  0.00    +0.000 A 
ENDBRANCH  19  23
BRANCH  19  26
ATOM     26  C   UNL     1       3.912  -0.839   1.154  0.00  0.00    -0.026 A 
ATOM     27  C   UNL     1       3.556  -2.016   1.786  0.00  0.00    +0.005 A 
ATOM     28  C   UNL     1       4.006  -2.276   3.067  0.00  0.00    +0.000 A 
ATOM     29  C   UNL     1       4.812  -1.359   3.716  0.00  0.00    +0.000 A 
ATOM     30  C   UNL     1       5.168  -0.182   3.083  0.00  0.00    +0.000 A 
ATOM     31  C   UNL     1       4.721   0.075   1.801  0.00  0.00    +0.005 A 
ENDBRANCH  19  26
ENDBRANCH   1  19
TORSDOF 4
