REMARK  Name = ZINC60106537
REMARK  10 active torsions:
REMARK  status: ('A' for Active; 'I' for Inactive)
REMARK    1  A    between atoms: C_1  and  C_2
REMARK    2  A    between atoms: C_7  and  N_8
REMARK    3  A    between atoms: C_11  and  C_13
REMARK    4  A    between atoms: N_15  and  N_16
REMARK    5  A    between atoms: C_17  and  C_19
REMARK    6  A    between atoms: C_19  and  C_21
REMARK    7  A    between atoms: C_19  and  O_22
REMARK    8  A    between atoms: O_22  and  C_23
REMARK    9  A    between atoms: C_27  and  C_30
REMARK   10  A    between atoms: C_28  and  C_29
REMARK                            x       y       z     vdW  Elec       q    Type
REMARK                         _______ _______ _______ _____ _____    ______ ____
ROOT
ATOM      1  C   UNL     1      -0.399   3.025   3.756  0.00  0.00    +0.281 C 
ATOM      2  O   UNL     1      -0.463   3.164   4.962  0.00  0.00    -0.267 OA
ATOM      3  N   UNL     1      -0.437   4.104   2.950  0.00  0.00    -0.229 N 
ATOM      4  H   UNL     1      -0.386   3.993   1.988  0.00  0.00    +0.173 HD
ENDROOT
BRANCH   1   8
ATOM      5  N   UNL     1      -0.106   0.103   1.738  0.00  0.00    -0.235 N 
ATOM      6  C   UNL     1      -0.118  -0.515   2.950  0.00  0.00    +0.049 A 
ATOM      7  C   UNL     1      -0.227   0.452   3.886  0.00  0.00    +0.006 A 
ATOM      8  C   UNL     1      -0.279   1.673   3.174  0.00  0.00    +0.152 A 
ATOM      9  N   UNL     1      -0.195   1.375   1.891  0.00  0.00    -0.161 NA
ATOM     10  C   UNL     1      -0.248  -0.150   5.269  0.00  0.00    +0.040 C 
ATOM     11  C   UNL     1      -0.567  -1.646   5.049  0.00  0.00    +0.011 C 
ATOM     12  C   UNL     1      -0.053  -1.874   3.610  0.00  0.00    +0.056 C 
BRANCH   5  19
ATOM     13  C   UNL     1      -1.929   0.831  -0.323  0.00  0.00    +0.046 C 
ATOM     14  C   UNL     1      -0.875  -0.227  -0.529  0.00  0.00    -0.025 A 
ATOM     15  C   UNL     1      -0.770  -0.870  -1.747  0.00  0.00    +0.005 A 
ATOM     16  C   UNL     1       0.196  -1.841  -1.937  0.00  0.00    +0.000 A 
ATOM     17  C   UNL     1       1.060  -2.170  -0.908  0.00  0.00    +0.002 A 
ATOM     18  C   UNL     1       0.960  -1.531   0.312  0.00  0.00    +0.028 A 
ATOM     19  C   UNL     1      -0.006  -0.552   0.503  0.00  0.00    +0.069 A 
ENDBRANCH   5  19
ENDBRANCH   1   8
BRANCH   3  20
ATOM     20  N   UNL     1      -0.550   5.387   3.502  0.00  0.00    -0.231 N 
ATOM     21  C   UNL     1      -0.588   6.467   2.696  0.00  0.00    +0.270 C 
ATOM     22  O   UNL     1      -0.524   6.328   1.493  0.00  0.00    -0.270 OA
ATOM     23  H   UNL     1      -0.601   5.498   4.464  0.00  0.00    +0.173 HD
BRANCH  21  24
ATOM     24  C   UNL     1      -0.710   7.846   3.290  0.00  0.00    +0.257 C 
ATOM     25  C   UNL     1       0.543   8.161   4.109  0.00  0.00    +0.062 C 
BRANCH  24  26
ATOM     26  O   UNL     1      -0.847   8.806   2.241  0.00  0.00    -0.480 OA
BRANCH  26  27
ATOM     27  C   UNL     1      -1.462   9.978   2.552  0.00  0.00    +0.125 A 
ATOM     28  C   UNL     1      -1.820  10.246   3.865  0.00  0.00    +0.046 A 
ATOM     29  C   UNL     1      -2.444  11.438   4.179  0.00  0.00    +0.004 A 
ATOM     30  C   UNL     1      -2.712  12.362   3.187  0.00  0.00    +0.004 A 
ATOM     31  C   UNL     1      -2.357  12.097   1.877  0.00  0.00    -0.044 A 
ATOM     32  C   UNL     1      -1.727  10.909   1.559  0.00  0.00    -0.006 A 
ATOM     33  C   UNL     1      -1.334  10.622   0.132  0.00  0.00    +0.048 C 
ATOM     34  C   UNL     1      -2.651  13.106   0.798  0.00  0.00    +0.044 C 
ENDBRANCH  26  27
ENDBRANCH  24  26
ENDBRANCH  21  24
ENDBRANCH   3  20
TORSDOF 6
