REMARK  Name = ZINC13064980
REMARK  13 active torsions:
REMARK  status: ('A' for Active; 'I' for Inactive)
REMARK    1  A    between atoms: C_1  and  C_2
REMARK    2  A    between atoms: C_2  and  C_3
REMARK    3  A    between atoms: C_3  and  C_5
REMARK    4  A    between atoms: C_3  and  N_73
REMARK    5  A    between atoms: N_9  and  C_10
REMARK    6  A    between atoms: C_10  and  C_11
REMARK    7  A    between atoms: C_11  and  C_12
REMARK    8  A    between atoms: C_18  and  C_19
REMARK    9  A    between atoms: C_18  and  N_73
REMARK   10  A    between atoms: C_22  and  C_32
REMARK   11  A    between atoms: C_24  and  C_31
REMARK   12  A    between atoms: C_33  and  C_34
REMARK   13  A    between atoms: C_33  and  N_73
REMARK                            x       y       z     vdW  Elec       q    Type
REMARK                         _______ _______ _______ _____ _____    ______ ____
ROOT
ATOM      1  N   UNL     1       1.232   4.033  -4.114  0.00  0.00    +0.391 N 
ATOM      2  H   UNL     1       0.406   4.193  -4.702  0.00  0.00    -0.080 HD
ENDROOT
BRANCH   1   3
ATOM      3  C   UNL     1       0.843   3.200  -2.957  0.00  0.00    +0.003 C 
BRANCH   3   4
ATOM      4  C   UNL     1       1.986   3.085  -1.980  0.00  0.00    +0.138 A 
ATOM      5  N   UNL     1       2.690   4.071  -1.480  0.00  0.00    -0.115 NA
ATOM      6  N   UNL     1       3.575   3.567  -0.691  0.00  0.00    -0.023 NA
ATOM      7  N   UNL     1       3.450   2.286  -0.671  0.00  0.00    -0.044 NA
ATOM      8  N   UNL     1       2.478   1.950  -1.450  0.00  0.00    -0.231 N 
BRANCH   8   9
ATOM      9  C   UNL     1       2.005   0.589  -1.714  0.00  0.00    +0.152 C 
BRANCH   9  10
ATOM     10  C   UNL     1       0.917   0.222  -0.703  0.00  0.00    +0.058 C 
BRANCH  10  11
ATOM     11  C   UNL     1       0.430  -1.178  -0.974  0.00  0.00    -0.046 A 
ATOM     12  C   UNL     1      -0.631  -1.386  -1.835  0.00  0.00    +0.004 A 
ATOM     13  C   UNL     1      -1.075  -2.670  -2.087  0.00  0.00    +0.000 A 
ATOM     14  C   UNL     1      -0.464  -3.746  -1.472  0.00  0.00    +0.000 A 
ATOM     15  C   UNL     1       0.595  -3.538  -0.607  0.00  0.00    +0.000 A 
ATOM     16  C   UNL     1       1.041  -2.254  -0.358  0.00  0.00    +0.004 A 
ENDBRANCH  10  11
ENDBRANCH   9  10
ENDBRANCH   8   9
ENDBRANCH   3   4
BRANCH   3  18
ATOM     17  C   UNL     1      -1.561   3.832  -3.207  0.00  0.00    +0.002 C 
ATOM     18  C   UNL     1      -0.357   3.847  -2.263  0.00  0.00    -0.011 C 
ENDBRANCH   3  18
ENDBRANCH   1   3
BRANCH   1  19
ATOM     19  C   UNL     1       1.748   5.337  -3.646  0.00  0.00    -0.036 C 
BRANCH  19  20
ATOM     20  C   UNL     1       1.778   6.292  -4.812  0.00  0.00    +0.001 A 
ATOM     21  C   UNL     1       0.725   7.116  -5.036  0.00  0.00    +0.017 A 
ATOM     22  C   UNL     1       0.786   8.035  -6.174  0.00  0.00    +0.002 A 
ATOM     23  C   UNL     1      -0.266   8.913  -6.453  0.00  0.00    -0.041 A 
ATOM     24  C   UNL     1      -0.180   9.755  -7.526  0.00  0.00    +0.007 A 
ATOM     25  C   UNL     1       0.943   9.746  -8.342  0.00  0.00    -0.048 A 
ATOM     26  C   UNL     1       1.992   8.890  -8.086  0.00  0.00    +0.029 A 
ATOM     27  C   UNL     1       1.927   8.024  -6.999  0.00  0.00    +0.050 A 
ATOM     28  N   UNL     1       2.961   7.157  -6.720  0.00  0.00    -0.322 N 
ATOM     29  H   UNL     1       3.747   7.151  -7.289  0.00  0.00    +0.169 HD
ATOM     30  C   UNL     1       2.898   6.320  -5.669  0.00  0.00    +0.251 A 
ATOM     31  O   UNL     1       3.832   5.567  -5.452  0.00  0.00    -0.268 OA
ATOM     32  C   UNL     1       1.016  10.684  -9.519  0.00  0.00    +0.044 C 
ATOM     33  C   UNL     1      -1.490   8.931  -5.574  0.00  0.00    +0.044 C 
ENDBRANCH  19  20
ENDBRANCH   1  19
BRANCH   1  34
ATOM     34  C   UNL     1       2.264   3.338  -4.912  0.00  0.00    -0.045 C 
BRANCH  34  35
ATOM     35  C   UNL     1       1.616   2.152  -5.629  0.00  0.00    +0.102 C 
ATOM     36  C   UNL     1       2.671   1.377  -6.448  0.00  0.00    +0.032 C 
ATOM     37  C   UNL     1       1.915   0.950  -7.726  0.00  0.00    +0.030 C 
ATOM     38  C   UNL     1       0.493   1.518  -7.529  0.00  0.00    +0.160 C 
ATOM     39  O   UNL     1       0.659   2.617  -6.607  0.00  0.00    -0.378 OA
ENDBRANCH  34  35
ENDBRANCH   1  34
TORSDOF 10
