REMARK  Name = ZINC04109056
REMARK  8 active torsions:
REMARK  status: ('A' for Active; 'I' for Inactive)
REMARK    1  A    between atoms: C_1  and  C_2
REMARK    2  A    between atoms: C_6  and  C_36
REMARK    3  A    between atoms: C_7  and  N_8
REMARK    4  A    between atoms: C_9  and  C_11
REMARK    5  A    between atoms: C_18  and  C_20
REMARK    6  A    between atoms: C_20  and  C_22
REMARK    7  A    between atoms: C_20  and  N_62
REMARK    8  A    between atoms: C_25  and  N_28
REMARK                            x       y       z     vdW  Elec       q    Type
REMARK                         _______ _______ _______ _____ _____    ______ ____
ROOT
ATOM      1  N   UNL     1      -1.774   3.260   0.128  0.00  0.00    -0.207 N 
ATOM      2  C   UNL     1      -2.122   2.008  -0.227  0.00  0.00    +0.257 C 
ATOM      3  O   UNL     1      -3.294   1.690  -0.263  0.00  0.00    -0.269 OA
ATOM      4  C   UNL     1      -2.717   4.132   0.537  0.00  0.00    +0.217 C 
ATOM      5  O   UNL     1      -3.886   3.810   0.524  0.00  0.00    -0.276 OA
ENDROOT
BRANCH   1  12
ATOM      6  C   UNL     1      -0.251   3.200   2.532  0.00  0.00    +0.046 C 
ATOM      7  C   UNL     1       0.347   3.642   1.222  0.00  0.00    -0.028 A 
ATOM      8  C   UNL     1       1.672   4.028   1.163  0.00  0.00    +0.005 A 
ATOM      9  C   UNL     1       2.221   4.440  -0.038  0.00  0.00    +0.001 A 
ATOM     10  C   UNL     1       1.447   4.461  -1.184  0.00  0.00    +0.005 A 
ATOM     11  C   UNL     1       0.123   4.071  -1.132  0.00  0.00    -0.028 A 
ATOM     12  C   UNL     1      -0.431   3.657   0.072  0.00  0.00    +0.050 A 
ATOM     13  C   UNL     1      -0.720   4.094  -2.381  0.00  0.00    +0.046 C 
ENDBRANCH   1  12
BRANCH   2  14
ATOM     14  C   UNL     1      -1.079   1.022  -0.573  0.00  0.00    +0.038 A 
ATOM     15  C   UNL     1       0.085   0.933   0.194  0.00  0.00    +0.014 A 
ATOM     16  C   UNL     1       1.057   0.014  -0.137  0.00  0.00    +0.021 A 
ATOM     17  C   UNL     1       0.883  -0.821  -1.229  0.00  0.00    +0.041 A 
ATOM     18  C   UNL     1      -0.269  -0.738  -1.994  0.00  0.00    +0.021 A 
ATOM     19  C   UNL     1      -1.249   0.177  -1.673  0.00  0.00    +0.014 A 
ATOM     20 CL   UNL     1       2.112  -1.976  -1.639  0.00  0.00    -0.084 Cl
ENDBRANCH   2  14
BRANCH   4  21
ATOM     21  C   UNL     1      -2.319   5.506   1.011  0.00  0.00    +0.051 C 
BRANCH  21  27
ATOM     22  C   UNL     1      -2.968   7.344   2.448  0.00  0.00    -0.049 C 
ATOM     23  C   UNL     1      -4.021   7.809   3.458  0.00  0.00    +0.141 C 
ATOM     24  O   UNL     1      -4.053   6.897   4.559  0.00  0.00    -0.383 OA
ATOM     25  C   UNL     1      -4.350   5.550   4.183  0.00  0.00    +0.141 C 
ATOM     26  C   UNL     1      -3.300   5.062   3.180  0.00  0.00    -0.049 C 
ATOM     27  N   UNL     1      -3.300   5.971   2.015  0.00  0.00    +0.393 N 
ATOM     28  H   UNL     1      -4.236   5.972   1.591  0.00  0.00    -0.080 HD
ENDBRANCH  21  27
BRANCH  21  29
ATOM     29  C   UNL     1      -2.321   6.460  -0.156  0.00  0.00    -0.052 A 
ATOM     30  C   UNL     1      -3.519   6.876  -0.706  0.00  0.00    +0.005 A 
ATOM     31  C   UNL     1      -3.521   7.755  -1.773  0.00  0.00    +0.033 A 
ATOM     32  C   UNL     1      -2.325   8.209  -2.297  0.00  0.00    +0.126 A 
ATOM     33  C   UNL     1      -1.127   7.788  -1.751  0.00  0.00    +0.033 A 
ATOM     34  C   UNL     1      -1.125   6.913  -0.680  0.00  0.00    +0.005 A 
BRANCH  32  35
ATOM     35  N   UNL     1      -2.327   9.146  -3.443  0.00  0.00    +0.056 N 
ATOM     36  O   UNL     1      -1.274   9.545  -3.905  0.00  0.00    -0.126 OA
ATOM     37  O   UNL     1      -3.383   9.517  -3.924  0.00  0.00    -0.126 OA
ENDBRANCH  32  35
ENDBRANCH  21  29
ENDBRANCH   4  21
TORSDOF 6
