REMARK  Name = ZINC20181670
REMARK  10 active torsions:
REMARK  status: ('A' for Active; 'I' for Inactive)
REMARK    1  A    between atoms: C_1  and  C_2
REMARK    2  A    between atoms: C_2  and  C_3
REMARK    3  A    between atoms: C_6  and  C_9
REMARK    4  A    between atoms: N_13  and  C_21
REMARK    5  A    between atoms: C_21  and  C_22
REMARK    6  A    between atoms: N_24  and  C_25
REMARK    7  A    between atoms: C_25  and  C_26
REMARK    8  A    between atoms: C_26  and  C_27
REMARK    9  A    between atoms: C_27  and  N_28
REMARK   10  A    between atoms: C_32  and  C_35
REMARK                            x       y       z     vdW  Elec       q    Type
REMARK                         _______ _______ _______ _____ _____    ______ ____
ROOT
ATOM      1  C   UNL     1       0.164   0.847  -0.032  0.00  0.00    +0.028 C 
ATOM      2  C   UNL     1       0.873   1.819  -0.654  0.00  0.00    +0.076 C 
ATOM      3  C   UNL     1       0.519   3.251  -0.528  0.00  0.00    +0.258 C 
ATOM      4  O   UNL     1      -0.634   3.570  -0.307  0.00  0.00    -0.269 OA
ATOM      5  N   UNL     1       1.455   4.195  -0.655  0.00  0.00    -0.257 N 
ATOM      6  C   UNL     1       2.820   3.994  -0.813  0.00  0.00    +0.051 A 
ATOM      7  C   UNL     1       3.686   5.042  -0.504  0.00  0.00    +0.024 A 
ATOM      8  C   UNL     1       5.050   4.885  -0.642  0.00  0.00    +0.002 A 
ATOM      9  C   UNL     1       5.578   3.685  -1.083  0.00  0.00    +0.001 A 
ATOM     10  C   UNL     1       4.733   2.638  -1.400  0.00  0.00    +0.017 A 
ATOM     11  C   UNL     1       3.362   2.790  -1.264  0.00  0.00    +0.034 A 
ATOM     12  S   UNL     1       2.282   1.450  -1.667  0.00  0.00    -0.082 S 
ENDROOT
BRANCH   1  16
ATOM     13  C   UNL     1      -2.831   1.883   2.786  0.00  0.00    -0.048 A 
ATOM     14  C   UNL     1      -3.030   0.812   1.933  0.00  0.00    +0.004 A 
ATOM     15  C   UNL     1      -2.062   0.468   1.014  0.00  0.00    +0.008 A 
ATOM     16  C   UNL     1      -0.875   1.206   0.946  0.00  0.00    -0.024 A 
ATOM     17  C   UNL     1      -0.679   2.285   1.815  0.00  0.00    +0.008 A 
ATOM     18  C   UNL     1      -1.660   2.618   2.725  0.00  0.00    +0.004 A 
BRANCH  13  20
ATOM     19  C   UNL     1      -3.651   1.493   5.094  0.00  0.00    +0.009 C 
ATOM     20  C   UNL     1      -3.896   2.251   3.788  0.00  0.00    +0.032 C 
ENDBRANCH  13  20
ENDBRANCH   1  16
BRANCH   5  21
ATOM     21  C   UNL     1       0.994   5.586  -0.623  0.00  0.00    +0.209 C 
BRANCH  21  22
ATOM     22  C   UNL     1       0.894   6.049   0.807  0.00  0.00    +0.231 C 
ATOM     23  O   UNL     1       1.179   5.293   1.711  0.00  0.00    -0.274 OA
ATOM     24  N   UNL     1       0.487   7.304   1.082  0.00  0.00    -0.314 N 
ATOM     25  H   UNL     1       0.228   7.990   0.262  0.00  0.00    +0.149 HD
BRANCH  24  26
ATOM     26  C   UNL     1       0.389   7.755   2.473  0.00  0.00    +0.102 C 
BRANCH  26  27
ATOM     27  C   UNL     1      -0.092   9.207   2.506  0.00  0.00    +0.000 C 
BRANCH  27  28
ATOM     28  C   UNL     1      -0.194   9.678   3.958  0.00  0.00    -0.077 C 
BRANCH  28  29
ATOM     29  N   UNL     1      -0.655  11.072   3.990  0.00  0.00    +0.380 N 
ATOM     30  C   UNL     1      -2.032  11.182   3.490  0.00  0.00    -0.079 C 
ATOM     31  C   UNL     1      -2.427  12.657   3.400  0.00  0.00    -0.018 C 
ATOM     32  C   UNL     1      -2.316  13.295   4.787  0.00  0.00    -0.001 C 
ATOM     33  C   UNL     1      -0.885  13.125   5.306  0.00  0.00    -0.031 C 
ATOM     34  C   UNL     1      -0.535  11.635   5.340  0.00  0.00    -0.076 C 
ATOM     35  C   UNL     1      -0.781  13.707   6.717  0.00  0.00    +0.005 C 
ATOM     36  H   UNL     1      -0.008  11.659   3.322  0.00  0.00    -0.082 HD
ENDBRANCH  28  29
ENDBRANCH  27  28
ENDBRANCH  26  27
ENDBRANCH  24  26
ENDBRANCH  21  22
ENDBRANCH   5  21
TORSDOF 8
