REMARK  Name = ZINC20033737
REMARK  9 active torsions:
REMARK  status: ('A' for Active; 'I' for Inactive)
REMARK    1  A    between atoms: C_1  and  C_2
REMARK    2  A    between atoms: C_5  and  N_9
REMARK    3  A    between atoms: C_7  and  C_8
REMARK    4  A    between atoms: N_9  and  S_10
REMARK    5  A    between atoms: S_10  and  C_13
REMARK    6  A    between atoms: C_26  and  C_29
REMARK    7  A    between atoms: C_32  and  C_35
REMARK    8  A    between atoms: C_35  and  O_37
REMARK    9  A    between atoms: O_37  and  C_38
REMARK                            x       y       z     vdW  Elec       q    Type
REMARK                         _______ _______ _______ _____ _____    ______ ____
ROOT
ATOM      1  C   UNL     1       1.655   2.196  -0.002  0.00  0.00    +0.109 A 
ATOM      2  C   UNL     1       2.323   2.408   1.190  0.00  0.00    +0.030 A 
ATOM      3  C   UNL     1       3.639   2.822   1.184  0.00  0.00    +0.025 A 
ATOM      4  C   UNL     1       4.300   3.041  -0.019  0.00  0.00    +0.031 A 
ATOM      5  C   UNL     1       3.612   2.841  -1.222  0.00  0.00    -0.018 A 
ATOM      6  C   UNL     1       2.302   2.416  -1.204  0.00  0.00    +0.034 A 
ATOM      7  C   UNL     1       4.339   3.125  -2.478  0.00  0.00    +0.049 C 
ATOM      8  C   UNL     1       3.984   2.458  -3.758  0.00  0.00    -0.023 C 
ATOM      9  C   UNL     1       5.085   2.333  -4.490  0.00  0.00    -0.030 C 
ATOM     10  C   UNL     1       6.288   2.886  -3.724  0.00  0.00    +0.033 C 
ATOM     11  C   UNL     1       5.830   2.724  -2.269  0.00  0.00    +0.029 C 
ATOM     12  C   UNL     1       6.377   3.713  -1.256  0.00  0.00    +0.105 C 
ATOM     13  N   UNL     1       5.640   3.447  -0.001  0.00  0.00    -0.336 N 
ATOM     14  H   UNL     1       6.144   3.567   0.969  0.00  0.00    +0.147 HD
ENDROOT
BRANCH  12  15
ATOM     15  C   UNL     1       7.853   3.486  -1.050  0.00  0.00    -0.027 A 
ATOM     16  C   UNL     1       8.285   2.420  -0.282  0.00  0.00    +0.006 A 
ATOM     17  C   UNL     1       9.634   2.203  -0.095  0.00  0.00    +0.015 A 
ATOM     18  C   UNL     1      10.564   3.068  -0.674  0.00  0.00    +0.059 A 
ATOM     19  C   UNL     1      10.121   4.146  -1.444  0.00  0.00    +0.015 A 
ATOM     20  C   UNL     1       8.769   4.348  -1.627  0.00  0.00    +0.006 A 
BRANCH  18  21
ATOM     21  C   UNL     1      12.011   2.846  -0.472  0.00  0.00    +0.339 C 
ATOM     22  O   UNL     1      12.817   3.601  -0.977  0.00  0.00    -0.245 OA
BRANCH  21  23
ATOM     23  O   UNL     1      12.435   1.806   0.271  0.00  0.00    -0.464 OA
ATOM     24  C   UNL     1      13.870   1.649   0.426  0.00  0.00    +0.280 C 
ENDBRANCH  21  23
ENDBRANCH  18  21
ENDBRANCH  12  15
BRANCH   1  25
ATOM     25  S   UNL     1      -0.020   1.652   0.011  0.00  0.00    +0.072 S 
ATOM     26  O   UNL     1      -0.589   2.057  -1.227  0.00  0.00    -0.150 OA
ATOM     27  O   UNL     1      -0.565   2.044   1.264  0.00  0.00    -0.150 OA
BRANCH  25  28
ATOM     28  N   UNL     1       0.002  -0.004   0.002  0.00  0.00    -0.216 N 
ATOM     29  H   UNL     1      -0.401  -0.555  -0.861  0.00  0.00    +0.174 HD
BRANCH  28  34
ATOM     30  C   UNL     1       2.157  -2.835   4.417  0.00  0.00    +0.044 C 
ATOM     31  C   UNL     1       1.585  -2.083   3.244  0.00  0.00    -0.047 A 
ATOM     32  C   UNL     1       0.731  -1.016   3.459  0.00  0.00    +0.005 A 
ATOM     33  C   UNL     1       0.204  -0.325   2.386  0.00  0.00    +0.025 A 
ATOM     34  C   UNL     1       0.533  -0.701   1.090  0.00  0.00    +0.048 A 
ATOM     35  C   UNL     1       1.387  -1.776   0.877  0.00  0.00    +0.028 A 
ATOM     36  C   UNL     1       1.914  -2.460   1.955  0.00  0.00    -0.046 A 
ATOM     37  C   UNL     1       2.845  -3.623   1.726  0.00  0.00    +0.044 C 
ENDBRANCH  28  34
ENDBRANCH  25  28
ENDBRANCH   1  25
TORSDOF 6
