REMARK  Name = ZINC06408528
REMARK  13 active torsions:
REMARK  status: ('A' for Active; 'I' for Inactive)
REMARK    1  A    between atoms: C_1  and  C_2
REMARK    2  A    between atoms: C_9  and  C_14
REMARK    3  A    between atoms: C_14  and  C_16
REMARK    4  A    between atoms: C_14  and  N_72
REMARK    5  A    between atoms: N_20  and  C_21
REMARK    6  A    between atoms: C_21  and  C_22
REMARK    7  A    between atoms: C_21  and  C_23
REMARK    8  A    between atoms: C_21  and  C_24
REMARK    9  A    between atoms: C_25  and  C_26
REMARK   10  A    between atoms: C_25  and  N_72
REMARK   11  A    between atoms: C_26  and  C_27
REMARK   12  A    between atoms: C_33  and  C_34
REMARK   13  A    between atoms: C_33  and  N_72
REMARK                            x       y       z     vdW  Elec       q    Type
REMARK                         _______ _______ _______ _____ _____    ______ ____
ROOT
ATOM      1  C   UNL     1      -1.776   1.499  -0.529  0.00  0.00    +0.039 C 
ENDROOT
BRANCH   1  10
ATOM      2  C   UNL     1       4.452   4.545  -3.277  0.00  0.00    +0.044 C 
ATOM      3  C   UNL     1       3.195   4.643  -2.453  0.00  0.00    -0.050 A 
ATOM      4  C   UNL     1       2.883   5.834  -1.813  0.00  0.00    +0.005 A 
ATOM      5  C   UNL     1       1.738   5.946  -1.054  0.00  0.00    +0.026 A 
ATOM      6  C   UNL     1       0.885   4.855  -0.927  0.00  0.00    +0.049 A 
ATOM      7  C   UNL     1       1.204   3.648  -1.578  0.00  0.00    -0.001 A 
ATOM      8  C   UNL     1       2.372   3.558  -2.343  0.00  0.00    +0.013 A 
ATOM      9  C   UNL     1       0.299   2.506  -1.438  0.00  0.00    +0.017 A 
ATOM     10  C   UNL     1      -0.820   2.654  -0.689  0.00  0.00    +0.011 A 
ATOM     11  C   UNL     1      -1.092   3.884  -0.052  0.00  0.00    +0.251 A 
ATOM     12  O   UNL     1      -2.102   3.994   0.621  0.00  0.00    -0.268 OA
ATOM     13  N   UNL     1      -0.267   4.939  -0.174  0.00  0.00    -0.322 N 
ATOM     14  H   UNL     1      -0.486   5.771   0.274  0.00  0.00    +0.169 HD
ENDBRANCH   1  10
BRANCH   1  15
ATOM     15  C   UNL     1      -1.837   1.094   0.921  0.00  0.00    +0.143 A 
ATOM     16  N   UNL     1      -2.331   1.798   1.910  0.00  0.00    -0.115 NA
ATOM     17  N   UNL     1      -2.199   1.111   2.992  0.00  0.00    -0.023 NA
ATOM     18  N   UNL     1      -1.634  -0.013   2.719  0.00  0.00    -0.043 NA
ATOM     19  N   UNL     1      -1.400  -0.064   1.451  0.00  0.00    -0.225 N 
BRANCH  19  20
ATOM     20  C   UNL     1      -0.772  -1.171   0.725  0.00  0.00    +0.059 C 
ATOM     21  C   UNL     1       0.466  -0.660  -0.013  0.00  0.00    +0.036 C 
ATOM     22  C   UNL     1      -0.362  -2.262   1.716  0.00  0.00    +0.036 C 
ATOM     23  C   UNL     1      -1.767  -1.747  -0.285  0.00  0.00    +0.036 C 
ENDBRANCH  19  20
ENDBRANCH   1  15
BRANCH   1  24
ATOM     24  N   UNL     1      -3.122   1.927  -0.965  0.00  0.00    +0.392 N 
ATOM     25  H   UNL     1      -3.421   2.722  -0.390  0.00  0.00    -0.080 HD
BRANCH  24  26
ATOM     26  C   UNL     1      -3.084   2.346  -2.382  0.00  0.00    -0.072 C 
BRANCH  26  27
ATOM     27  C   UNL     1      -4.425   2.990  -2.742  0.00  0.00    +0.016 C 
BRANCH  27  28
ATOM     28  C   UNL     1      -4.396   3.443  -4.179  0.00  0.00    -0.049 A 
ATOM     29  C   UNL     1      -3.967   4.719  -4.492  0.00  0.00    +0.003 A 
ATOM     30  C   UNL     1      -3.936   5.133  -5.811  0.00  0.00    +0.000 A 
ATOM     31  C   UNL     1      -4.341   4.274  -6.815  0.00  0.00    +0.000 A 
ATOM     32  C   UNL     1      -4.775   2.999  -6.501  0.00  0.00    +0.000 A 
ATOM     33  C   UNL     1      -4.802   2.584  -5.183  0.00  0.00    +0.003 A 
ENDBRANCH  27  28
ENDBRANCH  26  27
ENDBRANCH  24  26
BRANCH  24  34
ATOM     34  C   UNL     1      -4.084   0.819  -0.791  0.00  0.00    -0.042 C 
BRANCH  34  35
ATOM     35  C   UNL     1      -4.803   1.011   0.519  0.00  0.00    -0.064 A 
ATOM     36  C   UNL     1      -4.382   0.328   1.645  0.00  0.00    +0.002 A 
ATOM     37  C   UNL     1      -5.038   0.508   2.848  0.00  0.00    +0.000 A 
ATOM     38  C   UNL     1      -6.122   1.363   2.923  0.00  0.00    +0.000 A 
ATOM     39  C   UNL     1      -6.546   2.042   1.796  0.00  0.00    +0.000 A 
ATOM     40  C   UNL     1      -5.887   1.865   0.594  0.00  0.00    +0.002 A 
ENDBRANCH  34  35
ENDBRANCH  24  34
ENDBRANCH   1  24
TORSDOF 9
