REMARK  Name = ZINC30979744
REMARK  10 active torsions:
REMARK  status: ('A' for Active; 'I' for Inactive)
REMARK    1  A    between atoms: C_1  and  C_2
REMARK    2  A    between atoms: C_7  and  O_8
REMARK    3  A    between atoms: O_8  and  C_9
REMARK    4  A    between atoms: C_9  and  C_10
REMARK    5  A    between atoms: C_10  and  C_12
REMARK    6  A    between atoms: C_10  and  N_13
REMARK    7  A    between atoms: C_14  and  C_16
REMARK    8  A    between atoms: N_19  and  C_22
REMARK    9  A    between atoms: C_22  and  C_23
REMARK   10  A    between atoms: C_25  and  C_28
REMARK                            x       y       z     vdW  Elec       q    Type
REMARK                         _______ _______ _______ _____ _____    ______ ____
ROOT
ATOM      1  C   UNL     1      -2.482   0.853   0.018  0.00  0.00    +0.071 C 
ATOM      2  C   UNL     1      -2.562  -0.016  -1.240  0.00  0.00    -0.006 C 
ATOM      3  C   UNL     1      -3.905  -0.750  -1.262  0.00  0.00    -0.077 C 
ATOM      4  N   UNL     1      -4.999   0.229  -1.252  0.00  0.00    +0.386 N 
ATOM      5  C   UNL     1      -4.971   1.043  -0.030  0.00  0.00    -0.077 C 
ATOM      6  C   UNL     1      -3.660   1.831   0.029  0.00  0.00    -0.006 C 
ATOM      7  H   UNL     1      -4.854   0.903  -2.108  0.00  0.00    -0.081 HD
ENDROOT
BRANCH   1   9
ATOM      8  N   UNL     1      -0.011   0.966   0.007  0.00  0.00    -0.309 N 
ATOM      9  C   UNL     1      -1.187   1.624   0.017  0.00  0.00    +0.216 C 
ATOM     10  O   UNL     1      -1.204   2.837   0.023  0.00  0.00    -0.276 OA
ATOM     11  H   UNL     1       0.004  -0.134   0.006  0.00  0.00    +0.149 HD
BRANCH   8  12
ATOM     12  C   UNL     1       1.248   1.716  -0.001  0.00  0.00    +0.107 C 
ATOM     13  C   UNL     1       1.608   2.092  -1.439  0.00  0.00    +0.031 C 
BRANCH  12  14
ATOM     14  C   UNL     1       2.361   0.850   0.594  0.00  0.00    +0.251 C 
BRANCH  14  15
ATOM     15  O   UNL     1       2.588  -0.280  -0.251  0.00  0.00    -0.490 OA
BRANCH  15  22
ATOM     16  C   UNL     1       3.054  -2.520  -1.908  0.00  0.00    +0.047 C 
ATOM     17  C   UNL     1       3.826  -2.274  -0.637  0.00  0.00    -0.009 A 
ATOM     18  C   UNL     1       4.807  -3.163  -0.241  0.00  0.00    +0.007 A 
ATOM     19  C   UNL     1       5.515  -2.938   0.924  0.00  0.00    +0.000 A 
ATOM     20  C   UNL     1       5.245  -1.823   1.697  0.00  0.00    +0.004 A 
ATOM     21  C   UNL     1       4.269  -0.929   1.302  0.00  0.00    +0.046 A 
ATOM     22  C   UNL     1       3.552  -1.155   0.136  0.00  0.00    +0.123 A 
ENDBRANCH  15  22
ENDBRANCH  14  15
ENDBRANCH  12  14
ENDBRANCH   8  12
ENDBRANCH   1   9
BRANCH   4  23
ATOM     23  C   UNL     1      -6.300  -0.434  -1.413  0.00  0.00    +0.022 C 
BRANCH  23  24
ATOM     24  C   UNL     1      -6.381  -1.056  -2.783  0.00  0.00    +0.211 A 
ATOM     25  N   UNL     1      -6.015  -2.270  -3.109  0.00  0.00    -0.193 NA
ATOM     26  C   UNL     1      -6.270  -2.383  -4.433  0.00  0.00    +0.202 A 
ATOM     27  N   UNL     1      -6.771  -1.242  -4.828  0.00  0.00    -0.056 NA
ATOM     28  O   UNL     1      -6.846  -0.473  -3.893  0.00  0.00    -0.340 OA
BRANCH  26  29
ATOM     29  C   UNL     1      -6.026  -3.579  -5.278  0.00  0.00    +0.023 A 
ATOM     30  C   UNL     1      -5.477  -4.730  -4.718  0.00  0.00    +0.013 A 
ATOM     31  C   UNL     1      -5.257  -5.841  -5.507  0.00  0.00    +0.016 A 
ATOM     32  C   UNL     1      -5.571  -5.808  -6.855  0.00  0.00    +0.018 A 
ATOM     33  C   UNL     1      -6.111  -4.665  -7.417  0.00  0.00    +0.016 A 
ATOM     34  C   UNL     1      -6.340  -3.550  -6.635  0.00  0.00    +0.013 A 
ATOM     35 BR   UNL     1      -5.260  -7.331  -7.932  0.00  0.00    -0.050 Br
ENDBRANCH  26  29
ENDBRANCH  23  24
ENDBRANCH   4  23
TORSDOF 8
