REMARK  Name = ZINC38742369
REMARK  5 active torsions:
REMARK  status: ('A' for Active; 'I' for Inactive)
REMARK    1  A    between atoms: C_1  and  C_2
REMARK    2  A    between atoms: C_2  and  C_3
REMARK    3  A    between atoms: C_2  and  C_4
REMARK    4  A    between atoms: C_6  and  C_10
REMARK    5  A    between atoms: C_18  and  C_20
REMARK                            x       y       z     vdW  Elec       q    Type
REMARK                         _______ _______ _______ _____ _____    ______ ____
ROOT
ATOM      1  C   UNL     1       3.477  -0.875  -3.068  0.00  0.00    +0.206 C 
ATOM      2  N   UNL     1       4.544  -1.580  -2.319  0.00  0.00    -0.231 NA
ATOM      3  N   UNL     1       5.484  -2.107  -3.324  0.00  0.00    -0.224 NA
ATOM      4  C   UNL     1       5.270  -1.211  -4.479  0.00  0.00    +0.240 C 
ATOM      5  N   UNL     1       3.773  -1.108  -4.500  0.00  0.00    -0.206 N 
ATOM      6  N   UNL     1       3.220  -1.334  -5.742  0.00  0.00    -0.173 NA
ATOM      7  C   UNL     1       3.875  -1.895  -6.716  0.00  0.00    +0.125 C 
ATOM      8  S   UNL     1       5.564  -2.078  -6.065  0.00  0.00    -0.063 S 
ATOM      9  H   UNL     1       5.012  -0.954  -1.681  0.00  0.00    +0.143 HD
ATOM     10  H   UNL     1       6.436  -2.050  -2.994  0.00  0.00    +0.144 HD
ENDROOT
BRANCH   7  11
ATOM     11  C   UNL     1       3.368  -2.286  -8.049  0.00  0.00    +0.009 A 
ATOM     12  C   UNL     1       4.222  -2.888  -8.975  0.00  0.00    +0.010 A 
ATOM     13  C   UNL     1       3.743  -3.251 -10.216  0.00  0.00    +0.002 A 
ATOM     14  C   UNL     1       2.419  -3.018 -10.546  0.00  0.00    +0.015 A 
ATOM     15  C   UNL     1       1.567  -2.421  -9.633  0.00  0.00    +0.019 A 
ATOM     16  C   UNL     1       2.033  -2.059  -8.385  0.00  0.00    +0.026 A 
ATOM     17 BR   UNL     1      -0.240  -2.107 -10.094  0.00  0.00    -0.050 Br
ENDBRANCH   7  11
BRANCH   1  20
ATOM     18  C   UNL     1       0.707  -0.490  -1.238  0.00  0.00    +0.064 C 
ATOM     19  C   UNL     1       1.805  -1.250  -1.237  0.00  0.00    +0.030 C 
ATOM     20  C   UNL     1       2.107  -1.457  -2.710  0.00  0.00    +0.190 C 
ATOM     21  N   UNL     1       1.029  -0.708  -3.378  0.00  0.00    -0.177 NA
ATOM     22  N   UNL     1       0.311  -0.220  -2.502  0.00  0.00    -0.158 NA
BRANCH  18  24
ATOM     23  C   UNL     1      -0.019   1.526   0.010  0.00  0.00    +0.014 C 
ATOM     24  C   UNL     1       0.002  -0.004   0.002  0.00  0.00    +0.033 C 
ATOM     25  C   UNL     1      -1.433  -0.534   0.013  0.00  0.00    +0.014 C 
ENDBRANCH  18  24
ENDBRANCH   1  20
TORSDOF 3
