REMARK  Name = ZINC38677851
REMARK  9 active torsions:
REMARK  status: ('A' for Active; 'I' for Inactive)
REMARK    1  A    between atoms: C_4  and  O_10
REMARK    2  A    between atoms: C_5  and  N_7
REMARK    3  A    between atoms: O_10  and  C_11
REMARK    4  A    between atoms: C_11  and  C_12
REMARK    5  A    between atoms: C_12  and  O_14
REMARK    6  A    between atoms: O_14  and  C_15
REMARK    7  A    between atoms: C_22  and  N_35
REMARK    8  A    between atoms: C_23  and  C_33
REMARK    9  A    between atoms: C_24  and  C_26
REMARK                            x       y       z     vdW  Elec       q    Type
REMARK                         _______ _______ _______ _____ _____    ______ ____
ROOT
ATOM      1  C   UNL     1       8.334  -0.976  -0.054  0.00  0.00    +0.135 A 
ATOM      2  C   UNL     1       8.227  -2.359  -0.103  0.00  0.00    +0.047 A 
ATOM      3  C   UNL     1       9.366  -3.140  -0.085  0.00  0.00    +0.012 A 
ATOM      4  C   UNL     1      10.615  -2.549  -0.017  0.00  0.00    +0.008 A 
ATOM      5  C   UNL     1      10.727  -1.168   0.032  0.00  0.00    +0.138 A 
ATOM      6  C   UNL     1       9.583  -0.381   0.008  0.00  0.00    +0.093 A 
ATOM      7  O   UNL     1      11.943  -0.571   0.099  0.00  0.00    -0.441 OA
ATOM      8  C   UNL     1      13.014  -1.276   0.500  0.00  0.00    +0.199 C 
ATOM      9  C   UNL     1      13.031  -2.629   0.479  0.00  0.00    +0.098 C 
ATOM     10  C   UNL     1      11.845  -3.418   0.002  0.00  0.00    +0.098 C 
ENDROOT
BRANCH  10  11
ATOM     11  C   UNL     1      12.114  -3.933  -1.389  0.00  0.00    -0.032 A 
ATOM     12  C   UNL     1      12.353  -3.043  -2.420  0.00  0.00    +0.005 A 
ATOM     13  C   UNL     1      12.600  -3.514  -3.696  0.00  0.00    +0.003 A 
ATOM     14  C   UNL     1      12.608  -4.874  -3.943  0.00  0.00    +0.038 A 
ATOM     15  C   UNL     1      12.369  -5.765  -2.911  0.00  0.00    +0.124 A 
ATOM     16  C   UNL     1      12.128  -5.293  -1.631  0.00  0.00    +0.043 A 
ATOM     17  F   UNL     1      12.377  -7.095  -3.150  0.00  0.00    -0.205 F 
ENDBRANCH  10  11
BRANCH   8  18
ATOM     18  N   UNL     1      14.125  -0.603   0.945  0.00  0.00    -0.328 N 
ATOM     19  H   UNL     1      14.129   0.367   0.966  0.00  0.00    +0.145 HD
ATOM     20  H   UNL     1      14.907  -1.097   1.238  0.00  0.00    +0.145 HD
ENDBRANCH   8  18
BRANCH   9  21
ATOM     21  C   UNL     1      14.204  -3.323   0.920  0.00  0.00    +0.101 C 
ATOM     22  N   UNL     1      15.134  -3.874   1.270  0.00  0.00    -0.191 NA
ENDBRANCH   9  21
BRANCH   1  23
ATOM     23  O   UNL     1       7.214  -0.206  -0.072  0.00  0.00    -0.423 OA
BRANCH  23  24
ATOM     24  C   UNL     1       6.501  -0.102   1.061  0.00  0.00    +0.350 C 
ATOM     25  O   UNL     1       6.811  -0.754   2.031  0.00  0.00    -0.247 OA
BRANCH  24  26
ATOM     26  C   UNL     1       5.316   0.826   1.124  0.00  0.00    +0.349 C 
BRANCH  26  27
ATOM     27  O   UNL     1       4.728   0.760   2.425  0.00  0.00    -0.478 OA
BRANCH  27  31
ATOM     28  C   UNL     1       1.424   3.134   3.109  0.00  0.00    +0.002 A 
ATOM     29  C   UNL     1       2.042   3.151   1.873  0.00  0.00    +0.004 A 
ATOM     30  C   UNL     1       3.148   2.357   1.641  0.00  0.00    +0.048 A 
ATOM     31  C   UNL     1       3.640   1.542   2.651  0.00  0.00    +0.151 A 
ATOM     32  C   UNL     1       3.018   1.527   3.891  0.00  0.00    +0.168 A 
ATOM     33  C   UNL     1       1.912   2.323   4.117  0.00  0.00    +0.036 A 
BRANCH  32  34
ATOM     34  N   UNL     1       3.539   0.659   4.970  0.00  0.00    +0.060 N 
ATOM     35  O   UNL     1       2.997   0.646   6.050  0.00  0.00    -0.126 OA
ATOM     36  O   UNL     1       4.507  -0.038   4.771  0.00  0.00    -0.126 OA
ENDBRANCH  32  34
ENDBRANCH  27  31
ENDBRANCH  26  27
ENDBRANCH  24  26
ENDBRANCH  23  24
ENDBRANCH   1  23
TORSDOF 9
