REMARK  Name = ZINC20881998
REMARK  9 active torsions:
REMARK  status: ('A' for Active; 'I' for Inactive)
REMARK    1  A    between atoms: C_1  and  C_2
REMARK    2  A    between atoms: C_6  and  C_8
REMARK    3  A    between atoms: C_13  and  C_18
REMARK    4  A    between atoms: C_20  and  O_28
REMARK    5  A    between atoms: C_21  and  O_26
REMARK    6  A    between atoms: C_22  and  O_24
REMARK    7  A    between atoms: O_24  and  C_25
REMARK    8  A    between atoms: O_26  and  C_27
REMARK    9  A    between atoms: O_28  and  C_29
REMARK                            x       y       z     vdW  Elec       q    Type
REMARK                         _______ _______ _______ _____ _____    ______ ____
ROOT
ATOM      1  C   UNL     1      -1.332   2.114   0.020  0.00  0.00    +0.136 C 
ATOM      2  C   UNL     1      -1.817   2.246  -1.404  0.00  0.00    +0.036 C 
ATOM      3  C   UNL     1      -2.865   1.601  -1.943  0.00  0.00    +0.017 C 
ATOM      4  C   UNL     1      -3.229   1.810  -3.404  0.00  0.00    +0.059 C 
ATOM      5  C   UNL     1      -2.890   3.238  -3.826  0.00  0.00    +0.032 C 
ATOM      6  C   UNL     1      -1.385   3.442  -3.618  0.00  0.00    +0.088 C 
ATOM      7  C   UNL     1      -1.057   3.149  -2.185  0.00  0.00    +0.163 C 
ATOM      8  O   UNL     1      -0.105   3.707  -1.675  0.00  0.00    -0.292 OA
ATOM      9  N   UNL     1      -3.669   0.734  -1.277  0.00  0.00    -0.316 N 
ATOM     10  C   UNL     1      -3.219  -0.292  -0.456  0.00  0.00    +0.052 A 
ATOM     11  C   UNL     1      -3.430  -1.627  -0.756  0.00  0.00    +0.025 A 
ATOM     12  C   UNL     1      -2.994  -2.599   0.129  0.00  0.00    +0.002 A 
ATOM     13  C   UNL     1      -2.356  -2.239   1.302  0.00  0.00    +0.002 A 
ATOM     14  C   UNL     1      -2.128  -0.906   1.595  0.00  0.00    +0.025 A 
ATOM     15  C   UNL     1      -2.545   0.068   0.702  0.00  0.00    +0.049 A 
ATOM     16  N   UNL     1      -2.243   1.413   0.901  0.00  0.00    -0.331 N 
ATOM     17  H   UNL     1      -4.763   0.817  -1.369  0.00  0.00    +0.152 HD
ATOM     18  H   UNL     1      -2.709   1.944   1.744  0.00  0.00    +0.147 HD
ENDROOT
BRANCH   1  24
ATOM     19  C   UNL     1       3.594   2.029   0.901  0.00  0.00    +0.044 C 
ATOM     20  C   UNL     1       2.341   1.339   0.428  0.00  0.00    -0.050 A 
ATOM     21  C   UNL     1       2.398   0.032  -0.020  0.00  0.00    +0.003 A 
ATOM     22  C   UNL     1       1.249  -0.601  -0.455  0.00  0.00    +0.001 A 
ATOM     23  C   UNL     1       0.041   0.072  -0.440  0.00  0.00    +0.006 A 
ATOM     24  C   UNL     1      -0.017   1.378   0.010  0.00  0.00    -0.023 A 
ATOM     25  C   UNL     1       1.133   2.011   0.445  0.00  0.00    +0.009 A 
ENDBRANCH   1  24
BRANCH   5  26
ATOM     26  C   UNL     1      -3.236   3.437  -5.280  0.00  0.00    -0.036 A 
ATOM     27  C   UNL     1      -2.627   2.658  -6.246  0.00  0.00    +0.053 A 
ATOM     28  C   UNL     1      -2.947   2.834  -7.584  0.00  0.00    +0.165 A 
ATOM     29  C   UNL     1      -3.873   3.801  -7.954  0.00  0.00    +0.204 A 
ATOM     30  C   UNL     1      -4.480   4.586  -6.980  0.00  0.00    +0.165 A 
ATOM     31  C   UNL     1      -4.158   4.401  -5.644  0.00  0.00    +0.053 A 
BRANCH  30  32
ATOM     32  O   UNL     1      -5.387   5.534  -7.336  0.00  0.00    -0.491 OA
ATOM     33  C   UNL     1      -5.971   6.303  -6.283  0.00  0.00    +0.277 C 
ENDBRANCH  30  32
BRANCH  29  34
ATOM     34  O   UNL     1      -4.187   3.980  -9.266  0.00  0.00    -0.488 OA
ATOM     35  C   UNL     1      -3.400   4.921  -9.998  0.00  0.00    +0.277 C 
ENDBRANCH  29  34
BRANCH  28  36
ATOM     36  O   UNL     1      -2.351   2.063  -8.533  0.00  0.00    -0.491 OA
ATOM     37  C   UNL     1      -1.409   1.089  -8.080  0.00  0.00    +0.277 C 
ENDBRANCH  28  36
ENDBRANCH   5  26
TORSDOF 5
