REMARK  Name = ZINC41023371
REMARK  5 active torsions:
REMARK  status: ('A' for Active; 'I' for Inactive)
REMARK    1  A    between atoms: C_3  and  S_10
REMARK    2  A    between atoms: C_4  and  N_9
REMARK    3  A    between atoms: C_6  and  C_7
REMARK    4  A    between atoms: S_10  and  C_11
REMARK    5  A    between atoms: C_15  and  N_17
REMARK                            x       y       z     vdW  Elec       q    Type
REMARK                         _______ _______ _______ _____ _____    ______ ____
ROOT
ATOM      1  S   UNL     1       3.891   2.334  -0.024  0.00  0.00    -0.048 S 
ENDROOT
BRANCH   1   2
ATOM      2  C   UNL     1       3.377   4.014  -0.160  0.00  0.00    +0.196 A 
ATOM      3  N   UNL     1       2.083   4.298  -0.118  0.00  0.00    -0.207 NA
ATOM      4  C   UNL     1       1.658   5.555  -0.217  0.00  0.00    +0.122 A 
ATOM      5  C   UNL     1       2.592   6.577  -0.365  0.00  0.00    +0.086 A 
ATOM      6  C   UNL     1       3.942   6.239  -0.405  0.00  0.00    +0.122 A 
ATOM      7  N   UNL     1       4.294   4.960  -0.295  0.00  0.00    -0.207 NA
ATOM      8  N   UNL     1       0.303   5.844  -0.173  0.00  0.00    -0.343 N 
ATOM      9  H   UNL     1      -0.342   5.127  -0.069  0.00  0.00    +0.144 HD
ATOM     10  H   UNL     1       0.000   6.763  -0.245  0.00  0.00    +0.144 HD
BRANCH   6  11
ATOM     11  N   UNL     1       4.908   7.223  -0.551  0.00  0.00    -0.343 N 
ATOM     12  H   UNL     1       4.644   8.154  -0.627  0.00  0.00    +0.144 HD
ATOM     13  H   UNL     1       5.847   6.981  -0.578  0.00  0.00    +0.144 HD
ENDBRANCH   6  11
ENDBRANCH   1   2
BRANCH   1  16
ATOM     14  C   UNL     1       0.714   0.187   1.183  0.00  0.00    +0.020 A 
ATOM     15  C   UNL     1       1.895   0.898   1.172  0.00  0.00    +0.018 A 
ATOM     16  C   UNL     1       2.381   1.425  -0.017  0.00  0.00    +0.036 A 
ATOM     17  C   UNL     1       1.675   1.237  -1.209  0.00  0.00    +0.040 A 
ATOM     18  C   UNL     1       0.491   0.524  -1.203  0.00  0.00    +0.042 A 
ATOM     19  C   UNL     1       0.003  -0.005  -0.005  0.00  0.00    +0.054 A 
BRANCH  17  20
ATOM     20  N   UNL     1       2.167   1.769  -2.406  0.00  0.00    -0.357 N 
ATOM     21  H   UNL     1       2.998   2.270  -2.409  0.00  0.00    +0.142 HD
ATOM     22  H   UNL     1       1.676   1.638  -3.233  0.00  0.00    +0.142 HD
ENDBRANCH  17  20
BRANCH  19  23
ATOM     23  C   UNL     1      -1.224  -0.744   0.006  0.00  0.00    +0.099 C 
ATOM     24  N   UNL     1      -2.197  -1.331   0.015  0.00  0.00    -0.191 NA
ENDBRANCH  19  23
ENDBRANCH   1  16
TORSDOF 5
