REMARK  Name = ZINC14019640
REMARK  6 active torsions:
REMARK  status: ('A' for Active; 'I' for Inactive)
REMARK    1  A    between atoms: C_1  and  C_2
REMARK    2  A    between atoms: C_2  and  C_29
REMARK    3  A    between atoms: N_5  and  N_9
REMARK    4  A    between atoms: C_10  and  C_12
REMARK    5  A    between atoms: C_12  and  N_62
REMARK    6  A    between atoms: C_16  and  C_18
REMARK                            x       y       z     vdW  Elec       q    Type
REMARK                         _______ _______ _______ _____ _____    ______ ____
ROOT
ATOM      1  N   UNL     1      -4.106   5.256  -1.448  0.00  0.00    -0.225 N 
ATOM      2  C   UNL     1      -2.933   4.739  -1.031  0.00  0.00    +0.213 C 
ATOM      3  O   UNL     1      -2.134   5.441  -0.448  0.00  0.00    -0.276 OA
ATOM      4  H   UNL     1      -4.745   4.694  -1.914  0.00  0.00    +0.173 HD
ENDROOT
BRANCH   1   9
ATOM      5  C   UNL     1      -3.619   9.869  -1.506  0.00  0.00    +0.047 C 
ATOM      6  C   UNL     1      -4.756   8.848  -1.439  0.00  0.00    +0.137 C 
ATOM      7  C   UNL     1      -4.366   7.567  -2.148  0.00  0.00    +0.267 C 
ATOM      8  O   UNL     1      -4.081   7.436  -3.319  0.00  0.00    -0.271 OA
ATOM      9  N   UNL     1      -4.403   6.603  -1.206  0.00  0.00    -0.137 N 
ATOM     10  C   UNL     1      -4.763   7.092  -0.014  0.00  0.00    +0.327 C 
ATOM     11  O   UNL     1      -4.870   6.415   0.989  0.00  0.00    -0.251 OA
ATOM     12  N   UNL     1      -4.989   8.418  -0.049  0.00  0.00    -0.280 N 
ATOM     13  H   UNL     1      -5.257   8.980   0.695  0.00  0.00    +0.152 HD
BRANCH   6  14
ATOM     14  C   UNL     1      -6.016   9.422  -2.034  0.00  0.00    -0.015 A 
ATOM     15  C   UNL     1      -6.304   9.217  -3.371  0.00  0.00    +0.006 A 
ATOM     16  C   UNL     1      -7.462   9.739  -3.916  0.00  0.00    +0.000 A 
ATOM     17  C   UNL     1      -8.328  10.474  -3.127  0.00  0.00    +0.000 A 
ATOM     18  C   UNL     1      -8.037  10.683  -1.792  0.00  0.00    +0.000 A 
ATOM     19  C   UNL     1      -6.881  10.157  -1.246  0.00  0.00    +0.006 A 
ENDBRANCH   6  14
ENDBRANCH   1   9
BRANCH   2  20
ATOM     20  C   UNL     1      -2.614   3.289  -1.291  0.00  0.00    +0.021 C 
BRANCH  20  25
ATOM     21  C   UNL     1      -1.304   3.004   0.731  0.00  0.00    -0.077 C 
ATOM     22  C   UNL     1      -0.815   1.624   1.222  0.00  0.00    -0.020 C 
ATOM     23  C   UNL     1      -0.013   1.086   0.008  0.00  0.00    -0.013 C 
ATOM     24  C   UNL     1      -0.837   1.636  -1.182  0.00  0.00    -0.037 C 
ATOM     25  N   UNL     1      -1.269   2.977  -0.741  0.00  0.00    +0.390 N 
ATOM     26  H   UNL     1      -0.598   3.678  -1.077  0.00  0.00    -0.080 HD
BRANCH  24  27
ATOM     27  C   UNL     1       0.028   1.751  -2.411  0.00  0.00    -0.057 A 
ATOM     28  C   UNL     1       0.899   2.816  -2.544  0.00  0.00    +0.006 A 
ATOM     29  C   UNL     1       1.696   2.928  -3.669  0.00  0.00    +0.049 A 
ATOM     30  C   UNL     1       1.618   1.968  -4.664  0.00  0.00    +0.162 A 
ATOM     31  C   UNL     1       0.744   0.899  -4.530  0.00  0.00    +0.162 A 
ATOM     32  C   UNL     1      -0.048   0.787  -3.400  0.00  0.00    +0.051 A 
ATOM     33  O   UNL     1       0.674  -0.042  -5.516  0.00  0.00    -0.488 OA
ATOM     34  C   UNL     1       1.829  -0.869  -5.674  0.00  0.00    +0.232 C 
ATOM     35  C   UNL     1       2.865  -0.186  -6.552  0.00  0.00    +0.082 C 
ATOM     36  C   UNL     1       3.420   1.079  -5.917  0.00  0.00    +0.232 C 
ATOM     37  O   UNL     1       2.397   2.067  -5.780  0.00  0.00    -0.488 OA
ENDBRANCH  24  27
ENDBRANCH  20  25
ENDBRANCH   2  20
TORSDOF 5
