REMARK  Name = ZINC13502669
REMARK  7 active torsions:
REMARK  status: ('A' for Active; 'I' for Inactive)
REMARK    1  A    between atoms: C_1  and  C_2
REMARK    2  A    between atoms: C_3  and  C_14
REMARK    3  A    between atoms: N_5  and  C_7
REMARK    4  A    between atoms: N_16  and  C_17
REMARK    5  A    between atoms: C_17  and  C_18
REMARK    6  A    between atoms: C_18  and  N_19
REMARK    7  A    between atoms: C_27  and  C_29
REMARK                            x       y       z     vdW  Elec       q    Type
REMARK                         _______ _______ _______ _____ _____    ______ ____
ROOT
ATOM      1  C   UNL     1      -2.826   4.864  -1.241  0.00  0.00    +0.123 C 
ENDROOT
BRANCH   1   4
ATOM      2  C   UNL     1      -5.042   5.792  -1.648  0.00  0.00    +0.249 C 
ATOM      3  O   UNL     1      -5.509   4.687  -1.446  0.00  0.00    -0.270 OA
ATOM      4  N   UNL     1      -3.710   5.984  -1.570  0.00  0.00    -0.310 N 
ATOM      5  H   UNL     1      -3.337   6.865  -1.732  0.00  0.00    +0.149 HD
BRANCH   2   8
ATOM      6  C   UNL     1      -6.390   7.766   0.438  0.00  0.00    +0.068 C 
ATOM      7  C   UNL     1      -6.538   7.806  -1.061  0.00  0.00    +0.074 A 
ATOM      8  C   UNL     1      -5.931   6.918  -1.979  0.00  0.00    +0.096 A 
ATOM      9  C   UNL     1      -6.323   7.310  -3.246  0.00  0.00    +0.145 A 
ATOM     10  N   UNL     1      -7.134   8.375  -3.103  0.00  0.00    -0.220 N 
ATOM     11  N   UNL     1      -7.248   8.665  -1.738  0.00  0.00    -0.170 NA
ATOM     12 CL   UNL     1      -5.860   6.564  -4.743  0.00  0.00    -0.061 Cl
BRANCH  10  13
ATOM     13  C   UNL     1      -7.753   9.079  -4.144  0.00  0.00    +0.067 A 
ATOM     14  C   UNL     1      -7.099   9.244  -5.358  0.00  0.00    +0.028 A 
ATOM     15  C   UNL     1      -7.714   9.934  -6.384  0.00  0.00    +0.002 A 
ATOM     16  C   UNL     1      -8.976  10.470  -6.201  0.00  0.00    +0.000 A 
ATOM     17  C   UNL     1      -9.628  10.311  -4.992  0.00  0.00    +0.002 A 
ATOM     18  C   UNL     1      -9.020   9.618  -3.963  0.00  0.00    +0.028 A 
ENDBRANCH  10  13
ENDBRANCH   2   8
ENDBRANCH   1   4
BRANCH   1  19
ATOM     19  C   UNL     1      -1.375   5.349  -1.217  0.00  0.00    +0.121 C 
BRANCH  19  20
ATOM     20  N   UNL     1      -0.491   4.228  -0.888  0.00  0.00    -0.327 N 
ATOM     21  C   UNL     1       0.876   4.426  -0.808  0.00  0.00    +0.131 A 
ATOM     22  C   UNL     1       1.786   3.348  -0.610  0.00  0.00    +0.051 A 
ATOM     23  C   UNL     1       1.460   1.939  -0.467  0.00  0.00    -0.025 A 
ATOM     24  C   UNL     1       2.499   1.091  -0.287  0.00  0.00    -0.004 A 
ATOM     25  S   UNL     1       3.948   2.117  -0.300  0.00  0.00    -0.073 S 
ATOM     26  C   UNL     1       3.164   3.677  -0.545  0.00  0.00    +0.114 A 
ATOM     27  N   UNL     1       3.620   4.909  -0.658  0.00  0.00    -0.225 NA
ATOM     28  C   UNL     1       2.719   5.866  -0.841  0.00  0.00    +0.129 A 
ATOM     29  N   UNL     1       1.423   5.636  -0.911  0.00  0.00    -0.217 NA
ATOM     30  C   UNL     1       3.201   7.288  -0.975  0.00  0.00    +0.088 C 
ATOM     31  C   UNL     1       2.437  -0.396  -0.116  0.00  0.00    +0.043 C 
ATOM     32  C   UNL     1       0.986  -0.790   0.197  0.00  0.00    +0.005 C 
ATOM     33  C   UNL     1       0.061  -0.089  -0.803  0.00  0.00    +0.005 C 
ATOM     34  C   UNL     1       0.028   1.412  -0.513  0.00  0.00    +0.037 C 
ATOM     35  H   UNL     1      -0.864   3.347  -0.726  0.00  0.00    +0.148 HD
ENDBRANCH  19  20
ENDBRANCH   1  19
TORSDOF 5
