REMARK  Name = ZINC44978516
REMARK  4 active torsions:
REMARK  status: ('A' for Active; 'I' for Inactive)
REMARK    1  A    between atoms: C_1  and  C_2
REMARK    2  A    between atoms: C_7  and  C_10
REMARK    3  A    between atoms: C_12  and  C_15
REMARK    4  A    between atoms: C_19  and  N_21
REMARK                            x       y       z     vdW  Elec       q    Type
REMARK                         _______ _______ _______ _____ _____    ______ ____
ROOT
ATOM      1  C   UNL     1       1.492  -2.540   2.454  0.00  0.00    +0.175 A 
ATOM      2  N   UNL     1       2.595  -3.291   2.444  0.00  0.00    -0.192 NA
ATOM      3  C   UNL     1       2.973  -3.551   3.675  0.00  0.00    +0.259 A 
ATOM      4  O   UNL     1       2.101  -2.960   4.511  0.00  0.00    -0.333 OA
ATOM      5  N   UNL     1       1.149  -2.302   3.688  0.00  0.00    -0.061 NA
ENDROOT
BRANCH   1  11
ATOM      6  C   UNL     1      -0.019   1.526   0.010  0.00  0.00    +0.007 C 
ATOM      7  C   UNL     1       0.002  -0.004   0.002  0.00  0.00    -0.013 C 
ATOM      8  C   UNL     1      -1.433  -0.534   0.013  0.00  0.00    +0.003 C 
ATOM      9  C   UNL     1      -1.413  -2.063   0.004  0.00  0.00    +0.001 C 
ATOM     10  C   UNL     1      -0.673  -2.570   1.244  0.00  0.00    +0.011 C 
ATOM     11  C   UNL     1       0.763  -2.041   1.233  0.00  0.00    +0.061 C 
ATOM     12  C   UNL     1       0.742  -0.511   1.242  0.00  0.00    +0.014 C 
ENDBRANCH   1  11
BRANCH   3  13
ATOM     13  C   UNL     1       4.148  -4.354   4.072  0.00  0.00    +0.041 A 
ATOM     14  C   UNL     1       4.978  -4.910   3.096  0.00  0.00    +0.016 A 
ATOM     15  C   UNL     1       6.075  -5.659   3.468  0.00  0.00    +0.041 A 
ATOM     16  C   UNL     1       6.358  -5.862   4.808  0.00  0.00    +0.144 A 
ATOM     17  C   UNL     1       5.537  -5.311   5.788  0.00  0.00    +0.061 A 
ATOM     18  C   UNL     1       4.436  -4.553   5.423  0.00  0.00    +0.039 A 
ATOM     19  F   UNL     1       7.434  -6.596   5.166  0.00  0.00    -0.204 F 
BRANCH  17  20
ATOM     20  N   UNL     1       5.826  -5.518   7.141  0.00  0.00    -0.356 N 
ATOM     21  H   UNL     1       6.598  -6.045   7.396  0.00  0.00    +0.142 HD
ATOM     22  H   UNL     1       5.253  -5.133   7.824  0.00  0.00    +0.142 HD
ENDBRANCH  17  20
ENDBRANCH   3  13
TORSDOF 3
