REMARK  Name = ZINC05552953
REMARK  3 active torsions:
REMARK  status: ('A' for Active; 'I' for Inactive)
REMARK    1  A    between atoms: C_11  and  C_14
REMARK    2  A    between atoms: C_14  and  C_15
REMARK    3  A    between atoms: N_17  and  C_18
REMARK                            x       y       z     vdW  Elec       q    Type
REMARK                         _______ _______ _______ _____ _____    ______ ____
ROOT
ATOM      1  C   UNL     1       6.729  -1.853   3.541  0.00  0.00    +0.135 C 
ENDROOT
BRANCH   1  12
ATOM      2  C   UNL     1       8.778  -5.395  -0.396  0.00  0.00    +0.001 A 
ATOM      3  C   UNL     1       8.360  -4.098  -0.115  0.00  0.00    +0.001 A 
ATOM      4  C   UNL     1       7.915  -3.760   1.129  0.00  0.00    +0.009 A 
ATOM      5  C   UNL     1       7.878  -4.727   2.139  0.00  0.00    -0.007 A 
ATOM      6  C   UNL     1       8.304  -6.049   1.856  0.00  0.00    -0.017 A 
ATOM      7  C   UNL     1       8.755  -6.362   0.564  0.00  0.00    +0.008 A 
ATOM      8  C   UNL     1       8.265  -7.022   2.873  0.00  0.00    +0.012 A 
ATOM      9  C   UNL     1       7.829  -6.716   4.120  0.00  0.00    +0.047 A 
ATOM     10  C   UNL     1       7.397  -5.428   4.452  0.00  0.00    +0.136 A 
ATOM     11  C   UNL     1       7.412  -4.419   3.485  0.00  0.00    +0.031 A 
ATOM     12  C   UNL     1       6.909  -3.219   4.151  0.00  0.00    +0.007 A 
ATOM     13  C   UNL     1       6.645  -3.579   5.418  0.00  0.00    +0.200 A 
ATOM     14  O   UNL     1       6.928  -4.880   5.592  0.00  0.00    -0.463 OA
ENDBRANCH   1  12
BRANCH   1  15
ATOM     15  C   UNL     1       5.391  -1.784   2.850  0.00  0.00    +0.222 C 
ATOM     16  O   UNL     1       4.656  -2.749   2.853  0.00  0.00    -0.275 OA
ATOM     17  N   UNL     1       5.011  -0.649   2.229  0.00  0.00    -0.285 N 
ATOM     18  H   UNL     1       5.628   0.096   2.160  0.00  0.00    +0.155 HD
BRANCH  17  19
ATOM     19  C   UNL     1       3.725  -0.547   1.683  0.00  0.00    +0.037 A 
ATOM     20  C   UNL     1       2.658  -1.191   2.294  0.00  0.00    +0.027 A 
ATOM     21  C   UNL     1       1.388  -1.090   1.757  0.00  0.00    +0.051 A 
ATOM     22  C   UNL     1       1.177  -0.347   0.608  0.00  0.00    +0.166 A 
ATOM     23  C   UNL     1       2.246   0.301  -0.008  0.00  0.00    +0.168 A 
ATOM     24  C   UNL     1       3.517   0.199   0.531  0.00  0.00    +0.072 A 
ATOM     25  O   UNL     1       1.781   0.959  -1.110  0.00  0.00    -0.453 OA
ATOM     26  C   UNL     1       0.355   1.044  -0.934  0.00  0.00    +0.466 C 
ATOM     27  O   UNL     1       0.043  -0.094  -0.110  0.00  0.00    -0.453 OA
ENDBRANCH  17  19
ENDBRANCH   1  15
TORSDOF 3
