REMARK  Name = ZINC19850579
REMARK  10 active torsions:
REMARK  status: ('A' for Active; 'I' for Inactive)
REMARK    1  A    between atoms: C_1  and  C_2
REMARK    2  A    between atoms: C_2  and  C_3
REMARK    3  A    between atoms: C_3  and  O_4
REMARK    4  A    between atoms: O_4  and  C_5
REMARK    5  A    between atoms: C_8  and  C_11
REMARK    6  A    between atoms: N_12  and  N_13
REMARK    7  A    between atoms: C_14  and  C_16
REMARK    8  A    between atoms: C_16  and  N_17
REMARK    9  A    between atoms: N_20  and  S_23
REMARK   10  A    between atoms: S_23  and  C_26
REMARK                            x       y       z     vdW  Elec       q    Type
REMARK                         _______ _______ _______ _____ _____    ______ ____
ROOT
ATOM      1  C   UNL     1       0.133   4.823  -3.228  0.00  0.00    +0.020 C 
ENDROOT
BRANCH   1   2
ATOM      2  N   UNL     1       0.904   4.245  -2.120  0.00  0.00    +0.387 N 
ATOM      3  C   UNL     1       0.057   3.390  -1.278  0.00  0.00    -0.061 C 
ATOM      4  C   UNL     1       0.930   2.667  -0.247  0.00  0.00    +0.091 C 
ATOM      5  N   UNL     1       1.724   3.668   0.483  0.00  0.00    -0.180 NA
ATOM      6  C   UNL     1       2.490   4.652  -0.298  0.00  0.00    +0.091 C 
ATOM      7  C   UNL     1       1.555   5.297  -1.327  0.00  0.00    -0.061 C 
ATOM      8  H   UNL     1       1.695   3.612  -2.549  0.00  0.00    -0.081 HD
BRANCH   5   9
ATOM      9  S   UNL     1       1.749   3.689   2.139  0.00  0.00    +0.061 S 
ATOM     10  O   UNL     1       2.094   5.013   2.522  0.00  0.00    -0.153 OA
ATOM     11  O   UNL     1       0.551   3.058   2.571  0.00  0.00    -0.153 OA
BRANCH   9  12
ATOM     12  C   UNL     1       3.078   2.653   2.653  0.00  0.00    +0.106 A 
ATOM     13  C   UNL     1       2.857   1.308   2.883  0.00  0.00    +0.029 A 
ATOM     14  C   UNL     1       3.900   0.494   3.282  0.00  0.00    +0.017 A 
ATOM     15  C   UNL     1       5.164   1.027   3.460  0.00  0.00    +0.018 A 
ATOM     16  C   UNL     1       5.384   2.374   3.234  0.00  0.00    +0.017 A 
ATOM     17  C   UNL     1       4.341   3.186   2.831  0.00  0.00    +0.029 A 
ATOM     18 BR   UNL     1       6.590  -0.085   4.012  0.00  0.00    -0.050 Br
ENDBRANCH   9  12
ENDBRANCH   5   9
ENDBRANCH   1   2
BRANCH   1  20
ATOM     19  N   UNL     1      -1.819   6.316  -3.511  0.00  0.00    -0.209 N 
ATOM     20  C   UNL     1      -0.939   5.728  -2.677  0.00  0.00    +0.216 C 
ATOM     21  O   UNL     1      -1.009   5.926  -1.482  0.00  0.00    -0.276 OA
ATOM     22  H   UNL     1      -1.755   6.135  -4.594  0.00  0.00    +0.177 HD
BRANCH  19  24
ATOM     23  C   UNL     1      -3.752   7.604  -3.778  0.00  0.00    +0.138 C 
ATOM     24  N   UNL     1      -2.815   7.157  -2.998  0.00  0.00    -0.188 NA
BRANCH  23  28
ATOM     25  C   UNL     1      -4.433   5.769  -7.545  0.00  0.00    +0.121 A 
ATOM     26  C   UNL     1      -3.768   5.071  -6.545  0.00  0.00    +0.046 A 
ATOM     27  C   UNL     1      -3.544   5.662  -5.321  0.00  0.00    +0.013 A 
ATOM     28  C   UNL     1      -3.988   6.966  -5.086  0.00  0.00    -0.005 A 
ATOM     29  C   UNL     1      -4.662   7.662  -6.093  0.00  0.00    +0.013 A 
ATOM     30  C   UNL     1      -4.877   7.065  -7.316  0.00  0.00    +0.046 A 
BRANCH  25  31
ATOM     31  O   UNL     1      -4.651   5.181  -8.751  0.00  0.00    -0.492 OA
BRANCH  31  32
ATOM     32  C   UNL     1      -5.341   5.955  -9.734  0.00  0.00    +0.229 C 
BRANCH  32  34
ATOM     33  C   UNL     1      -6.231   5.962 -12.068  0.00  0.00    +0.007 C 
ATOM     34  C   UNL     1      -5.492   5.134 -11.016  0.00  0.00    +0.038 C 
ENDBRANCH  32  34
ENDBRANCH  31  32
ENDBRANCH  25  31
ENDBRANCH  23  28
ENDBRANCH  19  24
ENDBRANCH   1  20
TORSDOF 9
