REMARK  Name = ZINC41006301
REMARK  11 active torsions:
REMARK  status: ('A' for Active; 'I' for Inactive)
REMARK    1  A    between atoms: C_1  and  C_2
REMARK    2  A    between atoms: C_5  and  N_9
REMARK    3  A    between atoms: C_6  and  C_8
REMARK    4  A    between atoms: C_10  and  C_12
REMARK    5  A    between atoms: C_14  and  C_35
REMARK    6  A    between atoms: C_16  and  C_24
REMARK    7  A    between atoms: C_18  and  C_22
REMARK    8  A    between atoms: C_18  and  O_23
REMARK    9  A    between atoms: N_26  and  C_27
REMARK   10  A    between atoms: C_30  and  C_34
REMARK   11  A    between atoms: C_32  and  C_33
REMARK                            x       y       z     vdW  Elec       q    Type
REMARK                         _______ _______ _______ _____ _____    ______ ____
ROOT
ATOM      1  C   UNL     1       1.126  -6.616  -1.782  0.00  0.00    +0.149 C 
ATOM      2  C   UNL     1       0.640  -6.791  -3.224  0.00  0.00    +0.053 C 
ATOM      3  C   UNL     1      -0.742  -6.153  -3.375  0.00  0.00    +0.115 C 
ATOM      4  C   UNL     1      -1.751  -6.886  -2.489  0.00  0.00    +0.082 C 
ATOM      5  C   UNL     1      -1.355  -6.715  -1.019  0.00  0.00    +0.110 C 
ATOM      6  C   UNL     1       0.079  -7.178  -0.846  0.00  0.00    +0.148 C 
ATOM      7  O   UNL     1       0.378  -7.976   0.011  0.00  0.00    -0.296 OA
ATOM      8  C   UNL     1      -3.147  -6.300  -2.713  0.00  0.00    +0.042 C 
ENDROOT
BRANCH   2   9
ATOM      9  C   UNL     1       1.608  -6.122  -4.165  0.00  0.00    -0.042 A 
ATOM     10  C   UNL     1       1.629  -4.743  -4.270  0.00  0.00    +0.007 A 
ATOM     11  C   UNL     1       2.516  -4.128  -5.132  0.00  0.00    +0.038 A 
ATOM     12  C   UNL     1       3.386  -4.893  -5.892  0.00  0.00    +0.123 A 
ATOM     13  C   UNL     1       3.364  -6.274  -5.786  0.00  0.00    +0.038 A 
ATOM     14  C   UNL     1       2.479  -6.886  -4.919  0.00  0.00    +0.007 A 
ATOM     15  F   UNL     1       4.254  -4.293  -6.735  0.00  0.00    -0.205 F 
ENDBRANCH   2   9
BRANCH   1  17
ATOM     16  N   UNL     1       0.827  -4.612  -0.363  0.00  0.00    -0.285 N 
ATOM     17  C   UNL     1       1.332  -5.152  -1.490  0.00  0.00    +0.228 C 
ATOM     18  O   UNL     1       1.951  -4.460  -2.270  0.00  0.00    -0.275 OA
ATOM     19  H   UNL     1       0.383  -5.176   0.288  0.00  0.00    +0.155 HD
BRANCH  16  24
ATOM     20  C   UNL     1       1.302   0.964   0.567  0.00  0.00    +0.044 C 
ATOM     21  C   UNL     1       1.176  -0.517   0.320  0.00  0.00    -0.050 A 
ATOM     22  C   UNL     1       2.071  -1.155  -0.519  0.00  0.00    +0.005 A 
ATOM     23  C   UNL     1       1.958  -2.512  -0.747  0.00  0.00    +0.024 A 
ATOM     24  C   UNL     1       0.945  -3.237  -0.134  0.00  0.00    +0.036 A 
ATOM     25  C   UNL     1       0.048  -2.593   0.709  0.00  0.00    -0.029 A 
ATOM     26  C   UNL     1       0.169  -1.236   0.937  0.00  0.00    +0.008 A 
ATOM     27  C   UNL     1      -1.054  -3.375   1.377  0.00  0.00    +0.045 C 
ENDBRANCH  16  24
ENDBRANCH   1  17
BRANCH   3  28
ATOM     28  C   UNL     1      -0.674  -4.705  -2.963  0.00  0.00    +0.224 C 
ATOM     29  O   UNL     1      -0.620  -4.411  -1.788  0.00  0.00    -0.275 OA
ATOM     30  N   UNL     1      -0.672  -3.737  -3.901  0.00  0.00    -0.285 N 
ATOM     31  H   UNL     1      -0.774  -3.969  -4.837  0.00  0.00    +0.155 HD
BRANCH  30  32
ATOM     32  C   UNL     1      -0.522  -2.398  -3.523  0.00  0.00    +0.036 A 
ATOM     33  C   UNL     1      -0.776  -2.012  -2.214  0.00  0.00    +0.024 A 
ATOM     34  C   UNL     1      -0.627  -0.689  -1.844  0.00  0.00    +0.005 A 
ATOM     35  C   UNL     1      -0.227   0.250  -2.777  0.00  0.00    -0.050 A 
ATOM     36  C   UNL     1       0.026  -0.131  -4.082  0.00  0.00    +0.008 A 
ATOM     37  C   UNL     1      -0.115  -1.454  -4.456  0.00  0.00    -0.029 A 
ATOM     38  C   UNL     1       0.168  -1.870  -5.877  0.00  0.00    +0.045 C 
ATOM     39  C   UNL     1      -0.066   1.692  -2.371  0.00  0.00    +0.044 C 
ENDBRANCH  30  32
ENDBRANCH   3  28
BRANCH   4  40
ATOM     40  O   UNL     1      -1.758  -8.275  -2.822  0.00  0.00    -0.388 OA
ATOM     41  H   UNL     1      -2.376  -8.802  -2.298  0.00  0.00    +0.210 HD
ENDBRANCH   4  40
TORSDOF 6
