REMARK  Name = ZINC42994419
REMARK  6 active torsions:
REMARK  status: ('A' for Active; 'I' for Inactive)
REMARK    1  A    between atoms: C_1  and  C_2
REMARK    2  A    between atoms: C_2  and  C_3
REMARK    3  A    between atoms: C_3  and  C_5
REMARK    4  A    between atoms: C_3  and  N_12
REMARK    5  A    between atoms: N_12  and  S_13
REMARK    6  A    between atoms: S_13  and  C_16
REMARK                            x       y       z     vdW  Elec       q    Type
REMARK                         _______ _______ _______ _____ _____    ______ ____
ROOT
ATOM      1  S   UNL     1       0.213   1.244  -3.337  0.00  0.00    +0.059 S 
ATOM      2  O   UNL     1      -0.718   1.336  -4.407  0.00  0.00    -0.153 OA
ATOM      3  O   UNL     1       0.427   2.309  -2.420  0.00  0.00    -0.153 OA
ENDROOT
BRANCH   1   4
ATOM      4  C   UNL     1       1.778   0.881  -4.061  0.00  0.00    +0.107 A 
ATOM      5  C   UNL     1       2.941   1.201  -3.385  0.00  0.00    +0.032 A 
ATOM      6  C   UNL     1       4.173   0.918  -3.946  0.00  0.00    +0.049 A 
ATOM      7  C   UNL     1       4.243   0.312  -5.188  0.00  0.00    +0.142 A 
ATOM      8  C   UNL     1       3.070  -0.010  -5.869  0.00  0.00    +0.078 A 
ATOM      9  C   UNL     1       1.839   0.270  -5.300  0.00  0.00    +0.055 A 
ATOM     10  N   UNL     1       3.155  -0.622  -7.128  0.00  0.00    -0.280 N 
ATOM     11  C   UNL     1       4.329  -1.167  -7.514  0.00  0.00    +0.255 C 
ATOM     12  O   UNL     1       4.434  -1.673  -8.611  0.00  0.00    -0.272 OA
ATOM     13  C   UNL     1       5.508  -1.143  -6.575  0.00  0.00    +0.325 C 
ATOM     14  O   UNL     1       5.446   0.027  -5.754  0.00  0.00    -0.481 OA
ATOM     15  H   UNL     1       2.382  -0.653  -7.713  0.00  0.00    +0.155 HD
ENDBRANCH   1   4
BRANCH   1  16
ATOM     16  N   UNL     1      -0.229  -0.074  -2.438  0.00  0.00    -0.183 NA
ATOM     17  H   UNL     1      -1.007  -0.595  -2.690  0.00  0.00    +0.149 HD
BRANCH  16  18
ATOM     18  C   UNL     1       0.556  -0.453  -1.260  0.00  0.00    +0.106 C 
BRANCH  18  19
ATOM     19  C   UNL     1       1.212  -1.788  -1.502  0.00  0.00    -0.028 A 
ATOM     20  C   UNL     1       0.519  -2.790  -2.157  0.00  0.00    +0.005 A 
ATOM     21  C   UNL     1       1.120  -4.015  -2.380  0.00  0.00    +0.002 A 
ATOM     22  C   UNL     1       2.413  -4.239  -1.947  0.00  0.00    +0.020 A 
ATOM     23  C   UNL     1       3.107  -3.237  -1.292  0.00  0.00    +0.041 A 
ATOM     24  C   UNL     1       2.507  -2.010  -1.075  0.00  0.00    +0.025 A 
ATOM     25 CL   UNL     1       4.731  -3.518  -0.748  0.00  0.00    -0.084 Cl
ENDBRANCH  18  19
BRANCH  18  27
ATOM     26  C   UNL     1      -0.928   0.834   0.285  0.00  0.00    +0.006 C 
ATOM     27  C   UNL     1      -0.366  -0.551  -0.043  0.00  0.00    +0.022 C 
ENDBRANCH  18  27
ENDBRANCH  16  18
ENDBRANCH   1  16
TORSDOF 5
