REMARK  Name = ZINC09008559
REMARK  10 active torsions:
REMARK  status: ('A' for Active; 'I' for Inactive)
REMARK    1  A    between atoms: C_4  and  N_7
REMARK    2  A    between atoms: N_7  and  C_8
REMARK    3  A    between atoms: N_7  and  S_25
REMARK    4  A    between atoms: C_8  and  C_9
REMARK    5  A    between atoms: C_9  and  C_11
REMARK    6  A    between atoms: C_9  and  O_24
REMARK    7  A    between atoms: C_11  and  N_71
REMARK    8  A    between atoms: C_12  and  N_71
REMARK    9  A    between atoms: C_18  and  N_71
REMARK   10  A    between atoms: S_25  and  C_28
REMARK                            x       y       z     vdW  Elec       q    Type
REMARK                         _______ _______ _______ _____ _____    ______ ____
ROOT
ATOM      1  C   UNL     1       2.630  -1.941  -2.820  0.00  0.00    +0.117 C 
ENDROOT
BRANCH   1   2
ATOM      2  O   UNL     1       1.539  -1.437  -2.047  0.00  0.00    -0.392 OA
ATOM      3  H   UNL     1       1.206  -2.059  -1.385  0.00  0.00    +0.210 HD
ENDBRANCH   1   2
BRANCH   1   4
ATOM      4  C   UNL     1       3.772  -2.348  -1.887  0.00  0.00    +0.161 C 
BRANCH   4   5
ATOM      5  N   UNL     1       4.253  -1.169  -1.161  0.00  0.00    -0.201 N 
BRANCH   5   9
ATOM      6  C   UNL     1       7.083   1.338  -2.906  0.00  0.00    +0.000 A 
ATOM      7  C   UNL     1       6.983   1.263  -1.528  0.00  0.00    +0.002 A 
ATOM      8  C   UNL     1       6.045   0.433  -0.947  0.00  0.00    +0.025 A 
ATOM      9  C   UNL     1       5.202  -0.328  -1.746  0.00  0.00    +0.051 A 
ATOM     10  C   UNL     1       5.309  -0.255  -3.129  0.00  0.00    +0.025 A 
ATOM     11  C   UNL     1       6.245   0.582  -3.705  0.00  0.00    +0.002 A 
ENDBRANCH   5   9
BRANCH   5  12
ATOM     12  S   UNL     1       3.672  -0.835   0.353  0.00  0.00    +0.075 S 
ATOM     13  O   UNL     1       2.389  -1.440   0.439  0.00  0.00    -0.150 OA
ATOM     14  O   UNL     1       3.874   0.555   0.568  0.00  0.00    -0.150 OA
BRANCH  12  15
ATOM     15  C   UNL     1       4.704  -1.678   1.506  0.00  0.00    +0.109 A 
ATOM     16  C   UNL     1       5.730  -1.002   2.139  0.00  0.00    +0.029 A 
ATOM     17  C   UNL     1       6.540  -1.663   3.043  0.00  0.00    +0.002 A 
ATOM     18  C   UNL     1       6.324  -3.001   3.314  0.00  0.00    +0.000 A 
ATOM     19  C   UNL     1       5.298  -3.678   2.681  0.00  0.00    +0.002 A 
ATOM     20  C   UNL     1       4.488  -3.016   1.777  0.00  0.00    +0.029 A 
ENDBRANCH  12  15
ENDBRANCH   5  12
ENDBRANCH   4   5
ENDBRANCH   1   4
BRANCH   1  21
ATOM     21  C   UNL     1       2.168  -3.159  -3.622  0.00  0.00    -0.045 C 
BRANCH  21  22
ATOM     22  N   UNL     1       0.964  -2.789  -4.395  0.00  0.00    +0.385 N 
ATOM     23  H   UNL     1       0.339  -2.237  -3.796  0.00  0.00    -0.081 HD
BRANCH  22  24
ATOM     24  C   UNL     1       1.348  -1.974  -5.567  0.00  0.00    -0.068 C 
ATOM     25  C   UNL     1       2.760  -2.339  -6.031  0.00  0.00    -0.015 C 
ATOM     26  C   UNL     1       3.141  -1.474  -7.234  0.00  0.00    -0.002 C 
ATOM     27  C   UNL     1       3.101   0.002  -6.834  0.00  0.00    -0.000 C 
ATOM     28  C   UNL     1       1.690   0.367  -6.370  0.00  0.00    -0.002 C 
ATOM     29  C   UNL     1       1.308  -0.497  -5.167  0.00  0.00    -0.015 C 
ENDBRANCH  22  24
BRANCH  22  30
ATOM     30  C   UNL     1       0.254  -4.007  -4.838  0.00  0.00    -0.068 C 
ATOM     31  C   UNL     1      -1.030  -3.596  -5.563  0.00  0.00    -0.015 C 
ATOM     32  C   UNL     1      -1.788  -4.848  -6.006  0.00  0.00    -0.002 C 
ATOM     33  C   UNL     1      -2.143  -5.691  -4.779  0.00  0.00    -0.000 C 
ATOM     34  C   UNL     1      -0.859  -6.102  -4.055  0.00  0.00    -0.002 C 
ATOM     35  C   UNL     1      -0.101  -4.849  -3.611  0.00  0.00    -0.015 C 
ENDBRANCH  22  30
ENDBRANCH  21  22
ENDBRANCH   1  21
TORSDOF 10
