REMARK  Name = ZINC21812109
REMARK  5 active torsions:
REMARK  status: ('A' for Active; 'I' for Inactive)
REMARK    1  A    between atoms: C_1  and  C_2
REMARK    2  A    between atoms: C_3  and  N_20
REMARK    3  A    between atoms: C_5  and  S_9
REMARK    4  A    between atoms: S_9  and  N_12
REMARK    5  A    between atoms: C_16  and  C_19
REMARK                            x       y       z     vdW  Elec       q    Type
REMARK                         _______ _______ _______ _____ _____    ______ ____
ROOT
ATOM      1  C   UNL     1       1.241  -2.186  -0.021  0.00  0.00    +0.047 C 
ATOM      2  C   UNL     1       1.216  -0.679  -0.013  0.00  0.00    -0.011 A 
ATOM      3  C   UNL     1       0.002  -0.004   0.002  0.00  0.00    +0.031 A 
ATOM      4  C   UNL     1      -0.017   1.385   0.010  0.00  0.00    +0.051 A 
ATOM      5  C   UNL     1       1.171   2.091   0.002  0.00  0.00    +0.109 A 
ATOM      6  C   UNL     1       2.377   1.417  -0.013  0.00  0.00    +0.049 A 
ATOM      7  C   UNL     1       2.400   0.033  -0.021  0.00  0.00    +0.047 A 
ATOM      8 CL   UNL     1       3.918  -0.810  -0.039  0.00  0.00    -0.083 Cl
ENDROOT
BRANCH   5   9
ATOM      9  S   UNL     1       1.147   3.852   0.011  0.00  0.00    +0.061 S 
ATOM     10  O   UNL     1       2.381   4.278  -0.549  0.00  0.00    -0.153 OA
ATOM     11  O   UNL     1      -0.109   4.245  -0.526  0.00  0.00    -0.153 OA
BRANCH   9  12
ATOM     12  N   UNL     1       1.155   4.334   1.596  0.00  0.00    -0.176 NA
ATOM     13  C   UNL     1      -0.105   4.541   2.322  0.00  0.00    +0.109 C 
ATOM     14  C   UNL     1      -0.068   3.707   3.612  0.00  0.00    +0.017 C 
ATOM     15  C   UNL     1       1.185   4.072   4.412  0.00  0.00    +0.006 C 
ATOM     16  C   UNL     1       2.432   3.740   3.589  0.00  0.00    +0.002 C 
ATOM     17  C   UNL     1       2.423   4.569   2.300  0.00  0.00    +0.112 C 
ATOM     18  C   UNL     1       3.684   4.074   4.402  0.00  0.00    +0.009 C 
ENDBRANCH   9  12
ENDBRANCH   5   9
BRANCH   3  19
ATOM     19  N   UNL     1      -1.197  -0.720   0.009  0.00  0.00    -0.358 N 
ATOM     20  H   UNL     1      -2.158  -0.184   0.021  0.00  0.00    +0.142 HD
ATOM     21  H   UNL     1      -1.181  -1.820   0.003  0.00  0.00    +0.142 HD
ENDBRANCH   3  19
TORSDOF 3
