REMARK  Name = ZINC40247784
REMARK  3 active torsions:
REMARK  status: ('A' for Active; 'I' for Inactive)
REMARK    1  A    between atoms: C_8  and  C_11
REMARK    2  A    between atoms: C_11  and  C_13
REMARK    3  A    between atoms: C_11  and  O_25
REMARK                            x       y       z     vdW  Elec       q    Type
REMARK                         _______ _______ _______ _____ _____    ______ ____
ROOT
ATOM      1  C   UNL     1       3.807  -3.236  -0.358  0.00  0.00    +0.185 C 
ENDROOT
BRANCH   1   2
ATOM      2  C   UNL     1       5.279  -3.115  -0.057  0.00  0.00    -0.014 A 
ATOM      3  C   UNL     1       6.043  -2.175  -0.727  0.00  0.00    +0.008 A 
ATOM      4  C   UNL     1       7.393  -2.056  -0.458  0.00  0.00    +0.028 A 
ATOM      5  C   UNL     1       7.984  -2.882   0.486  0.00  0.00    +0.067 A 
ATOM      6  C   UNL     1       7.213  -3.830   1.161  0.00  0.00    +0.067 A 
ATOM      7  C   UNL     1       5.857  -3.938   0.888  0.00  0.00    +0.034 A 
ATOM      8  N   UNL     1       8.069  -4.499   2.033  0.00  0.00    -0.306 N 
ATOM      9  H   UNL     1       7.818  -5.215   2.636  0.00  0.00    +0.170 HD
ATOM     10  C   UNL     1       9.304  -3.982   1.894  0.00  0.00    +0.325 A 
ATOM     11  O   UNL     1      10.288  -4.343   2.512  0.00  0.00    -0.247 OA
ATOM     12  N   UNL     1       9.285  -3.004   0.968  0.00  0.00    -0.306 N 
ATOM     13  H   UNL     1      10.047  -2.475   0.685  0.00  0.00    +0.170 HD
ENDBRANCH   1   2
BRANCH   1  21
ATOM     14  C   UNL     1      -0.017   1.379   0.010  0.00  0.00    +0.000 A 
ATOM     15  C   UNL     1       1.174   2.082   0.002  0.00  0.00    +0.004 A 
ATOM     16  C   UNL     1       2.379   1.411  -0.017  0.00  0.00    +0.046 A 
ATOM     17  C   UNL     1       2.407   0.019  -0.028  0.00  0.00    +0.124 A 
ATOM     18  C   UNL     1       1.204  -0.676  -0.013  0.00  0.00    -0.002 A 
ATOM     19  C   UNL     1       0.002  -0.004   0.002  0.00  0.00    +0.007 A 
ATOM     20  C   UNL     1       1.545  -2.154  -0.005  0.00  0.00    +0.086 C 
ATOM     21  C   UNL     1       3.043  -2.135   0.380  0.00  0.00    +0.211 C 
ATOM     22  O   UNL     1       3.468  -0.833  -0.059  0.00  0.00    -0.485 OA
ENDBRANCH   1  21
BRANCH   1  23
ATOM     23  O   UNL     1       3.595  -3.102  -1.765  0.00  0.00    -0.383 OA
ATOM     24  H   UNL     1       3.892  -2.257  -2.128  0.00  0.00    +0.210 HD
ENDBRANCH   1  23
TORSDOF 3
