REMARK  Name = ZINC18117815
REMARK  6 active torsions:
REMARK  status: ('A' for Active; 'I' for Inactive)
REMARK    1  A    between atoms: C_1  and  O_2
REMARK    2  A    between atoms: O_2  and  C_3
REMARK    3  A    between atoms: C_5  and  C_10
REMARK    4  A    between atoms: C_8  and  O_9
REMARK    5  A    between atoms: N_18  and  C_21
REMARK    6  A    between atoms: N_32  and  C_33
REMARK                            x       y       z     vdW  Elec       q    Type
REMARK                         _______ _______ _______ _____ _____    ______ ____
ROOT
ATOM      1  C   UNL     1       2.462   0.334   4.204  0.00  0.00    +0.157 C 
ATOM      2  C   UNL     1       3.998   0.397   4.033  0.00  0.00    +0.145 C 
ATOM      3  C   UNL     1       4.511  -0.719   4.984  0.00  0.00    +0.249 C 
ATOM      4  C   UNL     1       5.242   0.049   6.062  0.00  0.00    +0.259 C 
ATOM      5  O   UNL     1       5.796  -0.444   7.020  0.00  0.00    -0.272 OA
ATOM      6  N   UNL     1       5.182   1.359   5.792  0.00  0.00    -0.207 N 
ATOM      7  C   UNL     1       4.508   1.676   4.659  0.00  0.00    +0.235 C 
ATOM      8  O   UNL     1       4.335   2.790   4.214  0.00  0.00    -0.274 OA
ATOM      9  O   UNL     1       3.333  -1.335   5.532  0.00  0.00    -0.257 OA
ATOM     10  N   UNL     1       2.300  -0.333   5.519  0.00  0.00    -0.244 N 
ENDROOT
BRANCH   6  11
ATOM     11  C   UNL     1       5.773   2.328   6.611  0.00  0.00    +0.052 A 
ATOM     12  C   UNL     1       7.071   2.730   6.385  0.00  0.00    +0.024 A 
ATOM     13  C   UNL     1       7.668   3.693   7.193  0.00  0.00    +0.002 A 
ATOM     14  C   UNL     1       6.989   4.263   8.226  0.00  0.00    +0.008 A 
ATOM     15  C   UNL     1       5.663   3.880   8.490  0.00  0.00    -0.016 A 
ATOM     16  C   UNL     1       5.043   2.905   7.671  0.00  0.00    +0.004 A 
ATOM     17  C   UNL     1       3.716   2.527   7.933  0.00  0.00    +0.010 A 
ATOM     18  C   UNL     1       3.042   3.105   8.964  0.00  0.00    +0.001 A 
ATOM     19  C   UNL     1       3.649   4.069   9.767  0.00  0.00    +0.001 A 
ATOM     20  C   UNL     1       4.937   4.451   9.550  0.00  0.00    +0.008 A 
ENDBRANCH   6  11
BRANCH  10  21
ATOM     21  C   UNL     1       1.355  -0.052   6.510  0.00  0.00    +0.065 A 
ATOM     22  C   UNL     1       0.418   0.954   6.313  0.00  0.00    +0.029 A 
ATOM     23  C   UNL     1      -0.514   1.229   7.293  0.00  0.00    +0.022 A 
ATOM     24  C   UNL     1      -0.515   0.504   8.472  0.00  0.00    +0.041 A 
ATOM     25  C   UNL     1       0.417  -0.499   8.671  0.00  0.00    +0.022 A 
ATOM     26  C   UNL     1       1.348  -0.782   7.691  0.00  0.00    +0.029 A 
ATOM     27 CL   UNL     1      -1.688   0.853   9.703  0.00  0.00    -0.084 Cl
ENDBRANCH  10  21
BRANCH   1  30
ATOM     28  C   UNL     1       0.626  -0.619   1.042  0.00  0.00    +0.162 A 
ATOM     29  C   UNL     1       1.202   0.137   2.051  0.00  0.00    +0.055 A 
ATOM     30  C   UNL     1       1.836  -0.490   3.108  0.00  0.00    -0.018 A 
ATOM     31  C   UNL     1       1.897  -1.870   3.161  0.00  0.00    +0.009 A 
ATOM     32  C   UNL     1       1.325  -2.630   2.158  0.00  0.00    +0.049 A 
ATOM     33  C   UNL     1       0.683  -2.008   1.099  0.00  0.00    +0.158 A 
BRANCH  28  35
ATOM     34  C   UNL     1      -0.017   1.425   0.010  0.00  0.00    +0.277 C 
ATOM     35  O   UNL     1       0.002  -0.004   0.002  0.00  0.00    -0.491 OA
ENDBRANCH  28  35
BRANCH  33  36
ATOM     36  O   UNL     1       0.115  -2.754   0.114  0.00  0.00    -0.503 OA
ATOM     37  H   UNL     1       0.711  -2.957  -0.620  0.00  0.00    +0.292 HD
ENDBRANCH  33  36
ENDBRANCH   1  30
TORSDOF 5
