REMARK  Name = ZINC09818823
REMARK  5 active torsions:
REMARK  status: ('A' for Active; 'I' for Inactive)
REMARK    1  A    between atoms: C_6  and  S_7
REMARK    2  A    between atoms: S_7  and  N_10
REMARK    3  A    between atoms: C_14  and  C_17
REMARK    4  A    between atoms: C_17  and  C_18
REMARK    5  A    between atoms: N_20  and  C_21
REMARK                            x       y       z     vdW  Elec       q    Type
REMARK                         _______ _______ _______ _____ _____    ______ ____
ROOT
ATOM      1  N   UNL     1      -1.958  -1.136  -1.559  0.00  0.00    -0.103 NA
ATOM      2  C   UNL     1      -3.054  -1.793  -1.846  0.00  0.00    +0.192 A 
ATOM      3  N   UNL     1      -3.590  -2.105  -3.077  0.00  0.00    -0.336 N 
ATOM      4  H   UNL     1      -3.146  -1.831  -3.895  0.00  0.00    +0.168 HD
ATOM      5  C   UNL     1      -4.758  -2.808  -3.119  0.00  0.00    +0.033 A 
ATOM      6  C   UNL     1      -5.358  -3.179  -1.988  0.00  0.00    +0.070 A 
ATOM      7  S   UNL     1      -4.251  -2.533  -0.746  0.00  0.00    -0.057 S 
ENDROOT
BRANCH   1   8
ATOM      8  S   UNL     1      -1.524  -0.898   0.021  0.00  0.00    +0.101 S 
ATOM      9  O   UNL     1      -1.223  -2.179   0.557  0.00  0.00    -0.146 OA
ATOM     10  O   UNL     1      -2.510  -0.047   0.589  0.00  0.00    -0.146 OA
BRANCH   8  16
ATOM     11  C   UNL     1      -0.043   1.395   0.029  0.00  0.00    +0.030 A 
ATOM     12  C   UNL     1       1.140   2.110   0.025  0.00  0.00    +0.022 A 
ATOM     13  C   UNL     1       2.352   1.443   0.008  0.00  0.00    +0.041 A 
ATOM     14  C   UNL     1       2.378   0.059  -0.005  0.00  0.00    +0.022 A 
ATOM     15  C   UNL     1       1.195  -0.654  -0.001  0.00  0.00    +0.030 A 
ATOM     16  C   UNL     1      -0.015   0.013   0.016  0.00  0.00    +0.113 A 
ATOM     17 CL   UNL     1       3.837   2.340   0.003  0.00  0.00    -0.084 Cl
ENDBRANCH   8  16
ENDBRANCH   1   8
BRANCH   5  18
ATOM     18  C   UNL     1      -5.372  -3.166  -4.448  0.00  0.00    +0.149 C 
BRANCH  18  19
ATOM     19  C   UNL     1      -6.213  -2.016  -4.939  0.00  0.00    +0.223 C 
ATOM     20  O   UNL     1      -6.305  -1.005  -4.274  0.00  0.00    -0.275 OA
ATOM     21  N   UNL     1      -6.863  -2.110  -6.115  0.00  0.00    -0.285 N 
ATOM     22  H   UNL     1      -6.737  -2.890  -6.678  0.00  0.00    +0.155 HD
BRANCH  21  23
ATOM     23  C   UNL     1      -7.722  -1.082  -6.526  0.00  0.00    +0.037 A 
ATOM     24  C   UNL     1      -8.878  -1.384  -7.233  0.00  0.00    +0.027 A 
ATOM     25  C   UNL     1      -9.726  -0.371  -7.638  0.00  0.00    +0.051 A 
ATOM     26  C   UNL     1      -9.425   0.949  -7.340  0.00  0.00    +0.166 A 
ATOM     27  C   UNL     1      -8.266   1.254  -6.631  0.00  0.00    +0.168 A 
ATOM     28  C   UNL     1      -7.420   0.238  -6.221  0.00  0.00    +0.072 A 
ATOM     29  O   UNL     1      -8.198   2.608  -6.468  0.00  0.00    -0.453 OA
ATOM     30  C   UNL     1      -9.112   3.158  -7.436  0.00  0.00    +0.466 C 
ATOM     31  O   UNL     1     -10.084   2.112  -7.622  0.00  0.00    -0.453 OA
ENDBRANCH  21  23
ENDBRANCH  18  19
ENDBRANCH   5  18
TORSDOF 5
