REMARK  Name = ZINC09662193
REMARK  8 active torsions:
REMARK  status: ('A' for Active; 'I' for Inactive)
REMARK    1  A    between atoms: C_1  and  O_2
REMARK    2  A    between atoms: O_2  and  C_3
REMARK    3  A    between atoms: C_6  and  N_9
REMARK    4  A    between atoms: N_9  and  S_10
REMARK    5  A    between atoms: S_10  and  C_13
REMARK    6  A    between atoms: C_17  and  N_19
REMARK    7  A    between atoms: N_19  and  C_20
REMARK    8  A    between atoms: N_25  and  C_28
REMARK                            x       y       z     vdW  Elec       q    Type
REMARK                         _______ _______ _______ _____ _____    ______ ____
ROOT
ATOM      1  C   UNL     1       1.057  -5.342   2.919  0.00  0.00    +0.110 A 
ATOM      2  C   UNL     1       0.126  -5.660   1.947  0.00  0.00    +0.029 A 
ATOM      3  C   UNL     1       0.334  -6.745   1.115  0.00  0.00    +0.004 A 
ATOM      4  C   UNL     1       1.472  -7.515   1.253  0.00  0.00    +0.023 A 
ATOM      5  C   UNL     1       2.409  -7.198   2.229  0.00  0.00    +0.030 A 
ATOM      6  C   UNL     1       2.200  -6.104   3.059  0.00  0.00    +0.051 A 
ENDROOT
BRANCH   1   7
ATOM      7  S   UNL     1       0.788  -3.958   3.976  0.00  0.00    +0.072 S 
ATOM      8  O   UNL     1       1.641  -4.133   5.099  0.00  0.00    -0.150 OA
ATOM      9  O   UNL     1      -0.620  -3.813   4.104  0.00  0.00    -0.150 OA
BRANCH   7  10
ATOM     10  N   UNL     1       1.331  -2.615   3.173  0.00  0.00    -0.216 N 
ATOM     11  H   UNL     1       0.714  -1.900   2.952  0.00  0.00    +0.174 HD
BRANCH  10  15
ATOM     12  C   UNL     1       5.348  -2.310   2.102  0.00  0.00    +0.120 A 
ATOM     13  C   UNL     1       4.359  -2.003   1.179  0.00  0.00    +0.047 A 
ATOM     14  C   UNL     1       3.028  -2.104   1.533  0.00  0.00    +0.028 A 
ATOM     15  C   UNL     1       2.679  -2.513   2.814  0.00  0.00    +0.048 A 
ATOM     16  C   UNL     1       3.670  -2.821   3.737  0.00  0.00    +0.028 A 
ATOM     17  C   UNL     1       5.000  -2.724   3.379  0.00  0.00    +0.047 A 
BRANCH  12  19
ATOM     18  C   UNL     1       6.943  -1.777   0.421  0.00  0.00    +0.277 C 
ATOM     19  O   UNL     1       6.658  -2.210   1.753  0.00  0.00    -0.495 OA
ENDBRANCH  12  19
ENDBRANCH  10  15
ENDBRANCH   7  10
ENDBRANCH   1   7
BRANCH   5  20
ATOM     20  N   UNL     1       3.561  -7.975   2.371  0.00  0.00    -0.332 N 
ATOM     21  H   UNL     1       4.214  -7.753   3.052  0.00  0.00    +0.147 HD
BRANCH  20  22
ATOM     22  C   UNL     1       3.782  -9.125   1.491  0.00  0.00    +0.166 C 
ATOM     23  C   UNL     1       4.747 -10.133   2.148  0.00  0.00    +0.128 C 
ATOM     24  C   UNL     1       5.921 -10.174   1.193  0.00  0.00    +0.228 C 
ATOM     25  O   UNL     1       6.917 -10.851   1.333  0.00  0.00    -0.275 OA
ATOM     26  N   UNL     1       5.685  -9.344   0.170  0.00  0.00    -0.209 N 
ATOM     27  C   UNL     1       4.508  -8.701   0.233  0.00  0.00    +0.247 C 
ATOM     28  O   UNL     1       4.093  -7.909  -0.585  0.00  0.00    -0.273 OA
BRANCH  26  29
ATOM     29  C   UNL     1       6.592  -9.162  -0.884  0.00  0.00    +0.044 A 
ATOM     30  C   UNL     1       6.845 -10.199  -1.771  0.00  0.00    +0.025 A 
ATOM     31  C   UNL     1       7.739 -10.017  -2.808  0.00  0.00    +0.022 A 
ATOM     32  C   UNL     1       8.383  -8.802  -2.963  0.00  0.00    +0.041 A 
ATOM     33  C   UNL     1       8.133  -7.767  -2.079  0.00  0.00    +0.022 A 
ATOM     34  C   UNL     1       7.235  -7.942  -1.044  0.00  0.00    +0.025 A 
ATOM     35 CL   UNL     1       9.506  -8.576  -4.267  0.00  0.00    -0.084 Cl
ENDBRANCH  26  29
ENDBRANCH  20  22
ENDBRANCH   5  20
TORSDOF 7
