REMARK  Name = ZINC36637946
REMARK  11 active torsions:
REMARK  status: ('A' for Active; 'I' for Inactive)
REMARK    1  A    between atoms: C_1  and  C_2
REMARK    2  A    between atoms: C_2  and  N_3
REMARK    3  A    between atoms: N_3  and  C_4
REMARK    4  A    between atoms: N_3  and  C_6
REMARK    5  A    between atoms: C_4  and  C_5
REMARK    6  A    between atoms: C_6  and  C_7
REMARK    7  A    between atoms: C_7  and  N_8
REMARK    8  A    between atoms: C_12  and  C_18
REMARK    9  A    between atoms: C_19  and  C_21
REMARK   10  A    between atoms: C_24  and  S_27
REMARK   11  A    between atoms: S_27  and  N_30
REMARK                            x       y       z     vdW  Elec       q    Type
REMARK                         _______ _______ _______ _____ _____    ______ ____
ROOT
ATOM      1  N   UNL     1      -2.135  -4.395  -0.340  0.00  0.00    -0.248 N 
ATOM      2  C   UNL     1      -1.535  -4.952   0.777  0.00  0.00    +0.168 A 
ATOM      3  N   UNL     1      -0.258  -5.110   1.033  0.00  0.00    -0.224 NA
ATOM      4  C   UNL     1       0.189  -5.675   2.176  0.00  0.00    +0.083 A 
ATOM      5  C   UNL     1       1.528  -5.903   2.572  0.00  0.00    -0.024 A 
ATOM      6  C   UNL     1       1.810  -6.494   3.775  0.00  0.00    +0.005 A 
ATOM      7  C   UNL     1       0.803  -6.888   4.644  0.00  0.00    +0.001 A 
ATOM      8  C   UNL     1      -0.517  -6.681   4.289  0.00  0.00    +0.017 A 
ATOM      9  C   UNL     1      -0.810  -6.090   3.085  0.00  0.00    +0.041 A 
ATOM     10  S   UNL     1      -2.304  -5.632   2.240  0.00  0.00    -0.052 S 
ATOM     11  C   UNL     1       2.655  -5.491   1.661  0.00  0.00    +0.046 C 
ATOM     12  C   UNL     1      -2.070  -5.030  -1.527  0.00  0.00    +0.252 C 
ATOM     13  O   UNL     1      -2.474  -4.481  -2.533  0.00  0.00    -0.270 OA
ENDROOT
BRANCH  12  14
ATOM     14  C   UNL     1      -1.507  -6.395  -1.605  0.00  0.00    +0.037 A 
ATOM     15  C   UNL     1      -1.543  -7.233  -0.489  0.00  0.00    +0.015 A 
ATOM     16  C   UNL     1      -1.016  -8.505  -0.569  0.00  0.00    +0.029 A 
ATOM     17  C   UNL     1      -0.452  -8.951  -1.751  0.00  0.00    +0.106 A 
ATOM     18  C   UNL     1      -0.413  -8.126  -2.861  0.00  0.00    +0.029 A 
ATOM     19  C   UNL     1      -0.942  -6.853  -2.797  0.00  0.00    +0.015 A 
BRANCH  17  20
ATOM     20  S   UNL     1       0.220 -10.578  -1.844  0.00  0.00    +0.061 S 
ATOM     21  O   UNL     1       1.177 -10.562  -2.894  0.00  0.00    -0.153 OA
ATOM     22  O   UNL     1       0.552 -10.956  -0.515  0.00  0.00    -0.153 OA
BRANCH  20  23
ATOM     23  N   UNL     1      -1.001 -11.585  -2.332  0.00  0.00    -0.177 NA
ATOM     24  C   UNL     1      -1.874 -12.235  -1.345  0.00  0.00    +0.109 C 
ATOM     25  C   UNL     1      -3.333 -11.927  -1.698  0.00  0.00    +0.017 C 
ATOM     26  C   UNL     1      -3.602 -12.342  -3.146  0.00  0.00    +0.003 C 
ATOM     27  C   UNL     1      -2.698 -11.541  -4.085  0.00  0.00    +0.017 C 
ATOM     28  C   UNL     1      -1.236 -11.840  -3.760  0.00  0.00    +0.109 C 
ENDBRANCH  20  23
ENDBRANCH  17  20
ENDBRANCH  12  14
BRANCH   1  29
ATOM     29  C   UNL     1      -2.839  -3.115  -0.232  0.00  0.00    +0.097 C 
BRANCH  29  30
ATOM     30  C   UNL     1      -1.861  -1.970  -0.501  0.00  0.00    -0.059 C 
BRANCH  30  31
ATOM     31  N   UNL     1      -2.591  -0.696  -0.514  0.00  0.00    +0.380 N 
ATOM     32  H   UNL     1      -3.241  -0.688  -1.286  0.00  0.00    -0.082 HD
BRANCH  31  34
ATOM     33  C   UNL     1      -4.186   0.724   0.685  0.00  0.00    -0.017 C 
ATOM     34  C   UNL     1      -3.328  -0.541   0.747  0.00  0.00    -0.082 C 
ENDBRANCH  31  34
BRANCH  31  35
ATOM     35  C   UNL     1      -1.639   0.413  -0.664  0.00  0.00    -0.082 C 
ATOM     36  C   UNL     1      -1.010   0.360  -2.058  0.00  0.00    -0.017 C 
ENDBRANCH  31  35
ENDBRANCH  30  31
ENDBRANCH  29  30
ENDBRANCH   1  29
TORSDOF 8
