REMARK  Name = ZINC03051178
REMARK  7 active torsions:
REMARK  status: ('A' for Active; 'I' for Inactive)
REMARK    1  A    between atoms: N_7  and  C_23
REMARK    2  A    between atoms: C_11  and  C_12
REMARK    3  A    between atoms: C_15  and  C_18
REMARK    4  A    between atoms: C_23  and  C_24
REMARK    5  A    between atoms: N_26  and  C_27
REMARK    6  A    between atoms: C_27  and  C_28
REMARK    7  A    between atoms: C_28  and  N_29
REMARK                            x       y       z     vdW  Elec       q    Type
REMARK                         _______ _______ _______ _____ _____    ______ ____
ROOT
ATOM      1  C   UNL     1      -2.373   9.914   6.128  0.00  0.00    +0.002 A 
ATOM      2  C   UNL     1      -2.221  10.647   7.291  0.00  0.00    +0.001 A 
ATOM      3  C   UNL     1      -0.957  10.944   7.751  0.00  0.00    +0.017 A 
ATOM      4  C   UNL     1       0.157  10.522   7.042  0.00  0.00    +0.034 A 
ATOM      5  C   UNL     1       0.017   9.786   5.866  0.00  0.00    +0.051 A 
ATOM      6  C   UNL     1      -1.270   9.486   5.420  0.00  0.00    +0.024 A 
ATOM      7  N   UNL     1       1.099   9.334   5.122  0.00  0.00    -0.257 N 
ATOM      8  C   UNL     1       2.355   9.186   5.551  0.00  0.00    +0.258 C 
ATOM      9  O   UNL     1       3.191   8.699   4.814  0.00  0.00    -0.269 OA
ATOM     10  C   UNL     1       2.738   9.611   6.917  0.00  0.00    +0.076 C 
ATOM     11  C   UNL     1       3.763   9.031   7.587  0.00  0.00    +0.028 C 
ATOM     12  S   UNL     1       1.777  10.923   7.624  0.00  0.00    -0.082 S 
ENDROOT
BRANCH  11  13
ATOM     13  C   UNL     1       4.209   9.587   8.873  0.00  0.00    -0.024 A 
ATOM     14  C   UNL     1       4.124  10.963   9.111  0.00  0.00    +0.008 A 
ATOM     15  C   UNL     1       4.539  11.477  10.322  0.00  0.00    +0.013 A 
ATOM     16  C   UNL     1       5.048  10.636  11.296  0.00  0.00    +0.055 A 
ATOM     17  C   UNL     1       5.141   9.274  11.066  0.00  0.00    +0.013 A 
ATOM     18  C   UNL     1       4.725   8.744   9.863  0.00  0.00    +0.008 A 
BRANCH  16  19
ATOM     19  C   UNL     1       5.505  11.206  12.614  0.00  0.00    +0.417 C 
ATOM     20  F   UNL     1       6.859  11.548  12.530  0.00  0.00    -0.166 F 
ATOM     21  F   UNL     1       4.754  12.347  12.914  0.00  0.00    -0.166 F 
ATOM     22  F   UNL     1       5.327  10.252  13.622  0.00  0.00    -0.166 F 
ENDBRANCH  16  19
ENDBRANCH  11  13
BRANCH   7  23
ATOM     23  C   UNL     1       0.837   8.988   3.723  0.00  0.00    +0.209 C 
BRANCH  23  24
ATOM     24  C   UNL     1       0.459   7.532   3.628  0.00  0.00    +0.231 C 
ATOM     25  O   UNL     1       0.413   6.850   4.630  0.00  0.00    -0.274 OA
ATOM     26  N   UNL     1       0.172   6.987   2.429  0.00  0.00    -0.316 N 
ATOM     27  H   UNL     1       0.213   7.605   1.520  0.00  0.00    +0.149 HD
BRANCH  26  28
ATOM     28  C   UNL     1      -0.196   5.572   2.337  0.00  0.00    +0.086 C 
BRANCH  28  29
ATOM     29  C   UNL     1      -0.469   5.211   0.875  0.00  0.00    -0.060 C 
BRANCH  29  30
ATOM     30  N   UNL     1      -0.838   3.792   0.782  0.00  0.00    +0.381 N 
ATOM     31  C   UNL     1       0.263   2.925   1.261  0.00  0.00    -0.079 C 
ATOM     32  C   UNL     1       0.044   1.472   0.935  0.00  0.00    -0.019 C 
ATOM     33  C   UNL     1       0.752   1.159  -0.400  0.00  0.00    -0.002 C 
ATOM     34  C   UNL     1      -0.019   1.614  -1.551  0.00  0.00    -0.002 C 
ATOM     35  C   UNL     1      -0.235   3.142  -1.540  0.00  0.00    -0.019 C 
ATOM     36  C   UNL     1      -1.339   3.461  -0.570  0.00  0.00    -0.079 C 
ATOM     37  H   UNL     1      -1.680   3.598   1.463  0.00  0.00    -0.082 HD
ENDBRANCH  29  30
ENDBRANCH  28  29
ENDBRANCH  26  28
ENDBRANCH  23  24
ENDBRANCH   7  23
TORSDOF 7
