REMARK  Name = ZINC54699945
REMARK  2 active torsions:
REMARK  status: ('A' for Active; 'I' for Inactive)
REMARK    1  A    between atoms: C_3  and  C_6
REMARK    2  A    between atoms: C_8  and  C_12
REMARK                            x       y       z     vdW  Elec       q    Type
REMARK                         _______ _______ _______ _____ _____    ______ ____
ROOT
ATOM      1  C   UNL     1       3.740   1.826  -0.025  0.00  0.00    +0.188 A 
ATOM      2  N   UNL     1       4.837   1.059  -0.044  0.00  0.00    -0.206 NA
ATOM      3  C   UNL     1       5.913   1.823  -0.050  0.00  0.00    +0.163 A 
ATOM      4  N   UNL     1       5.503   3.121  -0.033  0.00  0.00    -0.258 N 
ATOM      5  H   UNL     1       6.069   3.909  -0.032  0.00  0.00    +0.191 HD
ATOM      6  N   UNL     1       4.099   3.092  -0.022  0.00  0.00    -0.151 NA
ENDROOT
BRANCH   3   7
ATOM      7  C   UNL     1       7.308   1.355  -0.070  0.00  0.00    +0.057 A 
ATOM      8  C   UNL     1       7.788   0.070  -0.093  0.00  0.00    +0.020 A 
ATOM      9  C   UNL     1       9.150  -0.127  -0.109  0.00  0.00    +0.023 A 
ATOM     10  C   UNL     1       9.975   0.955  -0.102  0.00  0.00    +0.056 A 
ATOM     11  S   UNL     1       8.815   2.311  -0.078  0.00  0.00    -0.078 S 
ATOM     12 BR   UNL     1      11.866   1.007  -0.118  0.00  0.00    -0.043 Br
ENDBRANCH   3   7
BRANCH   1  15
ATOM     13  C   UNL     1      -0.016   1.353   0.009  0.00  0.00    +0.008 A 
ATOM     14  C   UNL     1       1.178   2.041   0.002  0.00  0.00    +0.019 A 
ATOM     15  C   UNL     1       2.347   1.329  -0.013  0.00  0.00    +0.058 A 
ATOM     16  S   UNL     1       1.752  -0.354  -0.017  0.00  0.00    -0.093 S 
ATOM     17  C   UNL     1       0.002  -0.004   0.002  0.00  0.00    +0.046 A 
ENDBRANCH   1  15
TORSDOF 2
