REMARK  Name = ZINC22360794
REMARK  9 active torsions:
REMARK  status: ('A' for Active; 'I' for Inactive)
REMARK    1  A    between atoms: C_1  and  C_2
REMARK    2  A    between atoms: C_7  and  N_8
REMARK    3  A    between atoms: C_9  and  C_11
REMARK    4  A    between atoms: C_11  and  C_13
REMARK    5  A    between atoms: C_11  and  S_14
REMARK    6  A    between atoms: S_14  and  C_15
REMARK    7  A    between atoms: C_16  and  C_23
REMARK    8  A    between atoms: C_17  and  C_22
REMARK    9  A    between atoms: C_19  and  C_21
REMARK                            x       y       z     vdW  Elec       q    Type
REMARK                         _______ _______ _______ _____ _____    ______ ____
ROOT
ATOM      1  C   UNL     1       4.858   1.482  -0.251  0.00  0.00    +0.136 C 
ATOM      2  C   UNL     1       5.315   1.008   1.130  0.00  0.00    +0.029 C 
ENDROOT
BRANCH   1   4
ATOM      3  N   UNL     1       2.396   1.532  -0.012  0.00  0.00    -0.284 N 
ATOM      4  C   UNL     1       3.550   2.220  -0.121  0.00  0.00    +0.230 C 
ATOM      5  O   UNL     1       3.537   3.433  -0.115  0.00  0.00    -0.274 OA
ATOM      6  H   UNL     1       2.415   0.434   0.057  0.00  0.00    +0.155 HD
BRANCH   3  13
ATOM      7  C   UNL     1       0.145   0.301  -1.240  0.00  0.00    +0.045 C 
ATOM      8  C   UNL     1       0.051   1.650  -0.574  0.00  0.00    -0.029 A 
ATOM      9  C   UNL     1      -1.153   2.327  -0.552  0.00  0.00    +0.008 A 
ATOM     10  C   UNL     1      -1.243   3.562   0.063  0.00  0.00    +0.039 A 
ATOM     11  C   UNL     1      -0.123   4.129   0.650  0.00  0.00    +0.125 A 
ATOM     12  C   UNL     1       1.085   3.457   0.626  0.00  0.00    +0.062 A 
ATOM     13  C   UNL     1       1.175   2.214   0.013  0.00  0.00    +0.039 A 
ATOM     14  F   UNL     1      -0.213   5.338   1.245  0.00  0.00    -0.205 F 
ENDBRANCH   3  13
ENDBRANCH   1   4
BRANCH   1  15
ATOM     15  S   UNL     1       6.107   2.587  -0.954  0.00  0.00    -0.092 S 
BRANCH  15  16
ATOM     16  C   UNL     1       7.449   1.458  -1.132  0.00  0.00    +0.115 A 
ATOM     17  C   UNL     1       8.673   1.904  -1.662  0.00  0.00    +0.086 A 
ATOM     18  C   UNL     1       9.723   0.989  -1.794  0.00  0.00    -0.029 A 
ATOM     19  C   UNL     1       9.509  -0.319  -1.395  0.00  0.00    +0.027 A 
ATOM     20  C   UNL     1       8.277  -0.683  -0.883  0.00  0.00    +0.040 A 
ATOM     21  N   UNL     1       7.301   0.195  -0.761  0.00  0.00    -0.244 NA
ATOM     22  C   UNL     1       8.048  -2.108  -0.450  0.00  0.00    +0.065 C 
ATOM     23  C   UNL     1      11.054   1.417  -2.356  0.00  0.00    +0.045 C 
BRANCH  17  24
ATOM     24  C   UNL     1       8.841   3.269  -2.060  0.00  0.00    +0.102 C 
ATOM     25  N   UNL     1       8.975   4.353  -2.375  0.00  0.00    -0.191 NA
ENDBRANCH  17  24
ENDBRANCH  15  16
ENDBRANCH   1  15
TORSDOF 5
