REMARK  Name = ZINC08438399
REMARK  12 active torsions:
REMARK  status: ('A' for Active; 'I' for Inactive)
REMARK    1  A    between atoms: C_1  and  C_2
REMARK    2  A    between atoms: C_2  and  O_3
REMARK    3  A    between atoms: O_3  and  C_4
REMARK    4  A    between atoms: C_4  and  C_6
REMARK    5  A    between atoms: C_7  and  N_27
REMARK    6  A    between atoms: C_10  and  C_11
REMARK    7  A    between atoms: C_13  and  C_24
REMARK    8  A    between atoms: N_14  and  C_17
REMARK    9  A    between atoms: C_15  and  C_16
REMARK   10  A    between atoms: C_21  and  C_23
REMARK   11  A    between atoms: N_27  and  C_28
REMARK   12  A    between atoms: C_31  and  C_34
REMARK                            x       y       z     vdW  Elec       q    Type
REMARK                         _______ _______ _______ _____ _____    ______ ____
ROOT
ATOM      1  C   UNL     1       0.724   3.674   0.248  0.00  0.00    +0.134 C 
ATOM      2  C   UNL     1      -0.635   3.991   0.241  0.00  0.00    +0.088 C 
ATOM      3  S   UNL     1      -1.451   2.495   0.535  0.00  0.00    -0.069 S 
ATOM      4  C   UNL     1      -0.057   1.398   0.688  0.00  0.00    +0.062 C 
ATOM      5  C   UNL     1      -0.053   0.060   0.930  0.00  0.00    +0.028 C 
ATOM      6  C   UNL     1       1.088   2.297   0.483  0.00  0.00    +0.209 C 
ATOM      7  O   UNL     1       2.246   1.913   0.510  0.00  0.00    -0.286 OA
ENDROOT
BRANCH   5   8
ATOM      8  C   UNL     1      -1.319  -0.657   1.107  0.00  0.00    -0.003 A 
ATOM      9  C   UNL     1      -2.672  -0.088   1.054  0.00  0.00    +0.031 A 
ATOM     10  C   UNL     1      -3.524  -1.104   1.270  0.00  0.00    +0.022 A 
ATOM     11  N   UNL     1      -2.812  -2.257   1.452  0.00  0.00    -0.317 N 
ATOM     12  C   UNL     1      -1.483  -2.007   1.351  0.00  0.00    +0.028 A 
ATOM     13  C   UNL     1      -0.378  -3.024   1.484  0.00  0.00    +0.064 C 
ATOM     14  C   UNL     1      -5.026  -0.991   1.306  0.00  0.00    +0.064 C 
BRANCH  11  15
ATOM     15  C   UNL     1      -3.375  -3.516   1.699  0.00  0.00    +0.047 A 
ATOM     16  C   UNL     1      -3.145  -4.155   2.911  0.00  0.00    +0.026 A 
ATOM     17  C   UNL     1      -3.704  -5.394   3.154  0.00  0.00    +0.002 A 
ATOM     18  C   UNL     1      -4.485  -6.003   2.188  0.00  0.00    +0.003 A 
ATOM     19  C   UNL     1      -4.712  -5.372   0.979  0.00  0.00    -0.048 A 
ATOM     20  C   UNL     1      -4.159  -4.130   0.732  0.00  0.00    +0.029 A 
ATOM     21  C   UNL     1      -5.563  -6.039  -0.070  0.00  0.00    +0.044 C 
ENDBRANCH  11  15
ENDBRANCH   5   8
BRANCH   1  22
ATOM     22  C   UNL     1       1.712   4.668   0.032  0.00  0.00    +0.345 C 
ATOM     23  O   UNL     1       1.381   5.823  -0.165  0.00  0.00    -0.245 OA
BRANCH  22  24
ATOM     24  O   UNL     1       3.019   4.334   0.043  0.00  0.00    -0.461 OA
BRANCH  24  26
ATOM     25  C   UNL     1       5.380   4.820  -0.132  0.00  0.00    +0.048 C 
ATOM     26  C   UNL     1       3.960   5.386  -0.181  0.00  0.00    +0.229 C 
ENDBRANCH  24  26
ENDBRANCH  22  24
ENDBRANCH   1  22
BRANCH   2  27
ATOM     27  N   UNL     1      -1.201   5.222   0.039  0.00  0.00    -0.308 N 
ATOM     28  H   UNL     1      -0.637   6.008  -0.040  0.00  0.00    +0.153 HD
BRANCH  27  29
ATOM     29  C   UNL     1      -2.590   5.346  -0.053  0.00  0.00    +0.032 A 
ATOM     30  C   UNL     1      -3.339   4.347  -0.662  0.00  0.00    +0.023 A 
ATOM     31  C   UNL     1      -4.712   4.470  -0.747  0.00  0.00    +0.005 A 
ATOM     32  C   UNL     1      -5.340   5.591  -0.237  0.00  0.00    -0.050 A 
ATOM     33  C   UNL     1      -4.597   6.590   0.366  0.00  0.00    +0.005 A 
ATOM     34  C   UNL     1      -3.224   6.470   0.459  0.00  0.00    +0.023 A 
ATOM     35  C   UNL     1      -6.838   5.725  -0.337  0.00  0.00    +0.044 C 
ENDBRANCH  27  29
ENDBRANCH   2  27
TORSDOF 7
