REMARK  Name = ZINC43607523
REMARK  5 active torsions:
REMARK  status: ('A' for Active; 'I' for Inactive)
REMARK    1  A    between atoms: C_1  and  C_2
REMARK    2  A    between atoms: C_5  and  C_8
REMARK    3  A    between atoms: C_15  and  C_18
REMARK    4  A    between atoms: C_18  and  N_19
REMARK    5  A    between atoms: C_20  and  C_22
REMARK                            x       y       z     vdW  Elec       q    Type
REMARK                         _______ _______ _______ _____ _____    ______ ____
ROOT
ATOM      1  C   UNL     1       0.061  -4.208   0.126  0.00  0.00    +0.042 A 
ATOM      2  C   UNL     1       0.071  -4.948  -1.052  0.00  0.00    +0.013 A 
ATOM      3  C   UNL     1       0.089  -6.327  -1.005  0.00  0.00    +0.001 A 
ATOM      4  C   UNL     1       0.094  -6.977   0.218  0.00  0.00    +0.007 A 
ATOM      5  C   UNL     1       0.081  -6.251   1.389  0.00  0.00    -0.002 A 
ATOM      6  C   UNL     1       0.076  -4.864   1.367  0.00  0.00    +0.133 A 
ATOM      7  O   UNL     1       0.093  -4.349   2.626  0.00  0.00    -0.486 OA
ATOM      8  C   UNL     1      -0.329  -5.361   3.557  0.00  0.00    +0.195 C 
ATOM      9  C   UNL     1       0.070  -6.672   2.847  0.00  0.00    +0.085 C 
ENDROOT
BRANCH   1  14
ATOM     10  C   UNL     1      -0.018   1.503   0.010  0.00  0.00    +0.045 C 
ATOM     11  C   UNL     1       0.002  -0.004   0.002  0.00  0.00    -0.032 A 
ATOM     12  C   UNL     1       0.006  -0.698  -1.200  0.00  0.00    +0.007 A 
ATOM     13  C   UNL     1       0.025  -2.081  -1.165  0.00  0.00    +0.029 A 
ATOM     14  C   UNL     1       0.040  -2.727   0.071  0.00  0.00    +0.074 A 
ATOM     15  N   UNL     1       0.036  -2.026   1.198  0.00  0.00    -0.255 NA
ATOM     16  C   UNL     1       0.023  -0.708   1.191  0.00  0.00    +0.114 A 
ENDBRANCH   1  14
BRANCH   8  17
ATOM     17  C   UNL     1       0.403  -5.209   4.892  0.00  0.00    +0.149 C 
BRANCH  17  18
ATOM     18  N   UNL     1      -0.007  -3.958   5.535  0.00  0.00    -0.312 N 
ATOM     19  C   UNL     1       0.512  -3.612   6.729  0.00  0.00    +0.217 C 
ATOM     20  O   UNL     1       1.319  -4.337   7.272  0.00  0.00    -0.275 OA
ATOM     21  H   UNL     1      -0.653  -3.379   5.101  0.00  0.00    +0.149 HD
BRANCH  19  22
ATOM     22  C   UNL     1       0.089  -2.326   7.391  0.00  0.00    +0.082 C 
ATOM     23  C   UNL     1      -1.421  -2.360   7.732  0.00  0.00    +0.021 C 
ATOM     24  C   UNL     1      -1.452  -2.222   9.287  0.00  0.00    +0.013 C 
ATOM     25  C   UNL     1      -0.251  -1.231   9.508  0.00  0.00    +0.016 C 
ATOM     26  C   UNL     1       0.782  -2.170   8.782  0.00  0.00    +0.024 C 
ATOM     27  C   UNL     1       0.480  -3.491   9.499  0.00  0.00    -0.027 C 
ATOM     28  C   UNL     1      -0.833  -3.532   9.790  0.00  0.00    -0.027 C 
ENDBRANCH  19  22
ENDBRANCH  17  18
ENDBRANCH   8  17
TORSDOF 4
