REMARK  Name = ZINC09390700
REMARK  8 active torsions:
REMARK  status: ('A' for Active; 'I' for Inactive)
REMARK    1  A    between atoms: C_1  and  C_2
REMARK    2  A    between atoms: C_3  and  C_26
REMARK    3  A    between atoms: C_5  and  N_10
REMARK    4  A    between atoms: C_6  and  C_7
REMARK    5  A    between atoms: C_11  and  C_13
REMARK    6  A    between atoms: C_13  and  C_14
REMARK    7  A    between atoms: C_13  and  C_20
REMARK    8  A    between atoms: C_26  and  C_27
REMARK                            x       y       z     vdW  Elec       q    Type
REMARK                         _______ _______ _______ _____ _____    ______ ____
ROOT
ATOM      1  C   UNL     1      -7.365   1.770  -1.600  0.00  0.00    +0.045 C 
ATOM      2  C   UNL     1      -5.897   2.067  -1.762  0.00  0.00    -0.026 A 
ATOM      3  C   UNL     1      -5.445   2.846  -2.761  0.00  0.00    -0.000 A 
ATOM      4  S   UNL     1      -3.684   2.870  -2.498  0.00  0.00    -0.077 S 
ATOM      5  C   UNL     1      -3.588   1.864  -1.091  0.00  0.00    +0.084 A 
ATOM      6  C   UNL     1      -4.915   1.523  -0.855  0.00  0.00    +0.068 A 
ENDROOT
BRANCH   6   7
ATOM      7  C   UNL     1      -5.298   0.656   0.264  0.00  0.00    +0.244 C 
ATOM      8  O   UNL     1      -5.565   1.143   1.347  0.00  0.00    -0.270 OA
ATOM      9  N   UNL     1      -5.355  -0.679   0.093  0.00  0.00    -0.325 N 
ATOM     10  H   UNL     1      -5.143  -1.067  -0.770  0.00  0.00    +0.145 HD
ATOM     11  H   UNL     1      -5.609  -1.252   0.834  0.00  0.00    +0.145 HD
ENDBRANCH   6   7
BRANCH   5  12
ATOM     12  N   UNL     1      -2.461   1.485  -0.378  0.00  0.00    -0.279 N 
ATOM     13  C   UNL     1      -1.243   1.914  -0.765  0.00  0.00    +0.229 C 
ATOM     14  O   UNL     1      -1.134   2.632  -1.736  0.00  0.00    -0.274 OA
ATOM     15  H   UNL     1      -2.549   0.911   0.399  0.00  0.00    +0.155 HD
BRANCH  13  16
ATOM     16  C   UNL     1      -0.018   1.503   0.010  0.00  0.00    +0.135 C 
BRANCH  16  17
ATOM     17  C   UNL     1       0.104   0.001  -0.004  0.00  0.00    -0.031 A 
ATOM     18  C   UNL     1       0.040  -0.687  -1.201  0.00  0.00    +0.005 A 
ATOM     19  C   UNL     1       0.158  -2.064  -1.214  0.00  0.00    +0.000 A 
ATOM     20  C   UNL     1       0.327  -2.755  -0.029  0.00  0.00    +0.000 A 
ATOM     21  C   UNL     1       0.385  -2.068   1.169  0.00  0.00    +0.000 A 
ATOM     22  C   UNL     1       0.273  -0.690   1.182  0.00  0.00    +0.005 A 
ENDBRANCH  16  17
BRANCH  16  23
ATOM     23  C   UNL     1       1.206   2.112  -0.624  0.00  0.00    -0.031 A 
ATOM     24  C   UNL     1       1.454   1.921  -1.970  0.00  0.00    +0.005 A 
ATOM     25  C   UNL     1       2.574   2.484  -2.553  0.00  0.00    +0.000 A 
ATOM     26  C   UNL     1       3.451   3.229  -1.787  0.00  0.00    +0.000 A 
ATOM     27  C   UNL     1       3.205   3.416  -0.440  0.00  0.00    +0.000 A 
ATOM     28  C   UNL     1       2.082   2.858   0.142  0.00  0.00    +0.005 A 
ENDBRANCH  16  23
ENDBRANCH  13  16
ENDBRANCH   5  12
BRANCH   3  29
ATOM     29  C   UNL     1      -6.238   3.533  -3.843  0.00  0.00    +0.078 C 
BRANCH  29  30
ATOM     30  C   UNL     1      -6.641   4.907  -3.374  0.00  0.00    -0.039 A 
ATOM     31  C   UNL     1      -5.814   5.989  -3.614  0.00  0.00    +0.008 A 
ATOM     32  C   UNL     1      -6.180   7.251  -3.187  0.00  0.00    +0.050 A 
ATOM     33  C   UNL     1      -7.378   7.436  -2.516  0.00  0.00    +0.166 A 
ATOM     34  C   UNL     1      -8.212   6.346  -2.274  0.00  0.00    +0.166 A 
ATOM     35  C   UNL     1      -7.841   5.085  -2.710  0.00  0.00    +0.053 A 
ATOM     36  O   UNL     1      -9.318   6.784  -1.605  0.00  0.00    -0.453 OA
ATOM     37  C   UNL     1      -9.346   8.210  -1.800  0.00  0.00    +0.466 C 
ATOM     38  O   UNL     1      -7.963   8.556  -1.998  0.00  0.00    -0.453 OA
ENDBRANCH  29  30
ENDBRANCH   3  29
TORSDOF 7
