REMARK  Name = ZINC00906245
REMARK  12 active torsions:
REMARK  status: ('A' for Active; 'I' for Inactive)
REMARK    1  A    between atoms: C_1  and  O_2
REMARK    2  A    between atoms: O_2  and  C_3
REMARK    3  A    between atoms: C_6  and  C_10
REMARK    4  A    between atoms: C_8  and  O_9
REMARK    5  A    between atoms: C_10  and  C_12
REMARK    6  A    between atoms: C_10  and  N_21
REMARK    7  A    between atoms: N_14  and  C_15
REMARK    8  A    between atoms: N_21  and  C_22
REMARK    9  A    between atoms: C_22  and  C_23
REMARK   10  A    between atoms: C_23  and  C_24
REMARK   11  A    between atoms: C_30  and  C_32
REMARK   12  A    between atoms: C_32  and  N_33
REMARK                            x       y       z     vdW  Elec       q    Type
REMARK                         _______ _______ _______ _____ _____    ______ ____
ROOT
ATOM      1  C   UNL     1       2.402  -2.314  -4.204  0.00  0.00    +0.192 C 
ENDROOT
BRANCH   1   5
ATOM      2  C   UNL     1       1.483  -0.442  -0.471  0.00  0.00    +0.161 A 
ATOM      3  C   UNL     1       2.145   0.267  -1.460  0.00  0.00    +0.050 A 
ATOM      4  C   UNL     1       2.441  -0.341  -2.666  0.00  0.00    +0.010 A 
ATOM      5  C   UNL     1       2.078  -1.657  -2.888  0.00  0.00    -0.015 A 
ATOM      6  C   UNL     1       1.416  -2.369  -1.905  0.00  0.00    +0.055 A 
ATOM      7  C   UNL     1       1.122  -1.768  -0.692  0.00  0.00    +0.159 A 
BRANCH   2   9
ATOM      8  C   UNL     1       1.592   1.517   0.873  0.00  0.00    +0.277 C 
ATOM      9  O   UNL     1       1.191   0.155   0.716  0.00  0.00    -0.491 OA
ENDBRANCH   2   9
BRANCH   7  10
ATOM     10  O   UNL     1       0.477  -2.469   0.278  0.00  0.00    -0.503 OA
ATOM     11  H   UNL     1      -0.487  -2.406   0.234  0.00  0.00    +0.292 HD
ENDBRANCH   7  10
ENDBRANCH   1   5
BRANCH   1  12
ATOM     12  C   UNL     1       1.320  -1.999  -5.204  0.00  0.00    +0.238 C 
ATOM     13  O   UNL     1       1.601  -1.456  -6.251  0.00  0.00    -0.273 OA
ATOM     14  N   UNL     1       0.039  -2.321  -4.935  0.00  0.00    -0.311 N 
ATOM     15  H   UNL     1      -0.186  -2.755  -4.097  0.00  0.00    +0.149 HD
BRANCH  14  16
ATOM     16  C   UNL     1      -1.013  -2.014  -5.907  0.00  0.00    +0.073 C 
ATOM     17  C   UNL     1      -1.487  -0.573  -5.708  0.00  0.00    +0.022 C 
ATOM     18  C   UNL     1      -2.586  -0.253  -6.723  0.00  0.00    +0.002 C 
ATOM     19  C   UNL     1      -3.763  -1.209  -6.519  0.00  0.00    +0.000 C 
ATOM     20  C   UNL     1      -3.289  -2.650  -6.718  0.00  0.00    +0.002 C 
ATOM     21  C   UNL     1      -2.190  -2.970  -5.703  0.00  0.00    +0.022 C 
ENDBRANCH  14  16
ENDBRANCH   1  12
BRANCH   1  22
ATOM     22  N   UNL     1       3.686  -1.810  -4.698  0.00  0.00    -0.284 N 
ATOM     23  C   UNL     1       4.806  -1.990  -3.970  0.00  0.00    +0.238 C 
ATOM     24  O   UNL     1       4.751  -2.568  -2.906  0.00  0.00    -0.274 OA
BRANCH  22  25
ATOM     25  C   UNL     1       3.752  -1.111  -5.984  0.00  0.00    +0.113 C 
BRANCH  25  26
ATOM     26  C   UNL     1       3.137   0.282  -5.839  0.00  0.00    +0.054 C 
BRANCH  26  27
ATOM     27  C   UNL     1       3.104   0.960  -7.185  0.00  0.00    -0.046 A 
ATOM     28  C   UNL     1       4.178   1.724  -7.601  0.00  0.00    +0.004 A 
ATOM     29  C   UNL     1       4.148   2.345  -8.835  0.00  0.00    +0.000 A 
ATOM     30  C   UNL     1       3.044   2.202  -9.654  0.00  0.00    +0.000 A 
ATOM     31  C   UNL     1       1.970   1.437  -9.239  0.00  0.00    +0.000 A 
ATOM     32  C   UNL     1       2.002   0.812  -8.006  0.00  0.00    +0.004 A 
ENDBRANCH  26  27
ENDBRANCH  25  26
ENDBRANCH  22  25
BRANCH  23  33
ATOM     33  C   UNL     1       6.126  -1.471  -4.479  0.00  0.00    +0.241 C 
BRANCH  33  34
ATOM     34  N   UNL     1       7.181  -1.789  -3.513  0.00  0.00    -0.235 N 
ATOM     35  C   UNL     1       7.590  -1.012  -2.456  0.00  0.00    +0.090 A 
ATOM     36  C   UNL     1       7.202   0.228  -1.961  0.00  0.00    +0.029 A 
ATOM     37  C   UNL     1       7.823   0.744  -0.858  0.00  0.00    +0.002 A 
ATOM     38  C   UNL     1       8.841   0.041  -0.227  0.00  0.00    +0.002 A 
ATOM     39  C   UNL     1       9.240  -1.177  -0.693  0.00  0.00    +0.032 A 
ATOM     40  C   UNL     1       8.619  -1.729  -1.821  0.00  0.00    +0.113 A 
ATOM     41  N   UNL     1       8.792  -2.882  -2.497  0.00  0.00    -0.129 NA
ATOM     42  N   UNL     1       7.968  -2.950  -3.482  0.00  0.00    -0.064 NA
ENDBRANCH  33  34
ENDBRANCH  23  33
ENDBRANCH   1  22
TORSDOF 11
