REMARK  Name = ZINC38684637
REMARK  15 active torsions:
REMARK  status: ('A' for Active; 'I' for Inactive)
REMARK    1  A    between atoms: C_1  and  C_2
REMARK    2  A    between atoms: C_5  and  O_8
REMARK    3  A    between atoms: O_8  and  C_9
REMARK    4  A    between atoms: C_9  and  C_10
REMARK    5  A    between atoms: C_10  and  O_12
REMARK    6  A    between atoms: O_12  and  C_13
REMARK    7  A    between atoms: C_20  and  N_38
REMARK    8  A    between atoms: C_21  and  C_36
REMARK    9  A    between atoms: C_22  and  C_24
REMARK   10  A    between atoms: C_28  and  O_30
REMARK   11  A    between atoms: O_30  and  C_31
REMARK   12  A    between atoms: C_31  and  C_32
REMARK   13  A    between atoms: C_32  and  C_33
REMARK   14  A    between atoms: C_33  and  C_34
REMARK   15  A    between atoms: C_33  and  C_35
REMARK                            x       y       z     vdW  Elec       q    Type
REMARK                         _______ _______ _______ _____ _____    ______ ____
ROOT
ATOM      1  C   UNL     1       0.089  -8.454   1.970  0.00  0.00    +0.135 A 
ATOM      2  C   UNL     1       0.133  -9.027   0.707  0.00  0.00    +0.047 A 
ATOM      3  C   UNL     1       0.116 -10.402   0.572  0.00  0.00    +0.012 A 
ATOM      4  C   UNL     1       0.054 -11.211   1.693  0.00  0.00    +0.008 A 
ATOM      5  C   UNL     1       0.010 -10.643   2.956  0.00  0.00    +0.138 A 
ATOM      6  C   UNL     1       0.034  -9.261   3.094  0.00  0.00    +0.093 A 
ATOM      7  O   UNL     1      -0.050 -11.420   4.066  0.00  0.00    -0.441 OA
ATOM      8  C   UNL     1      -0.451 -12.699   3.969  0.00  0.00    +0.199 C 
ATOM      9  C   UNL     1      -0.434 -13.367   2.791  0.00  0.00    +0.098 C 
ATOM     10  C   UNL     1       0.036 -12.707   1.525  0.00  0.00    +0.098 C 
ENDROOT
BRANCH  10  11
ATOM     11  C   UNL     1       1.426 -13.190   1.198  0.00  0.00    -0.031 A 
ATOM     12  C   UNL     1       2.462 -12.968   2.087  0.00  0.00    +0.005 A 
ATOM     13  C   UNL     1       3.737 -13.409   1.790  0.00  0.00    +0.004 A 
ATOM     14  C   UNL     1       3.981 -14.072   0.602  0.00  0.00    +0.045 A 
ATOM     15  C   UNL     1       2.944 -14.296  -0.291  0.00  0.00    +0.121 A 
ATOM     16  C   UNL     1       1.663 -13.858   0.012  0.00  0.00    +0.050 A 
BRANCH  15  17
ATOM     17  O   UNL     1       3.182 -14.948  -1.460  0.00  0.00    -0.492 OA
BRANCH  17  18
ATOM     18  C   UNL     1       4.523 -15.376  -1.703  0.00  0.00    +0.229 C 
BRANCH  18  19
ATOM     19  C   UNL     1       4.594 -16.086  -3.057  0.00  0.00    +0.044 C 
BRANCH  19  20
ATOM     20  C   UNL     1       6.031 -16.544  -3.317  0.00  0.00    -0.014 C 
ATOM     21  C   UNL     1       6.424 -17.602  -2.284  0.00  0.00    +0.007 C 
ATOM     22  C   UNL     1       6.128 -17.142  -4.722  0.00  0.00    +0.007 C 
ENDBRANCH  19  20
ENDBRANCH  18  19
ENDBRANCH  17  18
ENDBRANCH  15  17
ENDBRANCH  10  11
BRANCH   8  23
ATOM     23  N   UNL     1      -0.889 -13.347   5.096  0.00  0.00    -0.328 N 
ATOM     24  H   UNL     1      -0.906 -12.882   5.947  0.00  0.00    +0.145 HD
ATOM     25  H   UNL     1      -1.181 -14.271   5.042  0.00  0.00    +0.145 HD
ENDBRANCH   8  23
BRANCH   9  26
ATOM     26  C   UNL     1      -0.874 -14.729   2.751  0.00  0.00    +0.101 C 
ATOM     27  N   UNL     1      -1.222 -15.810   2.719  0.00  0.00    -0.191 NA
ENDBRANCH   9  26
BRANCH   1  28
ATOM     28  O   UNL     1       0.106  -7.101   2.104  0.00  0.00    -0.423 OA
BRANCH  28  29
ATOM     29  C   UNL     1      -1.030  -6.429   1.856  0.00  0.00    +0.350 C 
ATOM     30  O   UNL     1      -2.000  -7.015   1.439  0.00  0.00    -0.247 OA
BRANCH  29  31
ATOM     31  C   UNL     1      -1.093  -4.943   2.097  0.00  0.00    +0.349 C 
BRANCH  31  32
ATOM     32  O   UNL     1      -2.396  -4.461   1.761  0.00  0.00    -0.481 OA
BRANCH  32  37
ATOM     33  C   UNL     1      -3.336   1.052   2.433  0.00  0.00    +0.044 C 
ATOM     34  C   UNL     1      -3.084  -0.423   2.253  0.00  0.00    -0.050 A 
ATOM     35  C   UNL     1      -4.093  -1.243   1.782  0.00  0.00    +0.007 A 
ATOM     36  C   UNL     1      -3.865  -2.595   1.616  0.00  0.00    +0.046 A 
ATOM     37  C   UNL     1      -2.623  -3.131   1.923  0.00  0.00    +0.121 A 
ATOM     38  C   UNL     1      -1.612  -2.306   2.395  0.00  0.00    +0.046 A 
ATOM     39  C   UNL     1      -1.843  -0.953   2.554  0.00  0.00    +0.007 A 
ENDBRANCH  32  37
ENDBRANCH  31  32
ENDBRANCH  29  31
ENDBRANCH  28  29
ENDBRANCH   1  28
TORSDOF 12
