REMARK  Name = ZINC08995640
REMARK  9 active torsions:
REMARK  status: ('A' for Active; 'I' for Inactive)
REMARK    1  A    between atoms: C_1  and  C_2
REMARK    2  A    between atoms: C_2  and  O_3
REMARK    3  A    between atoms: O_3  and  C_4
REMARK    4  A    between atoms: C_4  and  C_6
REMARK    5  A    between atoms: C_7  and  N_36
REMARK    6  A    between atoms: N_18  and  C_21
REMARK    7  A    between atoms: C_25  and  C_28
REMARK    8  A    between atoms: C_31  and  O_34
REMARK    9  A    between atoms: O_34  and  C_35
REMARK                            x       y       z     vdW  Elec       q    Type
REMARK                         _______ _______ _______ _____ _____    ______ ____
ROOT
ATOM      1  C   UNL     1      -1.184  -4.754  -1.391  0.00  0.00    +0.117 C 
ATOM      2  C   UNL     1      -1.160  -3.956  -2.493  0.00  0.00    +0.195 C 
ATOM      3  O   UNL     1      -0.756  -2.679  -2.419  0.00  0.00    -0.446 OA
ATOM      4  C   UNL     1      -0.777  -2.031  -1.239  0.00  0.00    +0.116 C 
ATOM      5  C   UNL     1      -0.772  -2.702  -0.071  0.00  0.00    +0.057 C 
ATOM      6  C   UNL     1      -0.759  -4.209  -0.059  0.00  0.00    +0.141 C 
ATOM      7  C   UNL     1       0.593  -4.723   0.326  0.00  0.00    -0.002 A 
ATOM      8  C   UNL     1       1.827  -4.586  -0.273  0.00  0.00    +0.007 A 
ATOM      9  C   UNL     1       2.905  -5.200   0.356  0.00  0.00    +0.000 A 
ATOM     10  C   UNL     1       2.743  -5.914   1.526  0.00  0.00    +0.002 A 
ATOM     11  C   UNL     1       1.505  -6.056   2.134  0.00  0.00    +0.024 A 
ATOM     12  C   UNL     1       0.415  -5.444   1.513  0.00  0.00    +0.041 A 
ATOM     13  N   UNL     1      -0.915  -5.423   1.894  0.00  0.00    -0.273 N 
ATOM     14  C   UNL     1      -1.678  -4.721   1.030  0.00  0.00    +0.240 C 
ATOM     15  O   UNL     1      -2.874  -4.535   1.111  0.00  0.00    -0.274 OA
ATOM     16  C   UNL     1      -1.434  -6.084   3.094  0.00  0.00    +0.138 C 
ATOM     17  C   UNL     1      -0.781  -2.024   1.163  0.00  0.00    +0.165 C 
ATOM     18  O   UNL     1      -0.795  -2.664   2.195  0.00  0.00    -0.292 OA
ATOM     19  C   UNL     1      -0.773  -0.521   1.226  0.00  0.00    +0.088 C 
ATOM     20  C   UNL     1      -0.079   0.024  -0.028  0.00  0.00    +0.034 C 
ATOM     21  C   UNL     1      -0.805  -0.521  -1.259  0.00  0.00    +0.083 C 
ENDROOT
BRANCH  20  22
ATOM     22  C   UNL     1      -0.142   1.530  -0.027  0.00  0.00    -0.043 A 
ATOM     23  C   UNL     1      -1.367   2.169  -0.006  0.00  0.00    +0.007 A 
ATOM     24  C   UNL     1      -1.427   3.549  -0.000  0.00  0.00    +0.046 A 
ATOM     25  C   UNL     1      -0.257   4.293  -0.027  0.00  0.00    +0.120 A 
ATOM     26  C   UNL     1       0.971   3.649  -0.054  0.00  0.00    +0.046 A 
ATOM     27  C   UNL     1       1.026   2.269  -0.054  0.00  0.00    +0.007 A 
BRANCH  25  28
ATOM     28  O   UNL     1      -0.314   5.651  -0.027  0.00  0.00    -0.495 OA
ATOM     29  C   UNL     1      -1.613   6.246   0.002  0.00  0.00    +0.277 C 
ENDBRANCH  25  28
ENDBRANCH  20  22
BRANCH   2  30
ATOM     30  N   UNL     1      -1.557  -4.466  -3.700  0.00  0.00    -0.329 N 
ATOM     31  H   UNL     1      -2.292  -5.097  -3.741  0.00  0.00    +0.145 HD
ATOM     32  H   UNL     1      -1.103  -4.196  -4.513  0.00  0.00    +0.145 HD
ENDBRANCH   2  30
BRANCH   1  33
ATOM     33  C   UNL     1      -1.605  -6.088  -1.501  0.00  0.00    +0.342 C 
ATOM     34  O   UNL     1      -2.039  -6.504  -2.560  0.00  0.00    -0.245 OA
BRANCH  33  35
ATOM     35  O   UNL     1      -1.530  -6.910  -0.432  0.00  0.00    -0.462 OA
BRANCH  35  37
ATOM     36  C   UNL     1      -1.817  -9.028   0.695  0.00  0.00    +0.048 C 
ATOM     37  C   UNL     1      -1.977  -8.255  -0.615  0.00  0.00    +0.229 C 
ENDBRANCH  35  37
ENDBRANCH  33  35
ENDBRANCH   1  33
TORSDOF 6
