REMARK  Name = ZINC39682576
REMARK  7 active torsions:
REMARK  status: ('A' for Active; 'I' for Inactive)
REMARK    1  A    between atoms: C_4  and  C_7
REMARK    2  A    between atoms: C_7  and  C_9
REMARK    3  A    between atoms: C_7  and  N_13
REMARK    4  A    between atoms: C_9  and  C_10
REMARK    5  A    between atoms: C_14  and  C_16
REMARK    6  A    between atoms: C_27  and  C_29
REMARK    7  A    between atoms: C_32  and  C_34
REMARK                            x       y       z     vdW  Elec       q    Type
REMARK                         _______ _______ _______ _____ _____    ______ ____
ROOT
ATOM      1  C   UNL     1       4.640  -3.629   1.909  0.00  0.00    +0.100 C 
ATOM      2  C   UNL     1       4.382  -4.774   0.904  0.00  0.00    +0.121 C 
ATOM      3  N   UNL     1       5.726  -5.323   0.608  0.00  0.00    -0.294 N 
ATOM      4  C   UNL     1       6.428  -5.301   1.914  0.00  0.00    +0.115 C 
ATOM      5  C   UNL     1       5.982  -3.981   2.572  0.00  0.00    -0.004 C 
ATOM      6  C   UNL     1       7.009  -2.885   2.301  0.00  0.00    -0.010 C 
ATOM      7  C   UNL     1       8.317  -3.230   3.018  0.00  0.00    -0.082 C 
ATOM      8  N   UNL     1       8.070  -3.351   4.460  0.00  0.00    +0.379 N 
ATOM      9  C   UNL     1       7.153  -4.468   4.718  0.00  0.00    -0.082 C 
ATOM     10  C   UNL     1       5.795  -4.175   4.073  0.00  0.00    -0.010 C 
ATOM     11  C   UNL     1       6.203  -5.746  -0.579  0.00  0.00    +0.282 C 
ATOM     12  O   UNL     1       7.339  -6.175  -0.661  0.00  0.00    -0.267 OA
ATOM     13  H   UNL     1       8.944  -3.518   4.937  0.00  0.00    -0.086 HD
ATOM     14  H   UNL     1       7.661  -2.495   4.803  0.00  0.00    -0.086 HD
ENDROOT
BRANCH  11  15
ATOM     15  C   UNL     1       5.354  -5.690  -1.771  0.00  0.00    +0.190 A 
ATOM     16  C   UNL     1       5.712  -6.093  -3.039  0.00  0.00    +0.055 A 
ATOM     17  C   UNL     1       4.605  -5.863  -3.863  0.00  0.00    +0.050 A 
ATOM     18  C   UNL     1       3.622  -5.333  -3.077  0.00  0.00    +0.136 A 
ATOM     19  O   UNL     1       4.082  -5.239  -1.818  0.00  0.00    -0.450 OA
BRANCH  18  20
ATOM     20  C   UNL     1       2.276  -4.936  -3.534  0.00  0.00    +0.017 A 
ATOM     21  C   UNL     1       1.914  -5.096  -4.874  0.00  0.00    +0.014 A 
ATOM     22  C   UNL     1       0.655  -4.723  -5.294  0.00  0.00    +0.039 A 
ATOM     23  C   UNL     1      -0.251  -4.191  -4.391  0.00  0.00    +0.123 A 
ATOM     24  C   UNL     1       0.102  -4.030  -3.060  0.00  0.00    +0.039 A 
ATOM     25  C   UNL     1       1.356  -4.404  -2.627  0.00  0.00    +0.014 A 
ATOM     26  F   UNL     1      -1.484  -3.828  -4.808  0.00  0.00    -0.205 F 
ENDBRANCH  18  20
ENDBRANCH  11  15
BRANCH   1  28
ATOM     27  N   UNL     1       4.516  -1.159   1.851  0.00  0.00    -0.308 N 
ATOM     28  C   UNL     1       4.741  -2.310   1.187  0.00  0.00    +0.219 C 
ATOM     29  O   UNL     1       5.026  -2.284   0.008  0.00  0.00    -0.275 OA
ATOM     30  H   UNL     1       4.221  -1.182   2.775  0.00  0.00    +0.149 HD
BRANCH  27  31
ATOM     31  C   UNL     1       4.717   0.127   1.178  0.00  0.00    +0.114 C 
BRANCH  31  35
ATOM     32  C   UNL     1       5.759   3.099   4.063  0.00  0.00    +0.000 A 
ATOM     33  C   UNL     1       6.390   3.078   2.834  0.00  0.00    +0.000 A 
ATOM     34  C   UNL     1       6.053   2.116   1.900  0.00  0.00    +0.005 A 
ATOM     35  C   UNL     1       5.085   1.175   2.196  0.00  0.00    -0.027 A 
ATOM     36  C   UNL     1       4.455   1.195   3.426  0.00  0.00    +0.005 A 
ATOM     37  C   UNL     1       4.791   2.158   4.359  0.00  0.00    +0.000 A 
ENDBRANCH  31  35
BRANCH  31  38
ATOM     38  C   UNL     1       3.426   0.538   0.467  0.00  0.00    +0.152 C 
BRANCH  38  39
ATOM     39  C   UNL     1       3.679   1.769  -0.363  0.00  0.00    +0.358 C 
ATOM     40  O   UNL     1       4.812   2.206  -0.476  0.00  0.00    -0.246 OA
ATOM     41  O   UNL     1       2.752   2.329  -0.923  0.00  0.00    -0.246 OA
ENDBRANCH  38  39
ENDBRANCH  31  38
ENDBRANCH  27  31
ENDBRANCH   1  28
TORSDOF 7
