REMARK  Name = ZINC03885330
REMARK  5 active torsions:
REMARK  status: ('A' for Active; 'I' for Inactive)
REMARK    1  A    between atoms: C_5  and  N_7
REMARK    2  A    between atoms: N_7  and  S_8
REMARK    3  A    between atoms: S_8  and  C_11
REMARK    4  A    between atoms: C_14  and  N_18
REMARK    5  A    between atoms: C_15  and  N_17
REMARK                            x       y       z     vdW  Elec       q    Type
REMARK                         _______ _______ _______ _____ _____    ______ ____
ROOT
ATOM      1  S   UNL     1       3.728   2.443   0.696  0.00  0.00    +0.072 S 
ATOM      2  O   UNL     1       4.815   1.566   0.437  0.00  0.00    -0.150 OA
ATOM      3  O   UNL     1       3.742   3.810   0.308  0.00  0.00    -0.150 OA
ENDROOT
BRANCH   1   4
ATOM      4  C   UNL     1       3.463   2.417   2.438  0.00  0.00    +0.110 A 
ATOM      5  C   UNL     1       2.849   3.489   3.058  0.00  0.00    +0.031 A 
ATOM      6  C   UNL     1       2.633   3.473   4.424  0.00  0.00    +0.026 A 
ATOM      7  C   UNL     1       3.044   2.383   5.177  0.00  0.00    +0.046 A 
ATOM      8  C   UNL     1       3.669   1.304   4.553  0.00  0.00    +0.047 A 
ATOM      9  C   UNL     1       3.876   1.327   3.182  0.00  0.00    +0.053 A 
BRANCH   8  10
ATOM     10  N   UNL     1       4.085   0.201   5.308  0.00  0.00    -0.357 N 
ATOM     11  H   UNL     1       4.520  -0.549   4.872  0.00  0.00    +0.142 HD
ATOM     12  H   UNL     1       3.940   0.187   6.266  0.00  0.00    +0.142 HD
ENDBRANCH   8  10
BRANCH   7  13
ATOM     13  N   UNL     1       2.832   2.367   6.561  0.00  0.00    -0.357 N 
ATOM     14  H   UNL     1       3.120   1.605   7.087  0.00  0.00    +0.142 HD
ATOM     15  H   UNL     1       2.397   3.118   6.994  0.00  0.00    +0.142 HD
ENDBRANCH   7  13
ENDBRANCH   1   4
BRANCH   1  16
ATOM     16  N   UNL     1       2.393   1.764  -0.012  0.00  0.00    -0.215 N 
ATOM     17  H   UNL     1       2.485   0.966  -0.555  0.00  0.00    +0.174 HD
BRANCH  16  22
ATOM     18  C   UNL     1      -0.238   4.291   0.439  0.00  0.00    +0.002 A 
ATOM     19  C   UNL     1      -1.359   3.487   0.538  0.00  0.00    +0.002 A 
ATOM     20  C   UNL     1      -1.238   2.112   0.450  0.00  0.00    +0.022 A 
ATOM     21  C   UNL     1       0.006   1.537   0.273  0.00  0.00    +0.063 A 
ATOM     22  C   UNL     1       1.134   2.342   0.173  0.00  0.00    +0.066 A 
ATOM     23  C   UNL     1       1.007   3.723   0.257  0.00  0.00    +0.026 A 
ATOM     24 CL   UNL     1       0.159  -0.190   0.170  0.00  0.00    -0.082 Cl
ENDBRANCH  16  22
ENDBRANCH   1  16
TORSDOF 5
