REMARK  Name = ZINC59782600
REMARK  11 active torsions:
REMARK  status: ('A' for Active; 'I' for Inactive)
REMARK    1  A    between atoms: C_1  and  N_2
REMARK    2  A    between atoms: N_2  and  C_3
REMARK    3  A    between atoms: N_2  and  S_4
REMARK    4  A    between atoms: S_4  and  C_7
REMARK    5  A    between atoms: C_10  and  C_13
REMARK    6  A    between atoms: N_15  and  C_16
REMARK    7  A    between atoms: C_16  and  C_17
REMARK    8  A    between atoms: C_17  and  C_19
REMARK    9  A    between atoms: C_17  and  N_27
REMARK   10  A    between atoms: C_24  and  O_25
REMARK   11  A    between atoms: O_25  and  C_26
REMARK                            x       y       z     vdW  Elec       q    Type
REMARK                         _______ _______ _______ _____ _____    ______ ____
ROOT
ATOM      1  C   UNL     1      -2.995  -3.054  -7.787  0.00  0.00    +0.094 C 
ENDROOT
BRANCH   1   4
ATOM      2  C   UNL     1      -5.223  -2.153  -7.386  0.00  0.00    +0.244 C 
ATOM      3  O   UNL     1      -4.707  -1.108  -7.041  0.00  0.00    -0.270 OA
ATOM      4  N   UNL     1      -4.453  -3.188  -7.778  0.00  0.00    -0.313 N 
ATOM      5  H   UNL     1      -4.865  -4.022  -8.054  0.00  0.00    +0.149 HD
BRANCH   2   9
ATOM      6  C   UNL     1      -9.453  -2.542  -7.362  0.00  0.00    +0.105 A 
ATOM      7  C   UNL     1      -8.868  -1.351  -6.967  0.00  0.00    +0.029 A 
ATOM      8  C   UNL     1      -7.495  -1.219  -6.973  0.00  0.00    +0.015 A 
ATOM      9  C   UNL     1      -6.695  -2.288  -7.378  0.00  0.00    +0.037 A 
ATOM     10  C   UNL     1      -7.291  -3.486  -7.774  0.00  0.00    +0.015 A 
ATOM     11  C   UNL     1      -8.665  -3.608  -7.759  0.00  0.00    +0.029 A 
BRANCH   6  12
ATOM     12  S   UNL     1     -11.207  -2.703  -7.352  0.00  0.00    +0.060 S 
ATOM     13  O   UNL     1     -11.526  -3.733  -8.278  0.00  0.00    -0.153 OA
ATOM     14  O   UNL     1     -11.737  -1.389  -7.462  0.00  0.00    -0.153 OA
BRANCH  12  16
ATOM     15  C   UNL     1     -11.937  -2.317  -4.776  0.00  0.00    +0.131 C 
ATOM     16  N   UNL     1     -11.639  -3.263  -5.854  0.00  0.00    -0.183 NA
ATOM     17  C   UNL     1     -11.723  -4.705  -5.608  0.00  0.00    +0.131 C 
ENDBRANCH  12  16
ENDBRANCH   6  12
ENDBRANCH   2   9
ENDBRANCH   1   4
BRANCH   1  18
ATOM     18  C   UNL     1      -2.361  -4.399  -8.146  0.00  0.00    -0.017 C 
BRANCH  18  19
ATOM     19  N   UNL     1      -2.863  -5.436  -7.235  0.00  0.00    +0.385 N 
ATOM     20  C   UNL     1      -2.603  -5.034  -5.848  0.00  0.00    -0.078 C 
ATOM     21  C   UNL     1      -3.196  -6.072  -4.892  0.00  0.00    -0.019 C 
ATOM     22  C   UNL     1      -2.548  -7.433  -5.160  0.00  0.00    -0.004 C 
ATOM     23  C   UNL     1      -2.762  -7.808  -6.630  0.00  0.00    -0.019 C 
ATOM     24  C   UNL     1      -2.186  -6.706  -7.521  0.00  0.00    -0.078 C 
ATOM     25  H   UNL     1      -3.857  -5.548  -7.370  0.00  0.00    -0.081 HD
ENDBRANCH  18  19
BRANCH  18  26
ATOM     26  C   UNL     1      -2.720  -4.760  -9.565  0.00  0.00    -0.018 A 
ATOM     27  C   UNL     1      -3.808  -5.573  -9.817  0.00  0.00    +0.005 A 
ATOM     28  C   UNL     1      -4.137  -5.905 -11.118  0.00  0.00    +0.000 A 
ATOM     29  C   UNL     1      -3.379  -5.424 -12.170  0.00  0.00    +0.004 A 
ATOM     30  C   UNL     1      -2.290  -4.611 -11.923  0.00  0.00    +0.046 A 
ATOM     31  C   UNL     1      -1.961  -4.272 -10.618  0.00  0.00    +0.122 A 
BRANCH  31  32
ATOM     32  O   UNL     1      -0.894  -3.467 -10.373  0.00  0.00    -0.495 OA
ATOM     33  C   UNL     1      -0.158  -3.002 -11.506  0.00  0.00    +0.277 C 
ENDBRANCH  31  32
ENDBRANCH  18  26
ENDBRANCH   1  18
TORSDOF 8
