REMARK  Name = ZINC06151701
REMARK  7 active torsions:
REMARK  status: ('A' for Active; 'I' for Inactive)
REMARK    1  A    between atoms: C_4  and  N_24
REMARK    2  A    between atoms: C_5  and  C_7
REMARK    3  A    between atoms: N_9  and  N_10
REMARK    4  A    between atoms: C_11  and  C_12
REMARK    5  A    between atoms: C_15  and  N_18
REMARK    6  A    between atoms: N_24  and  S_25
REMARK    7  A    between atoms: S_25  and  C_28
REMARK                            x       y       z     vdW  Elec       q    Type
REMARK                         _______ _______ _______ _____ _____    ______ ____
ROOT
ATOM      1  C   UNL     1       5.868   1.966  -0.236  0.00  0.00    +0.265 C 
ATOM      2  O   UNL     1       5.945   3.170  -0.081  0.00  0.00    -0.268 OA
ATOM      3  N   UNL     1       4.660   1.374  -0.323  0.00  0.00    -0.203 N 
ATOM      4  H   UNL     1       4.599   0.414  -0.446  0.00  0.00    +0.178 HD
ENDROOT
BRANCH   1   9
ATOM      5  C   UNL     1       8.162  -0.982  -0.590  0.00  0.00    +0.001 A 
ATOM      6  C   UNL     1       9.404  -0.374  -0.500  0.00  0.00    +0.002 A 
ATOM      7  C   UNL     1       9.504   0.991  -0.325  0.00  0.00    +0.025 A 
ATOM      8  C   UNL     1       8.355   1.767  -0.237  0.00  0.00    +0.060 A 
ATOM      9  C   UNL     1       7.095   1.155  -0.328  0.00  0.00    +0.061 A 
ATOM     10  C   UNL     1       7.011  -0.230  -0.499  0.00  0.00    +0.015 A 
BRANCH   8  11
ATOM     11  N   UNL     1       8.452   3.141  -0.062  0.00  0.00    -0.215 N 
ATOM     12  H   UNL     1       7.801   3.608   0.485  0.00  0.00    +0.174 HD
BRANCH  11  13
ATOM     13  S   UNL     1       9.680   3.984  -0.787  0.00  0.00    +0.079 S 
ATOM     14  O   UNL     1       9.432   5.360  -0.535  0.00  0.00    -0.149 OA
ATOM     15  O   UNL     1      10.891   3.346  -0.405  0.00  0.00    -0.149 OA
BRANCH  13  16
ATOM     16  C   UNL     1       9.515   3.752  -2.526  0.00  0.00    +0.146 A 
ATOM     17  C   UNL     1       8.818   4.491  -3.423  0.00  0.00    +0.036 A 
ATOM     18  C   UNL     1       8.832   4.118  -4.754  0.00  0.00    +0.010 A 
ATOM     19  C   UNL     1       9.543   3.024  -5.122  0.00  0.00    +0.047 A 
ATOM     20  S   UNL     1      10.229   2.487  -3.564  0.00  0.00    -0.077 S 
ENDBRANCH  13  16
ENDBRANCH  11  13
ENDBRANCH   8  11
ENDBRANCH   1   9
BRANCH   3  21
ATOM     21  N   UNL     1       3.494   2.145  -0.235  0.00  0.00    -0.187 NA
ATOM     22  C   UNL     1       2.331   1.575  -0.319  0.00  0.00    +0.138 C 
BRANCH  22  23
ATOM     23  C   UNL     1       1.104   2.386  -0.227  0.00  0.00    -0.005 A 
ATOM     24  C   UNL     1      -0.149   1.774  -0.318  0.00  0.00    +0.011 A 
ATOM     25  C   UNL     1      -1.294   2.536  -0.236  0.00  0.00    +0.024 A 
ATOM     26  C   UNL     1      -1.204   3.912  -0.053  0.00  0.00    +0.030 A 
ATOM     27  C   UNL     1       0.042   4.525   0.037  0.00  0.00    +0.024 A 
ATOM     28  C   UNL     1       1.190   3.770  -0.049  0.00  0.00    +0.011 A 
BRANCH  26  29
ATOM     29  N   UNL     1      -2.365   4.680   0.035  0.00  0.00    -0.330 N 
ATOM     30  C   UNL     1      -2.386   5.461   1.278  0.00  0.00    +0.105 C 
ATOM     31  C   UNL     1      -3.597   6.397   1.273  0.00  0.00    +0.019 C 
ATOM     32  C   UNL     1      -4.877   5.566   1.149  0.00  0.00    +0.003 C 
ATOM     33  C   UNL     1      -4.809   4.725  -0.129  0.00  0.00    +0.019 C 
ATOM     34  C   UNL     1      -3.562   3.838  -0.084  0.00  0.00    +0.105 C 
ENDBRANCH  26  29
ENDBRANCH  22  23
ENDBRANCH   3  21
TORSDOF 7
