REMARK  Name = ZINC39687265
REMARK  6 active torsions:
REMARK  status: ('A' for Active; 'I' for Inactive)
REMARK    1  A    between atoms: C_4  and  C_7
REMARK    2  A    between atoms: C_7  and  C_8
REMARK    3  A    between atoms: C_8  and  C_10
REMARK    4  A    between atoms: C_8  and  N_18
REMARK    5  A    between atoms: C_19  and  C_21
REMARK    6  A    between atoms: C_32  and  C_34
REMARK                            x       y       z     vdW  Elec       q    Type
REMARK                         _______ _______ _______ _____ _____    ______ ____
ROOT
ATOM      1  N   UNL     1       3.086  -0.244   3.072  0.00  0.00    -0.303 N 
ATOM      2  C   UNL     1       3.054   0.856   2.294  0.00  0.00    +0.219 C 
ATOM      3  O   UNL     1       2.902   0.748   1.096  0.00  0.00    -0.275 OA
ATOM      4  H   UNL     1       3.140  -0.154   4.037  0.00  0.00    +0.149 HD
ENDROOT
BRANCH   2   5
ATOM      5  C   UNL     1       3.206   2.222   2.913  0.00  0.00    +0.100 C 
ATOM      6  C   UNL     1       3.688   3.241   1.857  0.00  0.00    +0.121 C 
ATOM      7  N   UNL     1       2.446   3.879   1.359  0.00  0.00    -0.300 N 
ATOM      8  C   UNL     1       1.605   4.042   2.569  0.00  0.00    +0.115 C 
ATOM      9  C   UNL     1       1.841   2.753   3.381  0.00  0.00    -0.004 C 
ATOM     10  C   UNL     1       1.880   3.069   4.874  0.00  0.00    -0.010 C 
ATOM     11  C   UNL     1       0.496   3.540   5.328  0.00  0.00    -0.082 C 
ATOM     12  N   UNL     1      -0.494   2.490   5.055  0.00  0.00    +0.379 N 
ATOM     13  C   UNL     1      -0.592   2.259   3.609  0.00  0.00    -0.082 C 
ATOM     14  C   UNL     1       0.747   1.734   3.082  0.00  0.00    -0.010 C 
ATOM     15  C   UNL     1       2.149   4.232   0.093  0.00  0.00    +0.219 C 
ATOM     16  O   UNL     1       1.120   4.829  -0.144  0.00  0.00    -0.275 OA
ATOM     17  H   UNL     1      -0.212   1.637   5.512  0.00  0.00    -0.086 HD
ATOM     18  H   UNL     1      -1.394   2.778   5.410  0.00  0.00    -0.086 HD
BRANCH  15  19
ATOM     19  C   UNL     1       3.095   3.886  -1.028  0.00  0.00    +0.075 C 
ATOM     20  C   UNL     1       4.275   4.863  -1.162  0.00  0.00    +0.013 C 
ATOM     21  C   UNL     1       4.095   4.748  -2.685  0.00  0.00    +0.001 C 
ATOM     22  C   UNL     1       2.627   4.385  -2.405  0.00  0.00    +0.013 C 
ENDBRANCH  15  19
ENDBRANCH   2   5
BRANCH   1  23
ATOM     23  C   UNL     1       3.037  -1.574   2.462  0.00  0.00    +0.163 C 
BRANCH  23  24
ATOM     24  C   UNL     1       2.276  -2.513   3.362  0.00  0.00    +0.236 C 
ATOM     25  O   UNL     1       1.965  -2.161   4.480  0.00  0.00    -0.274 OA
ATOM     26  N   UNL     1       1.942  -3.744   2.925  0.00  0.00    -0.300 N 
ATOM     27  C   UNL     1       2.392  -4.218   1.609  0.00  0.00    +0.108 C 
ATOM     28  C   UNL     1       3.106  -5.562   1.787  0.00  0.00    +0.019 C 
ATOM     29  C   UNL     1       2.181  -6.533   2.524  0.00  0.00    +0.003 C 
ATOM     30  C   UNL     1       1.850  -5.974   3.910  0.00  0.00    +0.019 C 
ATOM     31  C   UNL     1       1.127  -4.638   3.758  0.00  0.00    +0.108 C 
ENDBRANCH  23  24
BRANCH  23  32
ATOM     32  C   UNL     1       4.461  -2.098   2.266  0.00  0.00    +0.067 C 
BRANCH  32  36
ATOM     33  C   UNL     1       6.473   0.297  -0.644  0.00  0.00    +0.000 A 
ATOM     34  C   UNL     1       6.568   0.615   0.698  0.00  0.00    +0.000 A 
ATOM     35  C   UNL     1       5.917  -0.160   1.640  0.00  0.00    +0.004 A 
ATOM     36  C   UNL     1       5.170  -1.252   1.239  0.00  0.00    -0.045 A 
ATOM     37  C   UNL     1       5.075  -1.569  -0.103  0.00  0.00    +0.004 A 
ATOM     38  C   UNL     1       5.727  -0.795  -1.044  0.00  0.00    +0.000 A 
ENDBRANCH  32  36
ENDBRANCH  23  32
ENDBRANCH   1  23
TORSDOF 6
