REMARK  Name = ZINC02268626
REMARK  5 active torsions:
REMARK  status: ('A' for Active; 'I' for Inactive)
REMARK    1  A    between atoms: C_10  and  N_11
REMARK    2  A    between atoms: N_11  and  C_12
REMARK    3  A    between atoms: C_13  and  C_14
REMARK    4  A    between atoms: C_13  and  C_16
REMARK    5  A    between atoms: C_18  and  C_21
REMARK                            x       y       z     vdW  Elec       q    Type
REMARK                         _______ _______ _______ _____ _____    ______ ____
ROOT
ATOM      1  C   UNL     1       1.154  -6.307  -0.043  0.00  0.00    +0.120 A 
ATOM      2  N   UNL     1       1.162  -4.982  -0.041  0.00  0.00    -0.238 NA
ATOM      3  C   UNL     1       0.035  -4.291  -0.021  0.00  0.00    +0.086 A 
ATOM      4  C   UNL     1      -1.162  -4.957  -0.013  0.00  0.00    +0.075 A 
ATOM      5  S   UNL     1      -0.599  -6.654  -0.028  0.00  0.00    -0.074 S 
ENDROOT
BRANCH   3   6
ATOM      6  C   UNL     1       0.068  -2.810  -0.014  0.00  0.00    +0.086 A 
ATOM      7  C   UNL     1       1.262  -2.140  -0.021  0.00  0.00    +0.028 A 
ATOM      8  C   UNL     1       1.236  -0.677  -0.013  0.00  0.00    +0.019 A 
ATOM      9  C   UNL     1       2.430   0.055  -0.021  0.00  0.00    +0.026 A 
ATOM     10  C   UNL     1       2.387   1.431  -0.014  0.00  0.00    +0.019 A 
ATOM     11  C   UNL     1       1.166   2.093   0.002  0.00  0.00    +0.019 A 
ATOM     12  C   UNL     1      -0.017   1.386   0.010  0.00  0.00    +0.048 A 
ATOM     13  C   UNL     1       0.002  -0.004   0.002  0.00  0.00    +0.139 A 
ATOM     14  O   UNL     1      -1.157  -0.697   0.009  0.00  0.00    -0.422 OA
ATOM     15  C   UNL     1      -1.179  -2.038   0.002  0.00  0.00    +0.347 A 
ATOM     16  O   UNL     1      -2.247  -2.622   0.009  0.00  0.00    -0.244 OA
ATOM     17 BR   UNL     1       3.996   2.424  -0.025  0.00  0.00    -0.050 Br
ENDBRANCH   3   6
BRANCH   1  19
ATOM     18  C   UNL     1       2.064  -8.591  -0.063  0.00  0.00    +0.093 C 
ATOM     19  C   UNL     1       2.291  -7.247  -0.059  0.00  0.00    +0.098 C 
BRANCH  18  20
ATOM     20  N   UNL     1       3.117  -9.462  -0.078  0.00  0.00    -0.319 N 
ATOM     21  H   UNL     1       4.026  -9.124  -0.085  0.00  0.00    +0.152 HD
BRANCH  20  31
ATOM     22  C   UNL     1       6.062 -13.560  -0.128  0.00  0.00    +0.001 A 
ATOM     23  C   UNL     1       6.317 -12.190  -0.125  0.00  0.00    +0.001 A 
ATOM     24  C   UNL     1       5.296 -11.288  -0.110  0.00  0.00    +0.010 A 
ATOM     25  C   UNL     1       3.968 -11.741  -0.104  0.00  0.00    +0.003 A 
ATOM     26  C   UNL     1       3.708 -13.134  -0.103  0.00  0.00    -0.016 A 
ATOM     27  C   UNL     1       4.787 -14.035  -0.118  0.00  0.00    +0.008 A 
ATOM     28  C   UNL     1       2.379 -13.590  -0.092  0.00  0.00    +0.008 A 
ATOM     29  C   UNL     1       1.353 -12.694  -0.077  0.00  0.00    +0.002 A 
ATOM     30  C   UNL     1       1.595 -11.324  -0.072  0.00  0.00    +0.024 A 
ATOM     31  C   UNL     1       2.885 -10.836  -0.083  0.00  0.00    +0.039 A 
ENDBRANCH  20  31
ENDBRANCH  18  20
BRANCH  19  32
ATOM     32  C   UNL     1       3.633  -6.748  -0.069  0.00  0.00    +0.103 C 
ATOM     33  N   UNL     1       4.698  -6.352  -0.077  0.00  0.00    -0.191 NA
ENDBRANCH  19  32
ENDBRANCH   1  19
TORSDOF 5
