REMARK  Name = ZINC20284800
REMARK  9 active torsions:
REMARK  status: ('A' for Active; 'I' for Inactive)
REMARK    1  A    between atoms: C_1  and  C_2
REMARK    2  A    between atoms: C_2  and  C_4
REMARK    3  A    between atoms: C_2  and  N_9
REMARK    4  A    between atoms: C_10  and  C_12
REMARK    5  A    between atoms: C_12  and  O_13
REMARK    6  A    between atoms: O_13  and  C_14
REMARK    7  A    between atoms: C_15  and  O_23
REMARK    8  A    between atoms: C_17  and  C_21
REMARK    9  A    between atoms: O_23  and  C_24
REMARK                            x       y       z     vdW  Elec       q    Type
REMARK                         _______ _______ _______ _____ _____    ______ ____
ROOT
ATOM      1  C   UNL     1      -1.100   2.178   4.473  0.00  0.00    +0.324 C 
ENDROOT
BRANCH   1   3
ATOM      2  N   UNL     1      -1.235   0.750   6.488  0.00  0.00    -0.303 N 
ATOM      3  C   UNL     1      -1.847   1.250   5.396  0.00  0.00    +0.251 C 
ATOM      4  O   UNL     1      -2.998   0.954   5.158  0.00  0.00    -0.272 OA
ATOM      5  H   UNL     1      -0.190   1.019   6.705  0.00  0.00    +0.149 HD
BRANCH   2   7
ATOM      6  C   UNL     1      -2.765   0.671   8.395  0.00  0.00    +0.036 C 
ATOM      7  C   UNL     1      -1.960  -0.152   7.386  0.00  0.00    +0.136 C 
BRANCH   7   8
ATOM      8  C   UNL     1      -0.978  -1.026   8.121  0.00  0.00    +0.125 A 
ATOM      9  C   UNL     1      -1.141  -2.333   8.397  0.00  0.00    +0.046 A 
ATOM     10  C   UNL     1       0.017  -2.752   9.093  0.00  0.00    +0.041 A 
ATOM     11  C   UNL     1       0.814  -1.675   9.208  0.00  0.00    +0.195 A 
ATOM     12  O   UNL     1       0.206  -0.632   8.618  0.00  0.00    -0.466 OA
ENDBRANCH   7   8
ENDBRANCH   2   7
ENDBRANCH   1   3
BRANCH   1  13
ATOM     13  O   UNL     1      -1.956   2.569   3.397  0.00  0.00    -0.478 OA
BRANCH  13  14
ATOM     14  C   UNL     1      -1.433   3.411   2.469  0.00  0.00    +0.176 A 
ATOM     15  C   UNL     1      -0.787   2.893   1.346  0.00  0.00    +0.163 A 
ATOM     16  C   UNL     1      -0.261   3.746   0.398  0.00  0.00    +0.060 A 
ATOM     17  C   UNL     1      -0.371   5.131   0.568  0.00  0.00    +0.019 A 
ATOM     18  C   UNL     1      -1.016   5.644   1.700  0.00  0.00    +0.030 A 
ATOM     19  C   UNL     1      -1.539   4.785   2.642  0.00  0.00    +0.064 A 
ATOM     20 BR   UNL     1      -2.410   5.479   4.170  0.00  0.00    -0.046 Br
BRANCH  17  21
ATOM     21  C   UNL     1       0.188   6.044  -0.438  0.00  0.00    +0.258 C 
ATOM     22  O   UNL     1       0.091   7.244  -0.288  0.00  0.00    -0.296 OA
ENDBRANCH  17  21
BRANCH  15  23
ATOM     23  O   UNL     1      -0.682   1.547   1.184  0.00  0.00    -0.491 OA
ATOM     24  C   UNL     1      -0.013   1.086   0.008  0.00  0.00    +0.277 C 
ENDBRANCH  15  23
ENDBRANCH  13  14
ENDBRANCH   1  13
TORSDOF 7
