REMARK  Name = ZINC09216241
REMARK  7 active torsions:
REMARK  status: ('A' for Active; 'I' for Inactive)
REMARK    1  A    between atoms: C_1  and  C_2
REMARK    2  A    between atoms: C_2  and  C_3
REMARK    3  A    between atoms: C_2  and  C_4
REMARK    4  A    between atoms: C_4  and  C_5
REMARK    5  A    between atoms: N_13  and  C_16
REMARK    6  A    between atoms: C_16  and  C_17
REMARK    7  A    between atoms: C_17  and  C_18
REMARK                            x       y       z     vdW  Elec       q    Type
REMARK                         _______ _______ _______ _____ _____    ______ ____
ROOT
ATOM      1  C   UNL     1      -1.406  -2.075   0.003  0.00  0.00    -0.057 C 
ATOM      2  C   UNL     1      -2.827  -2.641  -0.201  0.00  0.00    +0.073 C 
ATOM      3  C   UNL     1      -2.885  -3.906   0.701  0.00  0.00    +0.088 C 
ATOM      4  C   UNL     1      -3.018  -5.037  -0.293  0.00  0.00    +0.225 C 
ATOM      5  O   UNL     1      -3.093  -6.213  -0.010  0.00  0.00    -0.275 OA
ATOM      6  N   UNL     1      -3.041  -4.537  -1.534  0.00  0.00    -0.241 N 
ATOM      7  C   UNL     1      -2.946  -3.189  -1.605  0.00  0.00    +0.224 C 
ATOM      8  O   UNL     1      -2.951  -2.524  -2.618  0.00  0.00    -0.275 OA
ATOM      9  C   UNL     1      -1.514  -3.956   1.385  0.00  0.00    +0.050 C 
ATOM     10  N   UNL     1      -0.975  -2.589   1.330  0.00  0.00    +0.394 N 
ATOM     11  C   UNL     1      -1.618  -4.468   2.793  0.00  0.00    -0.026 A 
ATOM     12  C   UNL     1      -2.305  -4.042   3.908  0.00  0.00    +0.024 A 
ATOM     13  C   UNL     1      -2.197  -4.742   5.098  0.00  0.00    +0.041 A 
ATOM     14  C   UNL     1      -1.398  -5.870   5.162  0.00  0.00    +0.022 A 
ATOM     15  C   UNL     1      -0.708  -6.299   4.048  0.00  0.00    +0.025 A 
ATOM     16  C   UNL     1      -0.812  -5.601   2.847  0.00  0.00    +0.036 A 
ATOM     17  N   UNL     1      -0.223  -5.834   1.602  0.00  0.00    -0.286 N 
ATOM     18  C   UNL     1      -0.585  -4.913   0.688  0.00  0.00    +0.211 C 
ATOM     19  O   UNL     1      -0.233  -4.865  -0.471  0.00  0.00    -0.277 OA
ATOM     20 CL   UNL     1      -3.062  -4.207   6.504  0.00  0.00    -0.084 Cl
ATOM     21  H   UNL     1       0.032  -2.597   1.396  0.00  0.00    -0.083 HD
ATOM     22  H   UNL     1       0.378  -6.573   1.417  0.00  0.00    +0.155 HD
ATOM     23  H   UNL     1      -1.375  -2.033   2.071  0.00  0.00    -0.083 HD
ENDROOT
BRANCH   1  24
ATOM     24  C   UNL     1      -1.438  -0.545   0.011  0.00  0.00    -0.012 C 
BRANCH  24  26
ATOM     25  C   UNL     1       0.831  -0.370  -1.021  0.00  0.00    +0.007 C 
ATOM     26  C   UNL     1      -0.019  -0.005   0.198  0.00  0.00    -0.019 C 
ATOM     27  C   UNL     1      -0.067   1.516   0.349  0.00  0.00    +0.007 C 
ENDBRANCH  24  26
ENDBRANCH   1  24
BRANCH   6  28
ATOM     28  C   UNL     1      -3.164  -5.381  -2.725  0.00  0.00    +0.121 C 
BRANCH  28  29
ATOM     29  C   UNL     1      -4.644  -5.564  -3.070  0.00  0.00    +0.054 C 
BRANCH  29  30
ATOM     30  C   UNL     1      -4.771  -6.432  -4.295  0.00  0.00    -0.046 A 
ATOM     31  C   UNL     1      -4.782  -5.856  -5.552  0.00  0.00    +0.004 A 
ATOM     32  C   UNL     1      -4.899  -6.653  -6.676  0.00  0.00    +0.000 A 
ATOM     33  C   UNL     1      -5.004  -8.025  -6.543  0.00  0.00    +0.000 A 
ATOM     34  C   UNL     1      -4.992  -8.600  -5.286  0.00  0.00    +0.000 A 
ATOM     35  C   UNL     1      -4.871  -7.804  -4.162  0.00  0.00    +0.004 A 
ENDBRANCH  29  30
ENDBRANCH  28  29
ENDBRANCH   6  28
TORSDOF 5
