REMARK  Name = ZINC50208591
REMARK  5 active torsions:
REMARK  status: ('A' for Active; 'I' for Inactive)
REMARK    1  A    between atoms: C_3  and  O_21
REMARK    2  A    between atoms: C_6  and  C_7
REMARK    3  A    between atoms: C_7  and  C_8
REMARK    4  A    between atoms: C_10  and  C_13
REMARK    5  A    between atoms: C_18  and  N_19
REMARK                            x       y       z     vdW  Elec       q    Type
REMARK                         _______ _______ _______ _____ _____    ______ ____
ROOT
ATOM      1  C   UNL     1      -1.721  -1.079  -1.440  0.00  0.00    +0.176 A 
ATOM      2  N   UNL     1      -2.549  -0.289  -2.127  0.00  0.00    -0.191 NA
ATOM      3  C   UNL     1      -2.674  -0.733  -3.359  0.00  0.00    +0.260 A 
ATOM      4  O   UNL     1      -1.913  -1.835  -3.483  0.00  0.00    -0.333 OA
ATOM      5  N   UNL     1      -1.298  -2.035  -2.219  0.00  0.00    -0.061 NA
ENDROOT
BRANCH   3   6
ATOM      6  C   UNL     1      -3.503  -0.128  -4.418  0.00  0.00    +0.061 A 
ATOM      7  C   UNL     1      -3.452   1.248  -4.651  0.00  0.00    +0.030 A 
ATOM      8  C   UNL     1      -4.230   1.808  -5.643  0.00  0.00    +0.019 A 
ATOM      9  C   UNL     1      -5.064   1.010  -6.411  0.00  0.00    +0.017 A 
ATOM     10  C   UNL     1      -5.125  -0.351  -6.192  0.00  0.00    +0.024 A 
ATOM     11  C   UNL     1      -4.344  -0.932  -5.202  0.00  0.00    +0.037 A 
ATOM     12 BR   UNL     1      -4.159   3.671  -5.955  0.00  0.00    -0.050 Br
BRANCH  11  13
ATOM     13  N   UNL     1      -4.399  -2.306  -4.984  0.00  0.00    -0.357 N 
ATOM     14  H   UNL     1      -3.928  -2.697  -4.233  0.00  0.00    +0.142 HD
ATOM     15  H   UNL     1      -4.909  -2.872  -5.585  0.00  0.00    +0.142 HD
ENDBRANCH  11  13
ENDBRANCH   3   6
BRANCH   1  16
ATOM     16  C   UNL     1      -1.331  -0.892   0.004  0.00  0.00    +0.114 C 
BRANCH  16  22
ATOM     17  C   UNL     1      -0.240   1.353   0.182  0.00  0.00    +0.007 A 
ATOM     18  C   UNL     1       0.883   2.155   0.256  0.00  0.00    +0.045 A 
ATOM     19  C   UNL     1       2.146   1.582   0.232  0.00  0.00    +0.117 A 
ATOM     20  C   UNL     1       2.279   0.205   0.133  0.00  0.00    +0.045 A 
ATOM     21  C   UNL     1       1.153  -0.593   0.059  0.00  0.00    +0.007 A 
ATOM     22  C   UNL     1      -0.105  -0.019   0.084  0.00  0.00    -0.040 A 
BRANCH  19  23
ATOM     23  O   UNL     1       3.252   2.369   0.304  0.00  0.00    -0.507 OA
ATOM     24  H   UNL     1       3.560   2.533   1.206  0.00  0.00    +0.292 HD
ENDBRANCH  19  23
ENDBRANCH  16  22
ENDBRANCH   1  16
TORSDOF 5
