REMARK  Name = ZINC00365654
REMARK  7 active torsions:
REMARK  status: ('A' for Active; 'I' for Inactive)
REMARK    1  A    between atoms: C_1  and  C_2
REMARK    2  A    between atoms: C_3  and  C_22
REMARK    3  A    between atoms: C_4  and  C_10
REMARK    4  A    between atoms: C_13  and  O_20
REMARK    5  A    between atoms: O_20  and  C_21
REMARK    6  A    between atoms: C_22  and  O_24
REMARK    7  A    between atoms: O_24  and  C_25
REMARK                            x       y       z     vdW  Elec       q    Type
REMARK                         _______ _______ _______ _____ _____    ______ ____
ROOT
ATOM      1  C   UNL     1      -1.417   1.018  -0.137  0.00  0.00    +0.061 C 
ATOM      2  C   UNL     1      -0.027   1.524   0.151  0.00  0.00    +0.019 C 
ATOM      3  C   UNL     1       1.026   0.979  -0.496  0.00  0.00    +0.078 C 
ATOM      4  C   UNL     1       2.406   1.517  -0.176  0.00  0.00    +0.142 C 
ATOM      5  N   UNL     1       2.486   2.598   0.821  0.00  0.00    -0.315 N 
ATOM      6  C   UNL     1       1.343   3.038   1.382  0.00  0.00    +0.135 C 
ATOM      7  S   UNL     1       1.420   4.299   2.538  0.00  0.00    -0.019 S 
ATOM      8  N   UNL     1       0.148   2.526   1.062  0.00  0.00    -0.300 N 
ATOM      9  H   UNL     1       3.341   2.983   1.068  0.00  0.00    +0.149 HD
ATOM     10  H   UNL     1      -0.638   2.886   1.502  0.00  0.00    +0.154 HD
ENDROOT
BRANCH   4  11
ATOM     11  C   UNL     1       3.016   2.023  -1.458  0.00  0.00    -0.015 A 
ATOM     12  C   UNL     1       2.223   2.294  -2.532  0.00  0.00    +0.010 A 
ATOM     13  C   UNL     1       2.765   2.766  -3.724  0.00  0.00    +0.046 A 
ATOM     14  C   UNL     1       4.111   2.963  -3.854  0.00  0.00    +0.128 A 
ATOM     15  C   UNL     1       4.962   2.688  -2.765  0.00  0.00    +0.024 A 
ATOM     16  C   UNL     1       4.405   2.211  -1.552  0.00  0.00    -0.009 A 
ATOM     17  C   UNL     1       5.254   1.937  -0.465  0.00  0.00    +0.009 A 
ATOM     18  C   UNL     1       6.595   2.133  -0.592  0.00  0.00    +0.001 A 
ATOM     19  C   UNL     1       7.142   2.601  -1.785  0.00  0.00    +0.001 A 
ATOM     20  C   UNL     1       6.351   2.877  -2.858  0.00  0.00    +0.012 A 
BRANCH  14  21
ATOM     21  O   UNL     1       4.625   3.419  -5.025  0.00  0.00    -0.495 OA
ATOM     22  C   UNL     1       3.700   3.675  -6.084  0.00  0.00    +0.277 C 
ENDBRANCH  14  21
ENDBRANCH   4  11
BRANCH   3  23
ATOM     23  C   UNL     1       0.847  -0.058  -1.440  0.00  0.00    +0.338 C 
ATOM     24  O   UNL     1      -0.275  -0.438  -1.721  0.00  0.00    -0.245 OA
BRANCH  23  25
ATOM     25  O   UNL     1       1.919  -0.627  -2.030  0.00  0.00    -0.465 OA
ATOM     26  C   UNL     1       1.662  -1.574  -3.069  0.00  0.00    +0.280 C 
ENDBRANCH  23  25
ENDBRANCH   3  23
TORSDOF 4
