REMARK  Name = ZINC39977393
REMARK  6 active torsions:
REMARK  status: ('A' for Active; 'I' for Inactive)
REMARK    1  A    between atoms: C_1  and  C_2
REMARK    2  A    between atoms: C_5  and  S_8
REMARK    3  A    between atoms: S_8  and  N_11
REMARK    4  A    between atoms: C_13  and  N_23
REMARK    5  A    between atoms: N_23  and  C_24
REMARK    6  A    between atoms: C_28  and  C_30
REMARK                            x       y       z     vdW  Elec       q    Type
REMARK                         _______ _______ _______ _____ _____    ______ ____
ROOT
ATOM      1  N   UNL     1       1.494  -5.117  -0.281  0.00  0.00    -0.110 NA
ATOM      2  C   UNL     1       1.900  -6.346  -0.160  0.00  0.00    +0.192 C 
ATOM      3  C   UNL     1       3.375  -6.658  -0.040  0.00  0.00    +0.237 C 
ATOM      4  N   UNL     1       3.769  -8.069   0.095  0.00  0.00    -0.359 N 
ATOM      5  C   UNL     1       2.835  -8.979   0.104  0.00  0.00    +0.063 A 
ATOM      6  C   UNL     1       3.177 -10.403   0.236  0.00  0.00    +0.027 A 
ATOM      7  C   UNL     1       2.181 -11.316   0.241  0.00  0.00    +0.002 A 
ATOM      8  C   UNL     1       0.833 -10.939   0.125  0.00  0.00    +0.002 A 
ATOM      9  C   UNL     1       0.442  -9.652   0.000  0.00  0.00    +0.030 A 
ATOM     10  C   UNL     1       1.403  -8.610  -0.018  0.00  0.00    +0.089 A 
ATOM     11  N   UNL     1       1.016  -7.356  -0.135  0.00  0.00    -0.226 NA
ATOM     12  H   UNL     1       4.704  -8.318   0.174  0.00  0.00    +0.162 HD
ENDROOT
BRANCH   1  13
ATOM     13  S   UNL     1      -0.124  -4.788  -0.405  0.00  0.00    +0.100 S 
ATOM     14  O   UNL     1      -0.709  -5.149   0.839  0.00  0.00    -0.146 OA
ATOM     15  O   UNL     1      -0.558  -5.343  -1.639  0.00  0.00    -0.146 OA
BRANCH  13  20
ATOM     16  C   UNL     1      -0.699   1.197  -0.908  0.00  0.00    +0.044 C 
ATOM     17  C   UNL     1      -0.555  -0.298  -0.782  0.00  0.00    -0.050 A 
ATOM     18  C   UNL     1      -0.416  -1.077  -1.916  0.00  0.00    +0.005 A 
ATOM     19  C   UNL     1      -0.284  -2.448  -1.801  0.00  0.00    +0.029 A 
ATOM     20  C   UNL     1      -0.291  -3.040  -0.552  0.00  0.00    +0.113 A 
ATOM     21  C   UNL     1      -0.430  -2.261   0.582  0.00  0.00    +0.029 A 
ATOM     22  C   UNL     1      -0.557  -0.890   0.467  0.00  0.00    +0.005 A 
ENDBRANCH  13  20
ENDBRANCH   1  13
BRANCH   3  23
ATOM     23  N   UNL     1       4.044  -6.119  -1.226  0.00  0.00    -0.318 N 
ATOM     24  H   UNL     1       3.649  -6.240  -2.103  0.00  0.00    +0.148 HD
BRANCH  23  25
ATOM     25  C   UNL     1       5.252  -5.429  -1.093  0.00  0.00    +0.030 A 
ATOM     26  C   UNL     1       5.900  -5.392   0.136  0.00  0.00    +0.023 A 
ATOM     27  C   UNL     1       7.095  -4.711   0.274  0.00  0.00    +0.003 A 
ATOM     28  C   UNL     1       7.654  -4.063  -0.809  0.00  0.00    +0.015 A 
ATOM     29  C   UNL     1       7.011  -4.094  -2.049  0.00  0.00    +0.065 A 
ATOM     30  C   UNL     1       5.807  -4.787  -2.189  0.00  0.00    +0.038 A 
BRANCH  29  31
ATOM     31  C   UNL     1       7.606  -3.401  -3.209  0.00  0.00    +0.387 C 
ATOM     32  O   UNL     1       8.663  -2.799  -3.085  0.00  0.00    -0.241 OA
ATOM     33  O   UNL     1       7.042  -3.430  -4.293  0.00  0.00    -0.241 OA
ENDBRANCH  29  31
ENDBRANCH  23  25
ENDBRANCH   3  23
TORSDOF 5
