REMARK  Name = ZINC19941348
REMARK  7 active torsions:
REMARK  status: ('A' for Active; 'I' for Inactive)
REMARK    1  A    between atoms: C_1  and  C_2
REMARK    2  A    between atoms: C_9  and  C_14
REMARK    3  A    between atoms: C_14  and  C_16
REMARK    4  A    between atoms: C_14  and  N_26
REMARK    5  A    between atoms: N_20  and  C_21
REMARK    6  A    between atoms: N_29  and  C_32
REMARK    7  A    between atoms: C_37  and  C_38
REMARK                            x       y       z     vdW  Elec       q    Type
REMARK                         _______ _______ _______ _____ _____    ______ ____
ROOT
ATOM      1  C   UNL     1      -4.985   1.048   0.031  0.00  0.00    +0.162 C 
ENDROOT
BRANCH   1  10
ATOM      2  C   UNL     1       0.234   5.183   3.390  0.00  0.00    +0.044 C 
ATOM      3  C   UNL     1      -0.277   4.438   2.184  0.00  0.00    -0.050 A 
ATOM      4  C   UNL     1       0.488   4.395   1.026  0.00  0.00    +0.005 A 
ATOM      5  C   UNL     1       0.040   3.720  -0.088  0.00  0.00    +0.026 A 
ATOM      6  C   UNL     1      -1.192   3.073  -0.055  0.00  0.00    +0.049 A 
ATOM      7  C   UNL     1      -1.962   3.115   1.122  0.00  0.00    -0.001 A 
ATOM      8  C   UNL     1      -1.490   3.811   2.240  0.00  0.00    +0.013 A 
ATOM      9  C   UNL     1      -3.254   2.426   1.149  0.00  0.00    +0.021 A 
ATOM     10  C   UNL     1      -3.661   1.767   0.036  0.00  0.00    +0.042 A 
ATOM     11  C   UNL     1      -2.848   1.752  -1.117  0.00  0.00    +0.254 A 
ATOM     12  O   UNL     1      -3.231   1.153  -2.107  0.00  0.00    -0.268 OA
ATOM     13  N   UNL     1      -1.665   2.390  -1.155  0.00  0.00    -0.322 N 
ATOM     14  H   UNL     1      -1.072   2.361  -2.081  0.00  0.00    +0.169 HD
ENDBRANCH   1  10
BRANCH   1  15
ATOM     15  N   UNL     1      -5.842   1.608  -1.023  0.00  0.00    -0.286 NA
ATOM     16  C   UNL     1      -6.001   3.059  -0.858  0.00  0.00    +0.104 C 
ATOM     17  C   UNL     1      -6.831   3.615  -2.017  0.00  0.00    +0.120 C 
ATOM     18  N   UNL     1      -8.139   2.944  -2.045  0.00  0.00    -0.327 N 
ATOM     19  C   UNL     1      -7.980   1.493  -2.210  0.00  0.00    +0.120 C 
ATOM     20  C   UNL     1      -7.149   0.938  -1.051  0.00  0.00    +0.104 C 
BRANCH  18  21
ATOM     21  C   UNL     1      -8.953   3.476  -3.047  0.00  0.00    +0.034 A 
ATOM     22  C   UNL     1      -8.582   3.358  -4.380  0.00  0.00    +0.043 A 
ATOM     23  C   UNL     1      -9.393   3.882  -5.370  0.00  0.00    +0.043 A 
ATOM     24  C   UNL     1     -10.567   4.532  -5.032  0.00  0.00    +0.020 A 
ATOM     25  C   UNL     1     -10.936   4.655  -3.705  0.00  0.00    +0.006 A 
ATOM     26  C   UNL     1     -10.132   4.129  -2.712  0.00  0.00    -0.029 A 
ATOM     27  C   UNL     1     -10.535   4.264  -1.266  0.00  0.00    +0.045 C 
ATOM     28 CL   UNL     1      -8.934   3.731  -7.037  0.00  0.00    -0.083 Cl
ENDBRANCH  18  21
ENDBRANCH   1  15
BRANCH   1  29
ATOM     29  C   UNL     1      -5.657   1.222   1.369  0.00  0.00    +0.173 A 
ATOM     30  N   UNL     1      -6.251   2.304   1.811  0.00  0.00    -0.111 NA
ATOM     31  N   UNL     1      -6.699   2.056   2.994  0.00  0.00    -0.023 NA
ATOM     32  N   UNL     1      -6.406   0.845   3.317  0.00  0.00    -0.044 NA
ATOM     33  N   UNL     1      -5.768   0.296   2.339  0.00  0.00    -0.224 N 
BRANCH  33  34
ATOM     34  C   UNL     1      -5.258  -1.077   2.294  0.00  0.00    +0.111 C 
ATOM     35  C   UNL     1      -6.413  -2.077   2.500  0.00  0.00    +0.027 C 
ATOM     36  C   UNL     1      -5.785  -3.211   3.349  0.00  0.00    +0.002 C 
ATOM     37  C   UNL     1      -4.850  -2.440   4.313  0.00  0.00    +0.002 C 
ATOM     38  C   UNL     1      -4.264  -1.307   3.446  0.00  0.00    +0.027 C 
ENDBRANCH  33  34
ENDBRANCH   1  29
TORSDOF 5
