REMARK  Name = ZINC04036172
REMARK  8 active torsions:
REMARK  status: ('A' for Active; 'I' for Inactive)
REMARK    1  A    between atoms: C_1  and  C_2
REMARK    2  A    between atoms: C_5  and  C_8
REMARK    3  A    between atoms: C_11  and  C_18
REMARK    4  A    between atoms: N_13  and  S_14
REMARK    5  A    between atoms: S_14  and  C_17
REMARK    6  A    between atoms: C_21  and  N_24
REMARK    7  A    between atoms: N_24  and  S_25
REMARK    8  A    between atoms: S_25  and  C_28
REMARK                            x       y       z     vdW  Elec       q    Type
REMARK                         _______ _______ _______ _____ _____    ______ ____
ROOT
ATOM      1  C   UNL     1       7.522   4.116   2.857  0.00  0.00    +0.153 C 
ATOM      2  C   UNL     1       6.258   3.589   2.148  0.00  0.00    +0.088 C 
ATOM      3  C   UNL     1       5.330   3.222   3.284  0.00  0.00    +0.070 C 
ATOM      4  N   UNL     1       5.908   3.465   4.409  0.00  0.00    -0.167 NA
ATOM      5  N   UNL     1       7.193   3.990   4.286  0.00  0.00    -0.120 N 
ENDROOT
BRANCH   1  10
ATOM      6  C   UNL     1      12.095   0.845   1.526  0.00  0.00    +0.044 C 
ATOM      7  C   UNL     1      10.903   1.698   1.873  0.00  0.00    -0.050 A 
ATOM      8  C   UNL     1      10.754   2.945   1.297  0.00  0.00    +0.004 A 
ATOM      9  C   UNL     1       9.660   3.728   1.615  0.00  0.00    +0.006 A 
ATOM     10  C   UNL     1       8.714   3.263   2.510  0.00  0.00    -0.023 A 
ATOM     11  C   UNL     1       8.866   2.017   3.091  0.00  0.00    +0.006 A 
ATOM     12  C   UNL     1       9.957   1.233   2.768  0.00  0.00    +0.004 A 
ENDBRANCH   1  10
BRANCH   3  13
ATOM     13  C   UNL     1       3.973   2.665   3.127  0.00  0.00    -0.002 A 
ATOM     14  C   UNL     1       3.208   2.358   4.255  0.00  0.00    +0.011 A 
ATOM     15  C   UNL     1       1.941   1.838   4.106  0.00  0.00    +0.025 A 
ATOM     16  C   UNL     1       1.423   1.619   2.834  0.00  0.00    +0.048 A 
ATOM     17  C   UNL     1       2.184   1.918   1.709  0.00  0.00    +0.025 A 
ATOM     18  C   UNL     1       3.450   2.443   1.851  0.00  0.00    +0.011 A 
BRANCH  16  19
ATOM     19  N   UNL     1       0.139   1.092   2.686  0.00  0.00    -0.221 N 
ATOM     20  H   UNL     1      -0.020   0.150   2.852  0.00  0.00    +0.173 HD
BRANCH  19  21
ATOM     21  S   UNL     1      -1.111   2.075   2.226  0.00  0.00    +0.040 S 
ATOM     22  O   UNL     1      -2.247   1.222   2.184  0.00  0.00    -0.155 OA
ATOM     23  O   UNL     1      -0.649   2.724   1.050  0.00  0.00    -0.155 OA
ATOM     24  C   UNL     1      -1.281   3.275   3.576  0.00  0.00    +0.218 C 
ENDBRANCH  19  21
ENDBRANCH  16  19
ENDBRANCH   3  13
BRANCH   5  25
ATOM     25  S   UNL     1       8.188   4.404   5.544  0.00  0.00    +0.057 S 
ATOM     26  O   UNL     1       7.846   3.505   6.589  0.00  0.00    -0.154 OA
ATOM     27  O   UNL     1       9.495   4.404   4.987  0.00  0.00    -0.154 OA
ATOM     28  C   UNL     1       7.699   6.094   5.988  0.00  0.00    +0.220 C 
ENDBRANCH   5  25
TORSDOF 5
