REMARK  Name = ZINC33638138
REMARK  11 active torsions:
REMARK  status: ('A' for Active; 'I' for Inactive)
REMARK    1  A    between atoms: C_1  and  C_2
REMARK    2  A    between atoms: C_2  and  C_3
REMARK    3  A    between atoms: C_3  and  O_4
REMARK    4  A    between atoms: O_4  and  C_5
REMARK    5  A    between atoms: C_8  and  C_11
REMARK    6  A    between atoms: N_19  and  C_22
REMARK    7  A    between atoms: C_25  and  C_28
REMARK    8  A    between atoms: C_28  and  C_29
REMARK    9  A    between atoms: C_30  and  C_32
REMARK   10  A    between atoms: C_30  and  C_39
REMARK   11  A    between atoms: C_32  and  C_33
REMARK                            x       y       z     vdW  Elec       q    Type
REMARK                         _______ _______ _______ _____ _____    ______ ____
ROOT
ATOM      1  C   UNL     1      -1.944   2.034   2.152  0.00  0.00    -0.027 C 
ATOM      2  C   UNL     1      -0.611   2.761   2.173  0.00  0.00    +0.077 C 
ATOM      3  C   UNL     1      -0.629   3.325   0.701  0.00  0.00    +0.086 C 
ATOM      4  C   UNL     1       0.389   4.351   0.774  0.00  0.00    +0.229 C 
ATOM      5  O   UNL     1       1.148   4.690  -0.108  0.00  0.00    -0.275 OA
ATOM      6  N   UNL     1       0.320   4.847   2.053  0.00  0.00    -0.210 N 
ATOM      7  C   UNL     1      -0.443   4.070   2.879  0.00  0.00    +0.229 C 
ATOM      8  O   UNL     1      -0.892   4.378   3.962  0.00  0.00    -0.275 OA
ATOM      9  C   UNL     1      -1.004   2.133  -0.078  0.00  0.00    +0.048 C 
ATOM     10  N   UNL     1      -2.110   1.541   0.751  0.00  0.00    +0.395 N 
ATOM     11  H   UNL     1      -2.051   0.443   0.739  0.00  0.00    -0.083 HD
ATOM     12  H   UNL     1      -3.089   1.860   0.364  0.00  0.00    -0.083 HD
ENDROOT
BRANCH   1  16
ATOM     13  C   UNL     1      -5.114   4.715   3.162  0.00  0.00    +0.121 A 
ATOM     14  C   UNL     1      -4.661   4.637   1.853  0.00  0.00    +0.046 A 
ATOM     15  C   UNL     1      -3.636   3.769   1.529  0.00  0.00    +0.005 A 
ATOM     16  C   UNL     1      -3.062   2.979   2.508  0.00  0.00    -0.060 A 
ATOM     17  C   UNL     1      -3.516   3.052   3.812  0.00  0.00    +0.005 A 
ATOM     18  C   UNL     1      -4.537   3.922   4.142  0.00  0.00    +0.046 A 
BRANCH  13  19
ATOM     19  O   UNL     1      -6.123   5.568   3.483  0.00  0.00    -0.492 OA
BRANCH  19  20
ATOM     20  C   UNL     1      -6.538   5.596   4.850  0.00  0.00    +0.229 C 
BRANCH  20  22
ATOM     21  C   UNL     1      -8.119   6.637   6.480  0.00  0.00    +0.007 C 
ATOM     22  C   UNL     1      -7.675   6.607   5.017  0.00  0.00    +0.038 C 
ENDBRANCH  20  22
ENDBRANCH  19  20
ENDBRANCH  13  19
ENDBRANCH   1  16
BRANCH   6  23
ATOM     23  C   UNL     1       0.964   6.022   2.466  0.00  0.00    +0.044 A 
ATOM     24  C   UNL     1       1.727   6.751   1.565  0.00  0.00    +0.024 A 
ATOM     25  C   UNL     1       2.355   7.911   1.973  0.00  0.00    +0.005 A 
ATOM     26  C   UNL     1       2.234   8.340   3.282  0.00  0.00    -0.048 A 
ATOM     27  C   UNL     1       1.478   7.613   4.184  0.00  0.00    +0.005 A 
ATOM     28  C   UNL     1       0.843   6.455   3.779  0.00  0.00    +0.024 A 
BRANCH  26  29
ATOM     29  C   UNL     1       2.925   9.603   3.727  0.00  0.00    +0.032 C 
ATOM     30  C   UNL     1       4.327   9.264   4.237  0.00  0.00    +0.009 C 
ENDBRANCH  26  29
ENDBRANCH   6  23
BRANCH   9  31
ATOM     31  C   UNL     1       0.156   1.177  -0.185  0.00  0.00    +0.346 C 
ATOM     32  O   UNL     1       1.286   1.601  -0.233  0.00  0.00    -0.248 OA
ATOM     33  O   UNL     1      -0.068  -0.146  -0.232  0.00  0.00    -0.248 OA
ENDBRANCH   9  31
BRANCH   9  34
ATOM     34  C   UNL     1      -1.514   2.524  -1.466  0.00  0.00    +0.003 C 
BRANCH  34  35
ATOM     35  C   UNL     1      -1.891   1.261  -2.245  0.00  0.00    -0.012 C 
ATOM     36  C   UNL     1      -2.225   1.635  -3.690  0.00  0.00    +0.003 C 
ATOM     37  C   UNL     1      -2.602   0.373  -4.469  0.00  0.00    +0.000 C 
ATOM     38  C   UNL     1      -3.820  -0.285  -3.817  0.00  0.00    +0.000 C 
ATOM     39  C   UNL     1      -3.485  -0.658  -2.371  0.00  0.00    +0.000 C 
ATOM     40  C   UNL     1      -3.108   0.604  -1.593  0.00  0.00    +0.003 C 
ENDBRANCH  34  35
ENDBRANCH   9  34
TORSDOF 9
