REMARK  Name = ZINC66599835
REMARK  10 active torsions:
REMARK  status: ('A' for Active; 'I' for Inactive)
REMARK    1  A    between atoms: C_1  and  C_2
REMARK    2  A    between atoms: C_2  and  C_3
REMARK    3  A    between atoms: C_3  and  C_4
REMARK    4  A    between atoms: C_4  and  N_5
REMARK    5  A    between atoms: C_10  and  C_12
REMARK    6  A    between atoms: C_12  and  N_13
REMARK    7  A    between atoms: N_16  and  N_17
REMARK    8  A    between atoms: C_18  and  C_20
REMARK    9  A    between atoms: C_22  and  C_26
REMARK   10  A    between atoms: C_24  and  C_25
REMARK                            x       y       z     vdW  Elec       q    Type
REMARK                         _______ _______ _______ _____ _____    ______ ____
ROOT
ATOM      1  N   UNL     1      -0.567  -3.610  -3.588  0.00  0.00    -0.300 N 
ATOM      2  C   UNL     1      -1.893  -3.747  -3.786  0.00  0.00    +0.316 C 
ATOM      3  O   UNL     1      -2.551  -4.439  -3.034  0.00  0.00    -0.251 OA
ATOM      4  N   UNL     1      -2.489  -3.116  -4.817  0.00  0.00    -0.218 N 
ATOM      5  H   UNL     1      -0.054  -3.001  -4.143  0.00  0.00    +0.150 HD
ATOM      6  H   UNL     1      -3.453  -3.156  -4.918  0.00  0.00    +0.174 HD
ENDROOT
BRANCH   4   7
ATOM      7  N   UNL     1      -1.717  -2.401  -5.742  0.00  0.00    -0.229 N 
ATOM      8  C   UNL     1      -2.319  -1.683  -6.710  0.00  0.00    +0.263 C 
ATOM      9  O   UNL     1      -3.531  -1.581  -6.728  0.00  0.00    -0.269 OA
ATOM     10  H   UNL     1      -0.749  -2.423  -5.685  0.00  0.00    +0.173 HD
BRANCH   8  11
ATOM     11  C   UNL     1      -1.509  -1.021  -7.749  0.00  0.00    +0.079 A 
ATOM     12  C   UNL     1      -0.055  -1.123  -7.941  0.00  0.00    +0.057 A 
ATOM     13  C   UNL     1       0.231  -0.354  -9.002  0.00  0.00    +0.103 A 
ATOM     14  O   UNL     1      -0.902   0.198  -9.464  0.00  0.00    -0.464 OA
ATOM     15  C   UNL     1      -1.953  -0.191  -8.736  0.00  0.00    +0.114 A 
ATOM     16  C   UNL     1      -3.384   0.221  -8.964  0.00  0.00    +0.087 C 
ATOM     17  C   UNL     1       1.606  -0.142  -9.583  0.00  0.00    +0.086 C 
ENDBRANCH   8  11
ENDBRANCH   4   7
BRANCH   1  18
ATOM     18  C   UNL     1       0.100  -4.380  -2.535  0.00  0.00    +0.090 C 
BRANCH  18  24
ATOM     19  N   UNL     1       1.634  -2.494  -2.249  0.00  0.00    +0.383 N 
ATOM     20  C   UNL     1       3.032  -2.080  -2.078  0.00  0.00    -0.078 C 
ATOM     21  C   UNL     1       3.820  -2.395  -3.351  0.00  0.00    -0.019 C 
ATOM     22  C   UNL     1       3.762  -3.901  -3.622  0.00  0.00    -0.003 C 
ATOM     23  C   UNL     1       2.297  -4.335  -3.725  0.00  0.00    -0.014 C 
ATOM     24  C   UNL     1       1.565  -3.948  -2.438  0.00  0.00    -0.051 C 
ATOM     25  H   UNL     1       1.245  -2.032  -3.057  0.00  0.00    -0.081 HD
BRANCH  19  26
ATOM     26  C   UNL     1       0.865  -2.120  -1.055  0.00  0.00    -0.078 C 
BRANCH  26  27
ATOM     27  C   UNL     1       0.813  -0.595  -0.939  0.00  0.00    -0.019 C 
BRANCH  27  29
ATOM     28  C   UNL     1       0.160   1.312   0.537  0.00  0.00    +0.004 C 
ATOM     29  C   UNL     1       0.104  -0.206   0.360  0.00  0.00    -0.005 C 
ENDBRANCH  27  29
ENDBRANCH  26  27
ENDBRANCH  19  26
ENDBRANCH  18  24
ENDBRANCH   1  18
TORSDOF 7
