REMARK  Name = ZINC06198066
REMARK  11 active torsions:
REMARK  status: ('A' for Active; 'I' for Inactive)
REMARK    1  A    between atoms: C_1  and  C_2
REMARK    2  A    between atoms: C_2  and  C_3
REMARK    3  A    between atoms: C_10  and  C_15
REMARK    4  A    between atoms: C_15  and  C_17
REMARK    5  A    between atoms: C_15  and  N_66
REMARK    6  A    between atoms: N_21  and  C_22
REMARK    7  A    between atoms: C_22  and  C_23
REMARK    8  A    between atoms: C_30  and  C_31
REMARK    9  A    between atoms: C_30  and  N_66
REMARK   10  A    between atoms: C_32  and  C_33
REMARK   11  A    between atoms: C_32  and  N_66
REMARK                            x       y       z     vdW  Elec       q    Type
REMARK                         _______ _______ _______ _____ _____    ______ ____
ROOT
ATOM      1  C   UNL     1       4.246   0.107  -2.523  0.00  0.00    +0.039 C 
ENDROOT
BRANCH   1   9
ATOM      2  C   UNL     1       9.077   3.480  -0.633  0.00  0.00    -0.047 A 
ATOM      3  C   UNL     1       8.392   4.207   0.331  0.00  0.00    +0.005 A 
ATOM      4  C   UNL     1       7.047   3.997   0.546  0.00  0.00    +0.026 A 
ATOM      5  C   UNL     1       6.368   3.045  -0.207  0.00  0.00    +0.049 A 
ATOM      6  C   UNL     1       7.066   2.310  -1.183  0.00  0.00    -0.001 A 
ATOM      7  C   UNL     1       8.431   2.541  -1.385  0.00  0.00    +0.013 A 
ATOM      8  C   UNL     1       6.343   1.306  -1.967  0.00  0.00    +0.017 A 
ATOM      9  C   UNL     1       5.020   1.128  -1.730  0.00  0.00    +0.011 A 
ATOM     10  C   UNL     1       4.367   1.893  -0.740  0.00  0.00    +0.251 A 
ATOM     11  O   UNL     1       3.178   1.713  -0.539  0.00  0.00    -0.268 OA
ATOM     12  N   UNL     1       5.023   2.813  -0.011  0.00  0.00    -0.322 N 
ATOM     13  H   UNL     1       4.528   3.337   0.682  0.00  0.00    +0.169 HD
BRANCH   2  15
ATOM     14  C   UNL     1      10.729   4.819  -1.909  0.00  0.00    +0.009 C 
ATOM     15  C   UNL     1      10.547   3.729  -0.851  0.00  0.00    +0.032 C 
ENDBRANCH   2  15
ENDBRANCH   1   9
BRANCH   1  16
ATOM     16  C   UNL     1       4.967  -0.177  -3.815  0.00  0.00    +0.143 A 
ATOM     17  N   UNL     1       5.929  -1.048  -3.999  0.00  0.00    -0.115 NA
ATOM     18  N   UNL     1       6.282  -0.996  -5.237  0.00  0.00    -0.023 NA
ATOM     19  N   UNL     1       5.570  -0.113  -5.848  0.00  0.00    -0.044 NA
ATOM     20  N   UNL     1       4.744   0.409  -5.006  0.00  0.00    -0.226 N 
BRANCH  20  21
ATOM     21  C   UNL     1       3.752   1.449  -5.291  0.00  0.00    +0.182 C 
BRANCH  21  22
ATOM     22  C   UNL     1       4.416   2.801  -5.251  0.00  0.00    -0.026 A 
ATOM     23  C   UNL     1       4.474   3.507  -4.064  0.00  0.00    +0.008 A 
ATOM     24  C   UNL     1       5.087   4.745  -4.025  0.00  0.00    +0.038 A 
ATOM     25  C   UNL     1       5.633   5.283  -5.178  0.00  0.00    +0.123 A 
ATOM     26  C   UNL     1       5.569   4.578  -6.368  0.00  0.00    +0.038 A 
ATOM     27  C   UNL     1       4.961   3.338  -6.403  0.00  0.00    +0.008 A 
ATOM     28  F   UNL     1       6.228   6.496  -5.142  0.00  0.00    -0.205 F 
ENDBRANCH  21  22
ENDBRANCH  20  21
ENDBRANCH   1  16
BRANCH   1  29
ATOM     29  N   UNL     1       4.130  -1.155  -1.762  0.00  0.00    +0.392 N 
ATOM     30  H   UNL     1       4.132  -1.942  -2.420  0.00  0.00    -0.080 HD
BRANCH  29  31
ATOM     31  C   UNL     1       5.278  -1.296  -0.841  0.00  0.00    -0.080 C 
ATOM     32  C   UNL     1       6.520  -1.659  -1.656  0.00  0.00    -0.017 C 
ENDBRANCH  29  31
BRANCH  29  33
ATOM     33  C   UNL     1       2.865  -1.170  -0.998  0.00  0.00    -0.042 C 
BRANCH  33  34
ATOM     34  C   UNL     1       1.713  -1.247  -1.967  0.00  0.00    -0.064 A 
ATOM     35  C   UNL     1       1.238  -2.477  -2.380  0.00  0.00    +0.002 A 
ATOM     36  C   UNL     1       0.182  -2.548  -3.269  0.00  0.00    +0.000 A 
ATOM     37  C   UNL     1      -0.399  -1.388  -3.745  0.00  0.00    +0.000 A 
ATOM     38  C   UNL     1       0.075  -0.157  -3.331  0.00  0.00    +0.000 A 
ATOM     39  C   UNL     1       1.131  -0.086  -2.442  0.00  0.00    +0.002 A 
ENDBRANCH  33  34
ENDBRANCH  29  33
ENDBRANCH   1  29
TORSDOF 9
