REMARK  Name = ZINC20133143
REMARK  6 active torsions:
REMARK  status: ('A' for Active; 'I' for Inactive)
REMARK    1  A    between atoms: C_3  and  O_34
REMARK    2  A    between atoms: C_6  and  C_7
REMARK    3  A    between atoms: C_10  and  C_16
REMARK    4  A    between atoms: C_19  and  O_22
REMARK    5  A    between atoms: O_22  and  C_23
REMARK    6  A    between atoms: O_34  and  C_35
REMARK                            x       y       z     vdW  Elec       q    Type
REMARK                         _______ _______ _______ _____ _____    ______ ____
ROOT
ATOM      1  C   UNL     1      -0.063   3.780   0.017  0.00  0.00    +0.131 C 
ATOM      2  C   UNL     1       1.059   3.042  -0.706  0.00  0.00    +0.169 C 
ATOM      3  C   UNL     1       1.254   1.703  -0.001  0.00  0.00    +0.131 C 
ATOM      4  N   UNL     1      -0.011   0.966   0.007  0.00  0.00    -0.291 N 
ATOM      5  C   UNL     1      -1.189   1.610   0.017  0.00  0.00    +0.301 C 
ATOM      6  O   UNL     1      -2.216   0.959   0.023  0.00  0.00    -0.253 OA
ATOM      7  N   UNL     1      -1.270   2.950   0.024  0.00  0.00    -0.291 N 
ATOM      8  C   UNL     1       0.600   2.763  -2.119  0.00  0.00    +0.260 C 
ATOM      9  O   UNL     1      -0.407   2.125  -2.342  0.00  0.00    -0.272 OA
ATOM     10  N   UNL     1       1.360   3.254  -3.124  0.00  0.00    -0.127 NA
ATOM     11  C   UNL     1       2.472   3.958  -2.886  0.00  0.00    +0.332 C 
ATOM     12  O   UNL     1       3.096   4.362  -3.847  0.00  0.00    -0.250 OA
ATOM     13  N   UNL     1       2.952   4.252  -1.672  0.00  0.00    -0.237 N 
ATOM     14  C   UNL     1       2.329   3.846  -0.543  0.00  0.00    +0.240 C 
ATOM     15  O   UNL     1       2.769   4.115   0.554  0.00  0.00    -0.274 OA
ATOM     16  H   UNL     1      -0.006  -0.134   0.006  0.00  0.00    +0.151 HD
ATOM     17  H   UNL     1      -2.263   3.424   0.036  0.00  0.00    +0.151 HD
ATOM     18  H   UNL     1       3.878   4.838  -1.573  0.00  0.00    +0.159 HD
ENDROOT
BRANCH   1  24
ATOM     19  C   UNL     1      -1.125   5.080  -1.840  0.00  0.00    +0.009 A 
ATOM     20  C   UNL     1      -1.394   6.268  -2.491  0.00  0.00    +0.046 A 
ATOM     21  C   UNL     1      -0.877   7.458  -2.001  0.00  0.00    +0.127 A 
ATOM     22  C   UNL     1      -0.095   7.453  -0.855  0.00  0.00    +0.046 A 
ATOM     23  C   UNL     1       0.166   6.263  -0.204  0.00  0.00    +0.009 A 
ATOM     24  C   UNL     1      -0.350   5.077  -0.695  0.00  0.00    -0.025 A 
BRANCH  21  25
ATOM     25  O   UNL     1      -1.135   8.628  -2.643  0.00  0.00    -0.434 OA
BRANCH  25  26
ATOM     26  C   UNL     1      -1.947   8.558  -3.817  0.00  0.00    +0.541 C 
ATOM     27  F   UNL     1      -1.327   7.738  -4.765  0.00  0.00    -0.166 F 
ATOM     28  F   UNL     1      -3.198   8.026  -3.487  0.00  0.00    -0.166 F 
ENDBRANCH  25  26
ENDBRANCH  21  25
ENDBRANCH   1  24
BRANCH   3  29
ATOM     29  C   UNL     1       1.704   1.944   1.417  0.00  0.00    -0.025 A 
ATOM     30  C   UNL     1       0.779   2.286   2.386  0.00  0.00    +0.009 A 
ATOM     31  C   UNL     1       1.189   2.501   3.688  0.00  0.00    +0.046 A 
ATOM     32  C   UNL     1       2.531   2.385   4.020  0.00  0.00    +0.127 A 
ATOM     33  C   UNL     1       3.458   2.047   3.045  0.00  0.00    +0.046 A 
ATOM     34  C   UNL     1       3.042   1.827   1.746  0.00  0.00    +0.009 A 
BRANCH  32  35
ATOM     35  O   UNL     1       2.937   2.603   5.298  0.00  0.00    -0.434 OA
BRANCH  35  36
ATOM     36  C   UNL     1       1.928   2.947   6.250  0.00  0.00    +0.541 C 
ATOM     37  F   UNL     1       1.294   4.129   5.851  0.00  0.00    -0.166 F 
ATOM     38  F   UNL     1       0.986   1.915   6.325  0.00  0.00    -0.166 F 
ENDBRANCH  35  36
ENDBRANCH  32  35
ENDBRANCH   3  29
TORSDOF 6
