REMARK  Name = ZINC01944490
REMARK  14 active torsions:
REMARK  status: ('A' for Active; 'I' for Inactive)
REMARK    1  A    between atoms: C_1  and  C_2
REMARK    2  A    between atoms: C_2  and  O_3
REMARK    3  A    between atoms: O_3  and  C_4
REMARK    4  A    between atoms: C_4  and  C_6
REMARK    5  A    between atoms: C_10  and  N_11
REMARK    6  A    between atoms: C_12  and  C_14
REMARK    7  A    between atoms: C_14  and  O_15
REMARK    8  A    between atoms: O_15  and  C_16
REMARK    9  A    between atoms: C_17  and  C_23
REMARK   10  A    between atoms: C_21  and  C_22
REMARK   11  A    between atoms: C_25  and  C_29
REMARK   12  A    between atoms: C_29  and  C_30
REMARK   13  A    between atoms: C_29  and  C_31
REMARK   14  A    between atoms: C_29  and  C_32
REMARK                            x       y       z     vdW  Elec       q    Type
REMARK                         _______ _______ _______ _____ _____    ______ ____
ROOT
ATOM      1  C   UNL     1       1.232   3.540   0.009  0.00  0.00    +0.091 A 
ATOM      2  C   UNL     1       1.250   4.300  -1.229  0.00  0.00    -0.021 A 
ATOM      3  C   UNL     1       1.304   5.641  -1.081  0.00  0.00    -0.004 A 
ATOM      4  S   UNL     1       1.331   5.902   0.670  0.00  0.00    -0.077 S 
ATOM      5  C   UNL     1       1.266   4.253   1.200  0.00  0.00    +0.086 A 
ATOM      6  C   UNL     1       1.334   6.670  -2.168  0.00  0.00    +0.046 C 
ATOM      7  C   UNL     1       1.672   5.966  -3.491  0.00  0.00    -0.000 C 
ATOM      8  C   UNL     1       0.785   4.726  -3.630  0.00  0.00    +0.009 C 
ATOM      9  C   UNL     1       1.211   3.665  -2.614  0.00  0.00    +0.037 C 
ENDROOT
BRANCH   5  10
ATOM     10  N   UNL     1       1.253   3.765   2.497  0.00  0.00    -0.277 N 
ATOM     11  C   UNL     1       1.292   4.620   3.539  0.00  0.00    +0.255 C 
ATOM     12  O   UNL     1       1.337   5.816   3.341  0.00  0.00    -0.272 OA
ATOM     13  H   UNL     1       1.212   2.681   2.677  0.00  0.00    +0.155 HD
BRANCH  11  14
ATOM     14  C   UNL     1       1.278   4.089   4.949  0.00  0.00    +0.324 C 
BRANCH  14  15
ATOM     15  O   UNL     1       1.325   5.182   5.870  0.00  0.00    -0.482 OA
BRANCH  15  16
ATOM     16  C   UNL     1       1.319   4.874   7.193  0.00  0.00    +0.127 A 
ATOM     17  C   UNL     1       0.116   4.769   7.877  0.00  0.00    -0.009 A 
ATOM     18  C   UNL     1       0.113   4.451   9.222  0.00  0.00    +0.007 A 
ATOM     19  C   UNL     1       1.307   4.247   9.888  0.00  0.00    +0.001 A 
ATOM     20  C   UNL     1       2.507   4.357   9.210  0.00  0.00    +0.007 A 
ATOM     21  C   UNL     1       2.516   4.670   7.864  0.00  0.00    -0.009 A 
ATOM     22  C   UNL     1       3.824   4.789   7.126  0.00  0.00    +0.047 C 
ATOM     23  C   UNL     1      -1.185   4.996   7.153  0.00  0.00    +0.047 C 
ENDBRANCH  15  16
ENDBRANCH  14  15
ENDBRANCH  11  14
ENDBRANCH   5  10
BRANCH   7  24
ATOM     24  C   UNL     1       1.410   6.918  -4.660  0.00  0.00    -0.035 C 
ATOM     25  C   UNL     1      -0.060   7.341  -4.654  0.00  0.00    +0.011 C 
ATOM     26  C   UNL     1       2.298   8.156  -4.518  0.00  0.00    +0.011 C 
ATOM     27  C   UNL     1       1.732   6.209  -5.977  0.00  0.00    +0.011 C 
ENDBRANCH   7  24
BRANCH   1  28
ATOM     28  C   UNL     1       1.176   2.076   0.002  0.00  0.00    +0.342 C 
ATOM     29  O   UNL     1       2.205   1.428  -0.011  0.00  0.00    -0.245 OA
BRANCH  28  30
ATOM     30  O   UNL     1      -0.018   1.448   0.010  0.00  0.00    -0.461 OA
BRANCH  30  32
ATOM     31  C   UNL     1      -1.433  -0.534   0.013  0.00  0.00    +0.048 C 
ATOM     32  C   UNL     1       0.002  -0.004   0.002  0.00  0.00    +0.229 C 
ENDBRANCH  30  32
ENDBRANCH  28  30
ENDBRANCH   1  28
TORSDOF 8
