REMARK  Name = ZINC14019516
REMARK  8 active torsions:
REMARK  status: ('A' for Active; 'I' for Inactive)
REMARK    1  A    between atoms: C_1  and  C_2
REMARK    2  A    between atoms: C_2  and  C_3
REMARK    3  A    between atoms: C_2  and  C_4
REMARK    4  A    between atoms: C_7  and  C_10
REMARK    5  A    between atoms: C_12  and  C_15
REMARK    6  A    between atoms: C_15  and  N_16
REMARK    7  A    between atoms: C_19  and  C_24
REMARK    8  A    between atoms: C_24  and  C_25
REMARK                            x       y       z     vdW  Elec       q    Type
REMARK                         _______ _______ _______ _____ _____    ______ ____
ROOT
ATOM      1  N   UNL     1      -4.555  -0.286  -2.145  0.00  0.00    -0.215 N 
ATOM      2  C   UNL     1      -4.528   0.862  -1.434  0.00  0.00    +0.244 C 
ATOM      3  O   UNL     1      -5.466   1.431  -0.918  0.00  0.00    -0.273 OA
ATOM      4  C   UNL     1      -3.074   1.292  -1.414  0.00  0.00    +0.165 C 
ATOM      5  N   UNL     1      -2.389   0.242  -2.188  0.00  0.00    -0.287 N 
ATOM      6  C   UNL     1      -3.335  -0.633  -2.572  0.00  0.00    +0.310 C 
ATOM      7  O   UNL     1      -3.108  -1.627  -3.233  0.00  0.00    -0.252 OA
ATOM      8  H   UNL     1      -1.440   0.193  -2.384  0.00  0.00    +0.151 HD
ENDROOT
BRANCH   1   9
ATOM      9  C   UNL     1      -5.771  -1.057  -2.415  0.00  0.00    +0.216 C 
BRANCH   9  12
ATOM     10  C   UNL     1      -6.575  -3.049   0.466  0.00  0.00    +0.202 A 
ATOM     11  N   UNL     1      -6.653  -1.879  -0.207  0.00  0.00    -0.190 NA
ATOM     12  C   UNL     1      -5.982  -2.066  -1.316  0.00  0.00    +0.246 A 
ATOM     13  O   UNL     1      -5.514  -3.317  -1.287  0.00  0.00    -0.336 OA
ATOM     14  N   UNL     1      -5.861  -3.867  -0.263  0.00  0.00    -0.056 NA
BRANCH  10  18
ATOM     15  C   UNL     1      -8.313  -3.904   4.252  0.00  0.00    -0.045 A 
ATOM     16  C   UNL     1      -7.579  -4.876   3.596  0.00  0.00    +0.004 A 
ATOM     17  C   UNL     1      -7.013  -4.604   2.367  0.00  0.00    +0.012 A 
ATOM     18  C   UNL     1      -7.182  -3.348   1.788  0.00  0.00    +0.022 A 
ATOM     19  C   UNL     1      -7.917  -2.371   2.456  0.00  0.00    +0.012 A 
ATOM     20  C   UNL     1      -8.483  -2.656   3.682  0.00  0.00    +0.004 A 
BRANCH  15  22
ATOM     21  C   UNL     1      -8.369  -3.241   6.641  0.00  0.00    +0.012 C 
ATOM     22  C   UNL     1      -8.928  -4.207   5.594  0.00  0.00    +0.013 C 
ATOM     23  C   UNL     1     -10.447  -4.043   5.508  0.00  0.00    +0.012 C 
ENDBRANCH  15  22
ENDBRANCH  10  18
ENDBRANCH   9  12
ENDBRANCH   1   9
BRANCH   4  24
ATOM     24  C   UNL     1      -2.545   1.335   0.021  0.00  0.00    +0.069 C 
BRANCH  24  25
ATOM     25  C   UNL     1      -1.122   1.831   0.017  0.00  0.00    -0.020 A 
ATOM     26  C   UNL     1      -0.013   1.076   0.008  0.00  0.00    +0.087 A 
ATOM     27  N   UNL     1       1.097   1.876   0.002  0.00  0.00    -0.360 N 
ATOM     28  H   UNL     1       2.014   1.559  -0.009  0.00  0.00    +0.165 HD
ATOM     29  C   UNL     1       0.719   3.200   0.012  0.00  0.00    +0.047 A 
ATOM     30  C   UNL     1      -0.688   3.230   0.025  0.00  0.00    +0.003 A 
ATOM     31  C   UNL     1      -1.358   4.455   0.038  0.00  0.00    +0.010 A 
ATOM     32  C   UNL     1      -0.644   5.620   0.037  0.00  0.00    +0.001 A 
ATOM     33  C   UNL     1       0.744   5.595   0.023  0.00  0.00    +0.002 A 
ATOM     34  C   UNL     1       1.426   4.398   0.011  0.00  0.00    +0.026 A 
ENDBRANCH  24  25
ENDBRANCH   4  24
TORSDOF 6
