REMARK  Name = ZINC33810057
REMARK  6 active torsions:
REMARK  status: ('A' for Active; 'I' for Inactive)
REMARK    1  A    between atoms: C_1  and  C_2
REMARK    2  A    between atoms: C_2  and  C_3
REMARK    3  A    between atoms: C_2  and  S_4
REMARK    4  A    between atoms: S_4  and  C_5
REMARK    5  A    between atoms: C_12  and  C_22
REMARK    6  A    between atoms: C_25  and  C_28
REMARK                            x       y       z     vdW  Elec       q    Type
REMARK                         _______ _______ _______ _____ _____    ______ ____
ROOT
ATOM      1  C   UNL     1       5.851   0.253   3.469  0.00  0.00    +0.171 A 
ATOM      2  N   UNL     1       6.212   0.826   2.287  0.00  0.00    -0.208 NA
ATOM      3  C   UNL     1       5.528   0.523   1.139  0.00  0.00    +0.135 A 
ATOM      4  C   UNL     1       4.488  -0.352   1.195  0.00  0.00    +0.069 A 
ATOM      5  C   UNL     1       4.147  -0.927   2.439  0.00  0.00    +0.258 A 
ATOM      6  O   UNL     1       3.220  -1.719   2.517  0.00  0.00    -0.267 OA
ATOM      7  N   UNL     1       4.848  -0.598   3.535  0.00  0.00    -0.302 N 
ATOM      8  C   UNL     1       3.710  -0.705  -0.038  0.00  0.00    +0.092 C 
ATOM      9  C   UNL     1       4.468  -0.336  -1.288  0.00  0.00    +0.024 C 
ATOM     10  C   UNL     1       5.501   0.529  -1.244  0.00  0.00    +0.017 C 
ATOM     11  N   UNL     1       5.888   1.094  -0.059  0.00  0.00    -0.302 N 
ATOM     12  C   UNL     1       6.262   0.896  -2.495  0.00  0.00    +0.051 C 
ATOM     13  C   UNL     1       5.325   0.831  -3.704  0.00  0.00    +0.014 C 
ATOM     14  C   UNL     1       4.752  -0.587  -3.796  0.00  0.00    +0.080 C 
ATOM     15  C   UNL     1       4.062  -0.921  -2.501  0.00  0.00    +0.162 C 
ATOM     16  O   UNL     1       3.138  -1.710  -2.504  0.00  0.00    -0.292 OA
ATOM     17  H   UNL     1       6.493   2.012  -0.071  0.00  0.00    +0.153 HD
ATOM     18  H   UNL     1       4.573  -1.050   4.500  0.00  0.00    +0.171 HD
ENDROOT
BRANCH   8  19
ATOM     19  C   UNL     1       2.396   0.034  -0.021  0.00  0.00    -0.035 A 
ATOM     20  C   UNL     1       1.208  -0.674  -0.013  0.00  0.00    +0.006 A 
ATOM     21  C   UNL     1       0.002  -0.004   0.002  0.00  0.00    +0.019 A 
ATOM     22  C   UNL     1      -0.017   1.392   0.010  0.00  0.00    +0.052 A 
ATOM     23  C   UNL     1       1.187   2.100   0.002  0.00  0.00    +0.019 A 
ATOM     24  C   UNL     1       2.385   1.417  -0.013  0.00  0.00    +0.006 A 
BRANCH  22  25
ATOM     25  C   UNL     1      -1.265   2.094   0.019  0.00  0.00    +0.099 C 
ATOM     26  N   UNL     1      -2.255   2.652   0.027  0.00  0.00    -0.191 NA
ENDBRANCH  22  25
ENDBRANCH   8  19
BRANCH   1  27
ATOM     27  S   UNL     1       6.742   0.656   4.934  0.00  0.00    -0.085 S 
BRANCH  27  29
ATOM     28  C   UNL     1       6.541  -0.269   7.497  0.00  0.00    +0.019 C 
ATOM     29  C   UNL     1       5.851  -0.363   6.135  0.00  0.00    +0.048 C 
ATOM     30  C   UNL     1       4.410   0.137   6.258  0.00  0.00    +0.019 C 
ENDBRANCH  27  29
ENDBRANCH   1  27
TORSDOF 4
