REMARK  Name = ZINC26600012
REMARK  4 active torsions:
REMARK  status: ('A' for Active; 'I' for Inactive)
REMARK    1  A    between atoms: C_4  and  C_7
REMARK    2  A    between atoms: C_7  and  N_8
REMARK    3  A    between atoms: C_14  and  C_24
REMARK    4  A    between atoms: C_28  and  O_30
REMARK                            x       y       z     vdW  Elec       q    Type
REMARK                         _______ _______ _______ _____ _____    ______ ____
ROOT
ATOM      1  N   UNL     1       4.542  -1.230   1.253  0.00  0.00    -0.217 N 
ATOM      2  C   UNL     1       5.335  -0.328   1.868  0.00  0.00    +0.261 C 
ATOM      3  O   UNL     1       6.021   0.443   1.223  0.00  0.00    -0.269 OA
ATOM      4  C   UNL     1       5.350  -0.303   3.341  0.00  0.00    +0.116 C 
ATOM      5  C   UNL     1       6.138   0.594   4.040  0.00  0.00    +0.027 C 
ATOM      6  C   UNL     1       6.399   0.236   5.460  0.00  0.00    +0.071 C 
ATOM      7  C   UNL     1       7.799   0.572   5.887  0.00  0.00    +0.087 C 
ATOM      8  S   UNL     1       8.091   2.322   6.094  0.00  0.00    -0.115 S 
ATOM      9  C   UNL     1       8.176   3.057   4.511  0.00  0.00    +0.030 A 
ATOM     10  C   UNL     1       9.056   4.140   4.372  0.00  0.00    +0.016 A 
ATOM     11  C   UNL     1       9.209   4.797   3.175  0.00  0.00    +0.001 A 
ATOM     12  C   UNL     1       8.479   4.382   2.075  0.00  0.00    +0.002 A 
ATOM     13  C   UNL     1       7.613   3.323   2.195  0.00  0.00    +0.024 A 
ATOM     14  C   UNL     1       7.441   2.640   3.412  0.00  0.00    +0.045 A 
ATOM     15  N   UNL     1       6.542   1.612   3.364  0.00  0.00    -0.316 N 
ATOM     16  C   UNL     1       4.488  -1.274   4.037  0.00  0.00    +0.258 C 
ATOM     17  O   UNL     1       4.446  -1.313   5.253  0.00  0.00    -0.270 OA
ATOM     18  N   UNL     1       3.746  -2.118   3.291  0.00  0.00    -0.235 N 
ATOM     19  C   UNL     1       3.778  -2.082   1.952  0.00  0.00    +0.316 C 
ATOM     20  O   UNL     1       3.082  -2.866   1.337  0.00  0.00    -0.252 OA
ATOM     21  H   UNL     1       6.029   1.675   2.543  0.00  0.00    +0.152 HD
ATOM     22  H   UNL     1       3.173  -2.763   3.734  0.00  0.00    +0.159 HD
ENDROOT
BRANCH   7  23
ATOM     23  C   UNL     1       8.082  -0.118   7.196  0.00  0.00    -0.030 A 
ATOM     24  C   UNL     1       7.301   0.156   8.304  0.00  0.00    +0.005 A 
ATOM     25  C   UNL     1       7.558  -0.475   9.507  0.00  0.00    +0.004 A 
ATOM     26  C   UNL     1       8.596  -1.382   9.605  0.00  0.00    +0.045 A 
ATOM     27  C   UNL     1       9.380  -1.659   8.495  0.00  0.00    +0.117 A 
ATOM     28  C   UNL     1       9.117  -1.028   7.287  0.00  0.00    +0.050 A 
BRANCH  27  29
ATOM     29  O   UNL     1      10.402  -2.550   8.588  0.00  0.00    -0.507 OA
ATOM     30  H   UNL     1      10.148  -3.462   8.390  0.00  0.00    +0.292 HD
ENDBRANCH  27  29
ENDBRANCH   7  23
BRANCH   1  31
ATOM     31  C   UNL     1       4.510  -1.274  -0.211  0.00  0.00    +0.153 C 
BRANCH  31  35
ATOM     32  C   UNL     1       1.474   1.363  -1.652  0.00  0.00    +0.000 A 
ATOM     33  C   UNL     1       2.762   1.829  -1.462  0.00  0.00    +0.000 A 
ATOM     34  C   UNL     1       3.744   0.975  -0.996  0.00  0.00    +0.005 A 
ATOM     35  C   UNL     1       3.439  -0.344  -0.718  0.00  0.00    -0.030 A 
ATOM     36  C   UNL     1       2.151  -0.810  -0.907  0.00  0.00    +0.005 A 
ATOM     37  C   UNL     1       1.169   0.043  -1.375  0.00  0.00    +0.000 A 
ENDBRANCH  31  35
ENDBRANCH   1  31
TORSDOF 4
