REMARK  Name = ZINC64182084
REMARK  10 active torsions:
REMARK  status: ('A' for Active; 'I' for Inactive)
REMARK    1  A    between atoms: C_1  and  C_2
REMARK    2  A    between atoms: C_5  and  S_8
REMARK    3  A    between atoms: S_8  and  N_11
REMARK    4  A    between atoms: N_11  and  C_12
REMARK    5  A    between atoms: C_12  and  C_14
REMARK    6  A    between atoms: C_12  and  C_18
REMARK    7  A    between atoms: C_14  and  C_15
REMARK    8  A    between atoms: C_15  and  C_16
REMARK    9  A    between atoms: C_15  and  C_17
REMARK   10  A    between atoms: C_23  and  C_26
REMARK                            x       y       z     vdW  Elec       q    Type
REMARK                         _______ _______ _______ _____ _____    ______ ____
ROOT
ATOM      1  C   UNL     1       3.563  -5.901   1.127  0.00  0.00    +0.234 C 
ATOM      2  O   UNL     1       3.505  -6.832   0.352  0.00  0.00    -0.274 OA
ATOM      3  N   UNL     1       4.415  -5.943   2.170  0.00  0.00    -0.296 N 
ATOM      4  C   UNL     1       5.354  -7.064   2.345  0.00  0.00    +0.113 C 
ATOM      5  C   UNL     1       6.777  -6.507   2.259  0.00  0.00    +0.054 C 
ATOM      6  C   UNL     1       6.903  -5.262   3.087  0.00  0.00    -0.043 C 
ATOM      7  C   UNL     1       5.872  -4.528   3.491  0.00  0.00    -0.004 C 
ATOM      8  C   UNL     1       4.447  -4.870   3.174  0.00  0.00    +0.135 C 
ENDROOT
BRANCH   6   9
ATOM      9  C   UNL     1       8.197  -4.844   3.459  0.00  0.00    -0.016 C 
ATOM     10  C   UNL     1       9.405  -5.397   3.056  0.00  0.00    +0.003 A 
ATOM     11  C   UNL     1       9.724  -6.479   2.203  0.00  0.00    +0.010 A 
ATOM     12  C   UNL     1      11.023  -6.803   1.985  0.00  0.00    +0.001 A 
ATOM     13  C   UNL     1      12.067  -6.091   2.584  0.00  0.00    +0.002 A 
ATOM     14  C   UNL     1      11.837  -5.044   3.412  0.00  0.00    +0.026 A 
ATOM     15  C   UNL     1      10.503  -4.644   3.690  0.00  0.00    +0.043 A 
ATOM     16  N   UNL     1      10.023  -3.679   4.444  0.00  0.00    -0.380 N 
ATOM     17  C   UNL     1       8.558  -3.697   4.376  0.00  0.00    +0.149 C 
ATOM     18  H   UNL     1      10.554  -3.052   4.960  0.00  0.00    +0.160 HD
ENDBRANCH   6   9
BRANCH   1  19
ATOM     19  C   UNL     1       2.681  -4.695   0.922  0.00  0.00    +0.162 C 
BRANCH  19  20
ATOM     20  N   UNL     1       1.590  -5.038   0.007  0.00  0.00    -0.178 NA
ATOM     21  H   UNL     1       1.720  -4.967  -0.951  0.00  0.00    +0.149 HD
BRANCH  20  22
ATOM     22  S   UNL     1       0.134  -5.547   0.610  0.00  0.00    +0.059 S 
ATOM     23  O   UNL     1       0.422  -6.544   1.581  0.00  0.00    -0.153 OA
ATOM     24  O   UNL     1      -0.706  -5.794  -0.510  0.00  0.00    -0.153 OA
BRANCH  22  29
ATOM     25  C   UNL     1      -2.293  -0.894   3.588  0.00  0.00    +0.044 C 
ATOM     26  C   UNL     1      -1.687  -2.056   2.844  0.00  0.00    -0.050 A 
ATOM     27  C   UNL     1      -1.853  -2.164   1.476  0.00  0.00    +0.005 A 
ATOM     28  C   UNL     1      -1.297  -3.230   0.794  0.00  0.00    +0.029 A 
ATOM     29  C   UNL     1      -0.574  -4.188   1.480  0.00  0.00    +0.105 A 
ATOM     30  C   UNL     1      -0.407  -4.080   2.847  0.00  0.00    +0.029 A 
ATOM     31  C   UNL     1      -0.959  -3.012   3.529  0.00  0.00    +0.005 A 
ENDBRANCH  22  29
ENDBRANCH  20  22
ENDBRANCH  19  20
BRANCH  19  32
ATOM     32  C   UNL     1       3.508  -3.555   0.325  0.00  0.00    +0.032 C 
BRANCH  32  33
ATOM     33  C   UNL     1       2.643  -2.296   0.225  0.00  0.00    -0.015 C 
ATOM     34  C   UNL     1       2.303  -1.798   1.631  0.00  0.00    +0.007 C 
ATOM     35  C   UNL     1       3.410  -1.209  -0.529  0.00  0.00    +0.007 C 
ENDBRANCH  32  33
ENDBRANCH  19  32
ENDBRANCH   1  19
TORSDOF 7
