REMARK  Name = ZINC49399284
REMARK  7 active torsions:
REMARK  status: ('A' for Active; 'I' for Inactive)
REMARK    1  A    between atoms: C_1  and  C_2
REMARK    2  A    between atoms: C_5  and  C_26
REMARK    3  A    between atoms: C_6  and  O_8
REMARK    4  A    between atoms: O_8  and  C_9
REMARK    5  A    between atoms: C_9  and  C_11
REMARK    6  A    between atoms: C_11  and  N_12
REMARK    7  A    between atoms: C_20  and  C_22
REMARK                            x       y       z     vdW  Elec       q    Type
REMARK                         _______ _______ _______ _____ _____    ______ ____
ROOT
ATOM      1  C   UNL     1       0.151  -2.060   3.507  0.00  0.00    +0.330 C 
ATOM      2  O   UNL     1       0.133  -0.853   3.473  0.00  0.00    -0.249 OA
ENDROOT
BRANCH   1   3
ATOM      3  O   UNL     1       0.052  -2.766   2.369  0.00  0.00    -0.424 OA
BRANCH   3   9
ATOM      4  C   UNL     1      -2.487  -0.628  -1.205  0.00  0.00    +0.044 C 
ATOM      5  C   UNL     1      -1.175  -1.024  -0.580  0.00  0.00    -0.047 A 
ATOM      6  C   UNL     1       0.015  -0.689  -1.206  0.00  0.00    +0.004 A 
ATOM      7  C   UNL     1       1.221  -1.046  -0.642  0.00  0.00    +0.017 A 
ATOM      8  C   UNL     1       1.246  -1.748   0.565  0.00  0.00    +0.079 A 
ATOM      9  C   UNL     1       0.040  -2.084   1.195  0.00  0.00    +0.144 A 
ATOM     10  C   UNL     1      -1.164  -1.713   0.617  0.00  0.00    +0.050 A 
BRANCH   8  11
ATOM     11  C   UNL     1       2.534  -2.133   1.173  0.00  0.00    +0.245 C 
ATOM     12  O   UNL     1       2.551  -2.744   2.224  0.00  0.00    -0.270 OA
ATOM     13  N   UNL     1       3.691  -1.809   0.564  0.00  0.00    -0.325 N 
ATOM     14  H   UNL     1       3.677  -1.321  -0.275  0.00  0.00    +0.145 HD
ATOM     15  H   UNL     1       4.538  -2.062   0.963  0.00  0.00    +0.145 HD
ENDBRANCH   8  11
ENDBRANCH   3   9
ENDBRANCH   1   3
BRANCH   1  16
ATOM     16  C   UNL     1       0.285  -2.775   4.827  0.00  0.00    +0.238 C 
BRANCH  16  17
ATOM     17  N   UNL     1       0.376  -1.790   5.908  0.00  0.00    -0.213 N 
ATOM     18  C   UNL     1       1.533  -1.264   6.359  0.00  0.00    +0.247 C 
ATOM     19  O   UNL     1       2.653  -1.505   5.962  0.00  0.00    -0.273 OA
ATOM     20  C   UNL     1       1.139  -0.309   7.462  0.00  0.00    +0.115 C 
ATOM     21  C   UNL     1       1.756  -0.744   8.787  0.00  0.00    +0.035 C 
ATOM     22  C   UNL     1       3.282  -0.667   8.690  0.00  0.00    +0.003 C 
ATOM     23  C   UNL     1       3.699   0.768   8.361  0.00  0.00    +0.000 C 
ATOM     24  C   UNL     1       3.090   1.184   7.020  0.00  0.00    +0.006 C 
ATOM     25  C   UNL     1       1.563   1.113   7.111  0.00  0.00    +0.018 C 
ATOM     26  C   UNL     1       0.954   1.509   5.765  0.00  0.00    +0.010 C 
ATOM     27  N   UNL     1      -0.324  -0.411   7.517  0.00  0.00    -0.285 N 
ATOM     28  C   UNL     1      -0.680  -1.298   6.568  0.00  0.00    +0.310 C 
ATOM     29  O   UNL     1      -1.830  -1.618   6.338  0.00  0.00    -0.252 OA
ATOM     30  H   UNL     1      -0.918   0.068   8.117  0.00  0.00    +0.151 HD
ENDBRANCH  16  17
ENDBRANCH   1  16
TORSDOF 5
