REMARK  Name = ZINC49333053
REMARK  7 active torsions:
REMARK  status: ('A' for Active; 'I' for Inactive)
REMARK    1  A    between atoms: C_1  and  C_2
REMARK    2  A    between atoms: C_5  and  C_18
REMARK    3  A    between atoms: C_6  and  N_8
REMARK    4  A    between atoms: N_8  and  C_9
REMARK    5  A    between atoms: N_8  and  C_10
REMARK    6  A    between atoms: C_10  and  C_11
REMARK    7  A    between atoms: C_11  and  C_12
REMARK                            x       y       z     vdW  Elec       q    Type
REMARK                         _______ _______ _______ _____ _____    ______ ____
ROOT
ATOM      1  C   UNL     1       1.328  -3.151   3.016  0.00  0.00    +0.114 C 
ENDROOT
BRANCH   1   2
ATOM      2  N   UNL     1       0.051  -2.796   2.390  0.00  0.00    -0.332 N 
ATOM      3  C   UNL     1      -1.209  -3.184   3.028  0.00  0.00    +0.129 C 
BRANCH   2   9
ATOM      4  C   UNL     1      -0.018   1.503   0.010  0.00  0.00    +0.044 C 
ATOM      5  C   UNL     1       0.002  -0.004   0.002  0.00  0.00    -0.049 A 
ATOM      6  C   UNL     1       0.006  -0.688  -1.200  0.00  0.00    +0.004 A 
ATOM      7  C   UNL     1       0.024  -2.071  -1.212  0.00  0.00    +0.005 A 
ATOM      8  C   UNL     1       0.039  -2.773  -0.023  0.00  0.00    -0.029 A 
ATOM      9  C   UNL     1       0.036  -2.089   1.186  0.00  0.00    +0.033 A 
ATOM     10  C   UNL     1       0.023  -0.700   1.194  0.00  0.00    +0.026 A 
ATOM     11  C   UNL     1       0.059  -4.280  -0.037  0.00  0.00    +0.045 C 
ENDBRANCH   2   9
ENDBRANCH   1   2
BRANCH   1  12
ATOM     12  C   UNL     1       1.759  -2.030   3.964  0.00  0.00    +0.115 C 
BRANCH  12  13
ATOM     13  C   UNL     1       3.073  -2.394   4.607  0.00  0.00    +0.222 C 
ATOM     14  O   UNL     1       3.610  -3.446   4.334  0.00  0.00    -0.275 OA
ATOM     15  N   UNL     1       3.649  -1.551   5.486  0.00  0.00    -0.240 N 
ATOM     16  C   UNL     1       4.824  -1.877   6.061  0.00  0.00    +0.303 C 
ATOM     17  O   UNL     1       5.363  -2.931   5.788  0.00  0.00    -0.253 OA
ATOM     18  N   UNL     1       5.401  -1.033   6.940  0.00  0.00    -0.313 N 
ATOM     19  H   UNL     1       3.219  -0.709   5.704  0.00  0.00    +0.159 HD
ATOM     20  H   UNL     1       4.971  -0.192   7.159  0.00  0.00    +0.146 HD
ATOM     21  H   UNL     1       6.246  -1.268   7.354  0.00  0.00    +0.146 HD
ENDBRANCH  12  13
ENDBRANCH   1  12
TORSDOF 4
