REMARK  Name = ZINC08781842
REMARK  3 active torsions:
REMARK  status: ('A' for Active; 'I' for Inactive)
REMARK    1  A    between atoms: C_1  and  N_55
REMARK    2  A    between atoms: C_3  and  C_26
REMARK    3  A    between atoms: C_30  and  N_32
REMARK                            x       y       z     vdW  Elec       q    Type
REMARK                         _______ _______ _______ _____ _____    ______ ____
ROOT
ATOM      1  C   UNL     1       1.483   1.403  -2.228  0.00  0.00    -0.094 C 
ATOM      2  C   UNL     1       2.818   0.593  -0.349  0.00  0.00    -0.068 C 
ATOM      3  C   UNL     1       2.959   0.959   1.149  0.00  0.00    +0.019 C 
ATOM      4  C   UNL     1       1.938   2.084   1.386  0.00  0.00    +0.076 C 
ATOM      5  C   UNL     1       1.167   2.184   0.063  0.00  0.00    +0.056 C 
ATOM      6  C   UNL     1       0.605   3.536  -0.205  0.00  0.00    -0.027 A 
ATOM      7  C   UNL     1       1.178   4.731  -0.582  0.00  0.00    +0.004 A 
ATOM      8  C   UNL     1       0.339   5.834  -0.700  0.00  0.00    +0.000 A 
ATOM      9  C   UNL     1      -1.019   5.732  -0.479  0.00  0.00    +0.002 A 
ATOM     10  C   UNL     1      -1.616   4.524  -0.158  0.00  0.00    +0.023 A 
ATOM     11  C   UNL     1      -0.784   3.411  -0.038  0.00  0.00    +0.036 A 
ATOM     12  N   UNL     1      -1.121   2.087   0.186  0.00  0.00    -0.286 N 
ATOM     13  C   UNL     1      -0.041   1.276   0.100  0.00  0.00    +0.212 C 
ATOM     14  O   UNL     1      -0.051   0.066   0.086  0.00  0.00    -0.277 OA
ATOM     15  C   UNL     1       0.979   1.787   2.529  0.00  0.00    +0.243 C 
ATOM     16  O   UNL     1       1.674   1.813   3.780  0.00  0.00    -0.490 OA
ATOM     17  C   UNL     1       2.277   2.985   4.102  0.00  0.00    +0.131 A 
ATOM     18  C   UNL     1       2.392   3.382   5.423  0.00  0.00    +0.046 A 
ATOM     19  C   UNL     1       2.998   4.584   5.731  0.00  0.00    +0.004 A 
ATOM     20  C   UNL     1       3.495   5.400   4.727  0.00  0.00    +0.001 A 
ATOM     21  C   UNL     1       3.399   5.018   3.406  0.00  0.00    +0.015 A 
ATOM     22  C   UNL     1       2.793   3.801   3.081  0.00  0.00    +0.060 A 
ATOM     23  C   UNL     1       2.691   3.360   1.682  0.00  0.00    +0.176 C 
ATOM     24  O   UNL     1       3.227   3.991   0.797  0.00  0.00    -0.291 OA
ATOM     25  H   UNL     1      -2.017   1.778   0.381  0.00  0.00    +0.155 HD
ATOM     26  N   UNL     1       2.148   1.754  -0.926  0.00  0.00    +0.391 N 
ATOM     27  H   UNL     1       2.829   2.503  -1.091  0.00  0.00    -0.080 HD
ENDROOT
BRANCH   3  28
ATOM     28  C   UNL     1       2.717  -0.257   2.007  0.00  0.00    -0.043 A 
ATOM     29  C   UNL     1       1.854  -1.247   1.575  0.00  0.00    +0.005 A 
ATOM     30  C   UNL     1       1.632  -2.362   2.361  0.00  0.00    +0.022 A 
ATOM     31  C   UNL     1       2.274  -2.487   3.580  0.00  0.00    +0.071 A 
ATOM     32  C   UNL     1       3.137  -1.496   4.012  0.00  0.00    +0.145 A 
ATOM     33  C   UNL     1       3.362  -0.384   3.222  0.00  0.00    +0.038 A 
ATOM     34 CL   UNL     1       1.996  -3.887   4.568  0.00  0.00    -0.081 Cl
BRANCH  32  35
ATOM     35  N   UNL     1       3.824  -1.629   5.316  0.00  0.00    +0.058 N 
ATOM     36  O   UNL     1       4.584  -0.757   5.696  0.00  0.00    -0.126 OA
ATOM     37  O   UNL     1       3.629  -2.612   6.009  0.00  0.00    -0.126 OA
ENDBRANCH  32  35
ENDBRANCH   3  28
TORSDOF 2
