REMARK  Name = ZINC66392443
REMARK  5 active torsions:
REMARK  status: ('A' for Active; 'I' for Inactive)
REMARK    1  A    between atoms: C_3  and  C_13
REMARK    2  A    between atoms: C_5  and  N_7
REMARK    3  A    between atoms: N_15  and  C_16
REMARK    4  A    between atoms: C_16  and  C_18
REMARK    5  A    between atoms: C_16  and  C_20
REMARK                            x       y       z     vdW  Elec       q    Type
REMARK                         _______ _______ _______ _____ _____    ______ ____
ROOT
ATOM      1  C   UNL     1       3.656   2.171   0.010  0.00  0.00    +0.245 C 
ATOM      2  O   UNL     1       4.718   1.579   0.011  0.00  0.00    -0.270 OA
ATOM      3  N   UNL     1       3.635   3.518   0.017  0.00  0.00    -0.292 N 
ATOM      4  H   UNL     1       2.788   3.990   0.017  0.00  0.00    +0.151 HD
ENDROOT
BRANCH   1   7
ATOM      5  C   UNL     1      -0.017   1.378  -0.006  0.00  0.00    +0.003 A 
ATOM      6  C   UNL     1       1.166   2.089   0.002  0.00  0.00    +0.013 A 
ATOM      7  C   UNL     1       2.387   1.412   0.002  0.00  0.00    +0.038 A 
ATOM      8  C   UNL     1       2.406   0.017  -0.005  0.00  0.00    +0.036 A 
ATOM      9  C   UNL     1       1.212  -0.687  -0.013  0.00  0.00    +0.039 A 
ATOM     10  C   UNL     1       0.002  -0.004  -0.014  0.00  0.00    +0.023 A 
BRANCH   9  11
ATOM     11  N   UNL     1       1.226  -2.087  -0.021  0.00  0.00    -0.254 N 
ATOM     12  C   UNL     1       0.041  -2.951   0.084  0.00  0.00    +0.134 C 
ATOM     13  C   UNL     1       0.618  -4.379   0.024  0.00  0.00    +0.125 C 
ATOM     14  N   UNL     1       2.067  -4.167  -0.108  0.00  0.00    -0.297 N 
ATOM     15  C   UNL     1       2.320  -2.852  -0.131  0.00  0.00    +0.307 C 
ATOM     16  O   UNL     1       3.441  -2.394  -0.237  0.00  0.00    -0.252 OA
ATOM     17  H   UNL     1       2.734  -4.869  -0.172  0.00  0.00    +0.150 HD
ENDBRANCH   9  11
ENDBRANCH   1   7
BRANCH   3  18
ATOM     18  C   UNL     1       4.893   4.270   0.025  0.00  0.00    +0.208 C 
BRANCH  18  19
ATOM     19  C   UNL     1       4.665   5.636  -0.569  0.00  0.00    +0.006 A 
ATOM     20  C   UNL     1       3.404   6.204  -0.535  0.00  0.00    +0.008 A 
ATOM     21  C   UNL     1       3.194   7.457  -1.079  0.00  0.00    +0.002 A 
ATOM     22  C   UNL     1       4.244   8.144  -1.659  0.00  0.00    +0.021 A 
ATOM     23  C   UNL     1       5.506   7.578  -1.695  0.00  0.00    +0.060 A 
ATOM     24  C   UNL     1       5.718   6.325  -1.143  0.00  0.00    +0.065 A 
ATOM     25 CL   UNL     1       7.302   5.617  -1.180  0.00  0.00    -0.082 Cl
ATOM     26 CL   UNL     1       6.825   8.440  -2.423  0.00  0.00    -0.082 Cl
ENDBRANCH  18  19
BRANCH  18  27
ATOM     27  C   UNL     1       5.371   4.411   1.410  0.00  0.00    +0.090 C 
ATOM     28  N   UNL     1       5.741   4.520   2.479  0.00  0.00    -0.194 NA
ENDBRANCH  18  27
ENDBRANCH   3  18
TORSDOF 5
