REMARK  Name = ZINC24844887
REMARK  6 active torsions:
REMARK  status: ('A' for Active; 'I' for Inactive)
REMARK    1  A    between atoms: C_1  and  C_2
REMARK    2  A    between atoms: C_18  and  S_19
REMARK    3  A    between atoms: S_19  and  C_20
REMARK    4  A    between atoms: C_20  and  C_21
REMARK    5  A    between atoms: C_23  and  O_24
REMARK    6  A    between atoms: C_33  and  C_35
REMARK                            x       y       z     vdW  Elec       q    Type
REMARK                         _______ _______ _______ _____ _____    ______ ____
ROOT
ATOM      1  S   UNL     1       1.300  -7.402   0.931  0.00  0.00    -0.083 S 
ENDROOT
BRANCH   1  19
ATOM      2  C   UNL     1       5.821 -10.161   0.539  0.00  0.00    +0.044 C 
ATOM      3  C   UNL     1       5.153  -9.209   1.498  0.00  0.00    -0.046 A 
ATOM      4  C   UNL     1       5.837  -8.108   1.996  0.00  0.00    +0.023 A 
ATOM      5  C   UNL     1       5.196  -7.255   2.873  0.00  0.00    +0.113 A 
ATOM      6  N   UNL     1       3.948  -7.475   3.240  0.00  0.00    -0.237 NA
ATOM      7  C   UNL     1       3.264  -8.513   2.787  0.00  0.00    +0.142 A 
ATOM      8  C   UNL     1       3.847  -9.415   1.906  0.00  0.00    +0.050 A 
ATOM      9  N   UNL     1       1.945  -8.706   3.203  0.00  0.00    -0.239 N 
ATOM     10  C   UNL     1       1.695  -9.354   4.364  0.00  0.00    +0.268 A 
ATOM     11  O   UNL     1       2.601  -9.775   5.059  0.00  0.00    -0.267 OA
ATOM     12  C   UNL     1       0.290  -9.531   4.756  0.00  0.00    +0.065 A 
ATOM     13  C   UNL     1      -0.070 -10.185   5.934  0.00  0.00    +0.015 A 
ATOM     14  C   UNL     1      -1.393 -10.322   6.251  0.00  0.00    +0.001 A 
ATOM     15  C   UNL     1      -2.380  -9.818   5.413  0.00  0.00    +0.002 A 
ATOM     16  C   UNL     1      -2.055  -9.173   4.253  0.00  0.00    +0.028 A 
ATOM     17  C   UNL     1      -0.711  -9.017   3.901  0.00  0.00    +0.079 A 
ATOM     18  N   UNL     1      -0.345  -8.380   2.764  0.00  0.00    -0.223 NA
ATOM     19  C   UNL     1       0.914  -8.239   2.433  0.00  0.00    +0.178 A 
ENDBRANCH   1  19
BRANCH   1  20
ATOM     20  C   UNL     1      -0.369  -7.020   0.346  0.00  0.00    +0.113 C 
BRANCH  20  21
ATOM     21  C   UNL     1      -0.286  -6.282  -0.965  0.00  0.00    -0.020 A 
ATOM     22  C   UNL     1      -0.279  -6.954  -2.145  0.00  0.00    +0.092 A 
ATOM     23  C   UNL     1      -0.200  -6.240  -3.358  0.00  0.00    +0.285 A 
ATOM     24  O   UNL     1      -0.132  -4.900  -3.385  0.00  0.00    -0.425 OA
ATOM     25  C   UNL     1      -0.135  -4.171  -2.248  0.00  0.00    +0.141 A 
ATOM     26  C   UNL     1      -0.211  -4.819  -1.001  0.00  0.00    +0.022 A 
ATOM     27  C   UNL     1      -0.214  -4.069   0.180  0.00  0.00    +0.013 A 
ATOM     28  C   UNL     1      -0.139  -2.708   0.119  0.00  0.00    +0.024 A 
ATOM     29  C   UNL     1      -0.069  -2.059  -1.114  0.00  0.00    +0.037 A 
ATOM     30  C   UNL     1      -0.064  -2.788  -2.294  0.00  0.00    +0.070 A 
ATOM     31  N   UNL     1       0.002  -0.666  -1.160  0.00  0.00    -0.286 N 
ATOM     32  C   UNL     1      -0.603   0.006  -2.159  0.00  0.00    +0.214 C 
ATOM     33  O   UNL     1      -1.139  -0.601  -3.061  0.00  0.00    -0.276 OA
ATOM     34  C   UNL     1      -0.614   1.513  -2.154  0.00  0.00    +0.109 C 
ATOM     35  H   UNL     1       0.552  -0.118  -0.382  0.00  0.00    +0.155 HD
BRANCH  23  36
ATOM     36  O   UNL     1      -0.195  -6.856  -4.409  0.00  0.00    -0.480 OA
ATOM     37  H   UNL     1      -0.134  -6.313  -5.364  0.00  0.00    +0.295 HD
ENDBRANCH  23  36
ENDBRANCH  20  21
ENDBRANCH   1  20
TORSDOF 4
