REMARK  Name = ZINC21253344
REMARK  10 active torsions:
REMARK  status: ('A' for Active; 'I' for Inactive)
REMARK    1  A    between atoms: C_1  and  C_2
REMARK    2  A    between atoms: C_2  and  C_3
REMARK    3  A    between atoms: C_2  and  C_4
REMARK    4  A    between atoms: C_4  and  O_5
REMARK    5  A    between atoms: O_5  and  C_6
REMARK    6  A    between atoms: C_9  and  C_12
REMARK    7  A    between atoms: C_17  and  C_27
REMARK    8  A    between atoms: C_30  and  O_34
REMARK    9  A    between atoms: C_31  and  O_33
REMARK   10  A    between atoms: O_34  and  C_35
REMARK                            x       y       z     vdW  Elec       q    Type
REMARK                         _______ _______ _______ _____ _____    ______ ____
ROOT
ATOM      1  C   UNL     1      -0.273   1.356  -0.885  0.00  0.00    +0.032 C 
ATOM      2  C   UNL     1      -1.729   0.900  -0.964  0.00  0.00    +0.059 C 
ATOM      3  C   UNL     1      -2.529   1.519   0.170  0.00  0.00    +0.017 C 
ATOM      4  C   UNL     1      -1.948   1.766   1.357  0.00  0.00    +0.036 C 
ATOM      5  C   UNL     1      -2.624   2.370   2.564  0.00  0.00    +0.136 C 
ATOM      6  N   UNL     1      -4.066   2.450   2.470  0.00  0.00    -0.331 N 
ATOM      7  C   UNL     1      -4.679   3.261   1.516  0.00  0.00    +0.049 A 
ATOM      8  C   UNL     1      -5.446   4.356   1.880  0.00  0.00    +0.025 A 
ATOM      9  C   UNL     1      -5.996   5.158   0.895  0.00  0.00    +0.002 A 
ATOM     10  C   UNL     1      -5.780   4.875  -0.441  0.00  0.00    +0.002 A 
ATOM     11  C   UNL     1      -5.029   3.771  -0.808  0.00  0.00    +0.025 A 
ATOM     12  C   UNL     1      -4.497   2.955   0.175  0.00  0.00    +0.052 A 
ATOM     13  N   UNL     1      -3.830   1.772  -0.122  0.00  0.00    -0.316 N 
ATOM     14  C   UNL     1      -0.576   1.468   1.559  0.00  0.00    +0.163 C 
ATOM     15  O   UNL     1      -0.079   1.679   2.648  0.00  0.00    -0.292 OA
ATOM     16  C   UNL     1       0.284   0.902   0.469  0.00  0.00    +0.088 C 
ATOM     17  H   UNL     1      -4.695   1.866   3.157  0.00  0.00    +0.147 HD
ATOM     18  H   UNL     1      -4.437   1.009  -0.631  0.00  0.00    +0.152 HD
ENDROOT
BRANCH   1  22
ATOM     19  C   UNL     1       1.980  -0.423  -4.050  0.00  0.00    +0.121 A 
ATOM     20  C   UNL     1       1.917   0.958  -3.933  0.00  0.00    +0.046 A 
ATOM     21  C   UNL     1       1.188   1.531  -2.909  0.00  0.00    +0.007 A 
ATOM     22  C   UNL     1       0.522   0.729  -2.001  0.00  0.00    -0.043 A 
ATOM     23  C   UNL     1       0.588  -0.648  -2.111  0.00  0.00    +0.007 A 
ATOM     24  C   UNL     1       1.311  -1.225  -3.137  0.00  0.00    +0.046 A 
BRANCH  19  25
ATOM     25  O   UNL     1       2.697  -0.989  -5.056  0.00  0.00    -0.492 OA
BRANCH  25  26
ATOM     26  C   UNL     1       2.718  -2.417  -5.115  0.00  0.00    +0.232 C 
BRANCH  26  28
ATOM     27  C   UNL     1       3.693  -4.391  -6.295  0.00  0.00    +0.010 C 
ATOM     28  C   UNL     1       3.568  -2.866  -6.305  0.00  0.00    +0.020 C 
ATOM     29  C   UNL     1       2.900  -2.417  -7.607  0.00  0.00    +0.010 C 
ENDBRANCH  26  28
ENDBRANCH  25  26
ENDBRANCH  19  25
ENDBRANCH   1  22
BRANCH   5  30
ATOM     30  C   UNL     1      -2.081   3.761   2.769  0.00  0.00    -0.019 A 
ATOM     31  C   UNL     1      -2.287   4.731   1.805  0.00  0.00    +0.009 A 
ATOM     32  C   UNL     1      -1.795   6.010   1.990  0.00  0.00    +0.050 A 
ATOM     33  C   UNL     1      -1.085   6.319   3.139  0.00  0.00    +0.161 A 
ATOM     34  C   UNL     1      -0.872   5.342   4.106  0.00  0.00    +0.159 A 
ATOM     35  C   UNL     1      -1.373   4.064   3.917  0.00  0.00    +0.055 A 
BRANCH  34  36
ATOM     36  O   UNL     1      -0.175   5.641   5.235  0.00  0.00    -0.503 OA
ATOM     37  H   UNL     1      -0.008   4.867   5.999  0.00  0.00    +0.292 HD
ENDBRANCH  34  36
BRANCH  33  38
ATOM     38  O   UNL     1      -0.596   7.575   3.320  0.00  0.00    -0.491 OA
ATOM     39  C   UNL     1      -0.852   8.527   2.285  0.00  0.00    +0.277 C 
ENDBRANCH  33  38
ENDBRANCH   5  30
TORSDOF 7
