REMARK  Name = ZINC21139370
REMARK  8 active torsions:
REMARK  status: ('A' for Active; 'I' for Inactive)
REMARK    1  A    between atoms: C_1  and  C_2
REMARK    2  A    between atoms: C_2  and  C_4
REMARK    3  A    between atoms: C_2  and  N_10
REMARK    4  A    between atoms: C_11  and  C_13
REMARK    5  A    between atoms: C_13  and  C_15
REMARK    6  A    between atoms: C_13  and  O_16
REMARK    7  A    between atoms: O_16  and  C_17
REMARK    8  A    between atoms: C_17  and  C_19
REMARK                            x       y       z     vdW  Elec       q    Type
REMARK                         _______ _______ _______ _____ _____    ______ ____
ROOT
ATOM      1  N   UNL     1      -1.191   1.867   0.018  0.00  0.00    -0.306 N 
ATOM      2  C   UNL     1      -0.014   1.209   0.009  0.00  0.00    +0.254 C 
ATOM      3  O   UNL     1       0.002  -0.004   0.002  0.00  0.00    -0.272 OA
ATOM      4  H   UNL     1      -1.206   2.966   0.024  0.00  0.00    +0.149 HD
ENDROOT
BRANCH   1   6
ATOM      5  C   UNL     1      -2.816   0.740   1.456  0.00  0.00    +0.033 C 
ATOM      6  C   UNL     1      -2.449   1.117   0.020  0.00  0.00    +0.100 C 
BRANCH   6   7
ATOM      7  C   UNL     1      -3.543   1.969  -0.571  0.00  0.00    -0.027 A 
ATOM      8  C   UNL     1      -3.610   3.316  -0.266  0.00  0.00    +0.005 A 
ATOM      9  C   UNL     1      -4.610   4.099  -0.811  0.00  0.00    +0.000 A 
ATOM     10  C   UNL     1      -5.549   3.533  -1.654  0.00  0.00    +0.000 A 
ATOM     11  C   UNL     1      -5.484   2.186  -1.955  0.00  0.00    +0.000 A 
ATOM     12  C   UNL     1      -4.481   1.404  -1.413  0.00  0.00    +0.005 A 
ENDBRANCH   6   7
ENDBRANCH   1   6
BRANCH   2  13
ATOM     13  C   UNL     1       1.280   1.980   0.001  0.00  0.00    +0.259 C 
ATOM     14  C   UNL     1       1.419   2.757   1.311  0.00  0.00    +0.062 C 
BRANCH  13  15
ATOM     15  O   UNL     1       2.393   1.056  -0.134  0.00  0.00    -0.449 OA
BRANCH  15  16
ATOM     16  C   UNL     1       3.495   1.514  -0.760  0.00  0.00    +0.341 C 
ATOM     17  O   UNL     1       3.525   2.652  -1.182  0.00  0.00    -0.245 OA
BRANCH  16  18
ATOM     18  C   UNL     1       4.665   0.630  -0.934  0.00  0.00    +0.072 A 
ATOM     19  C   UNL     1       4.636  -0.678  -0.446  0.00  0.00    +0.016 A 
ATOM     20  C   UNL     1       5.731  -1.499  -0.616  0.00  0.00    +0.001 A 
ATOM     21  C   UNL     1       6.861  -1.026  -1.260  0.00  0.00    +0.001 A 
ATOM     22  C   UNL     1       6.900   0.269  -1.742  0.00  0.00    +0.015 A 
ATOM     23  C   UNL     1       5.809   1.101  -1.583  0.00  0.00    +0.027 A 
ATOM     24  I   UNL     1       5.870   3.064  -2.312  0.00  0.00    -0.043 I 
ENDBRANCH  16  18
ENDBRANCH  15  16
ENDBRANCH  13  15
ENDBRANCH   2  13
TORSDOF 6
