REMARK  Name = ZINC39609122
REMARK  8 active torsions:
REMARK  status: ('A' for Active; 'I' for Inactive)
REMARK    1  A    between atoms: C_1  and  C_2
REMARK    2  A    between atoms: C_3  and  C_8
REMARK    3  A    between atoms: C_4  and  C_7
REMARK    4  A    between atoms: C_12  and  C_21
REMARK    5  A    between atoms: N_23  and  C_24
REMARK    6  A    between atoms: C_29  and  O_31
REMARK    7  A    between atoms: O_31  and  C_32
REMARK    8  A    between atoms: C_32  and  C_33
REMARK                            x       y       z     vdW  Elec       q    Type
REMARK                         _______ _______ _______ _____ _____    ______ ____
ROOT
ATOM      1  C   UNL     1       0.023  -0.419  -2.716  0.00  0.00    +0.252 C 
ATOM      2  O   UNL     1       1.056  -0.175  -3.309  0.00  0.00    -0.270 OA
ATOM      3  N   UNL     1      -1.165  -0.216  -3.321  0.00  0.00    -0.296 N 
ATOM      4  C   UNL     1      -2.518  -0.446  -2.764  0.00  0.00    +0.121 C 
ATOM      5  C   UNL     1      -3.361   0.741  -3.283  0.00  0.00    +0.100 C 
ATOM      6  C   UNL     1      -2.630   1.216  -4.550  0.00  0.00    -0.004 C 
ATOM      7  C   UNL     1      -1.411   0.293  -4.692  0.00  0.00    +0.115 C 
ATOM      8  C   UNL     1      -2.173   2.662  -4.386  0.00  0.00    -0.010 C 
ATOM      9  C   UNL     1      -1.500   3.130  -5.679  0.00  0.00    -0.082 C 
ATOM     10  N   UNL     1      -2.448   3.020  -6.794  0.00  0.00    +0.379 N 
ATOM     11  C   UNL     1      -2.812   1.613  -7.005  0.00  0.00    -0.082 C 
ATOM     12  C   UNL     1      -3.540   1.081  -5.767  0.00  0.00    -0.010 C 
ATOM     13  H   UNL     1      -3.278   3.552  -6.581  0.00  0.00    -0.086 HD
ATOM     14  H   UNL     1      -2.023   3.385  -7.633  0.00  0.00    -0.086 HD
ENDROOT
BRANCH   1  17
ATOM     15  C   UNL     1       0.033   1.362  -0.013  0.00  0.00    +0.070 C 
ATOM     16  C   UNL     1       0.073  -0.141  -0.107  0.00  0.00    +0.093 A 
ATOM     17  C   UNL     1       0.069  -0.935  -1.337  0.00  0.00    +0.101 A 
ATOM     18  C   UNL     1       0.114  -2.247  -0.960  0.00  0.00    +0.147 A 
ATOM     19  O   UNL     1       0.145  -2.293   0.374  0.00  0.00    -0.359 OA
ATOM     20  N   UNL     1       0.124  -0.977   0.888  0.00  0.00    -0.083 NA
ATOM     21  C   UNL     1       0.128  -3.435  -1.887  0.00  0.00    +0.090 C 
ENDBRANCH   1  17
BRANCH   5  22
ATOM     22  C   UNL     1      -4.757   0.286  -3.620  0.00  0.00    +0.218 C 
ATOM     23  O   UNL     1      -4.947  -0.843  -4.021  0.00  0.00    -0.275 OA
ATOM     24  N   UNL     1      -5.796   1.133  -3.474  0.00  0.00    -0.310 N 
ATOM     25  H   UNL     1      -5.644   2.035  -3.153  0.00  0.00    +0.149 HD
BRANCH  24  26
ATOM     26  C   UNL     1      -7.153   0.690  -3.801  0.00  0.00    +0.102 C 
ATOM     27  C   UNL     1      -7.436   0.918  -5.296  0.00  0.00    +0.025 C 
ATOM     28  C   UNL     1      -8.630   1.892  -5.375  0.00  0.00    +0.004 C 
ATOM     29  C   UNL     1      -9.358   1.711  -4.020  0.00  0.00    +0.033 C 
ATOM     30  C   UNL     1      -8.185   1.532  -3.023  0.00  0.00    +0.139 C 
BRANCH  30  31
ATOM     31  O   UNL     1      -8.623   0.834  -1.855  0.00  0.00    -0.370 OA
BRANCH  31  32
ATOM     32  C   UNL     1      -8.996   1.688  -0.773  0.00  0.00    +0.195 C 
BRANCH  32  33
ATOM     33  C   UNL     1      -9.438   0.850   0.399  0.00  0.00    -0.022 A 
ATOM     34  C   UNL     1     -10.765   0.484   0.527  0.00  0.00    +0.006 A 
ATOM     35  C   UNL     1     -11.170  -0.285   1.601  0.00  0.00    +0.000 A 
ATOM     36  C   UNL     1     -10.248  -0.689   2.549  0.00  0.00    +0.000 A 
ATOM     37  C   UNL     1      -8.921  -0.324   2.421  0.00  0.00    +0.000 A 
ATOM     38  C   UNL     1      -8.515   0.441   1.344  0.00  0.00    +0.006 A 
ENDBRANCH  32  33
ENDBRANCH  31  32
ENDBRANCH  30  31
ENDBRANCH  24  26
ENDBRANCH   5  22
TORSDOF 6
