REMARK  Name = ZINC36758210
REMARK  9 active torsions:
REMARK  status: ('A' for Active; 'I' for Inactive)
REMARK    1  A    between atoms: C_1  and  C_2
REMARK    2  A    between atoms: C_2  and  C_4
REMARK    3  A    between atoms: C_2  and  N_10
REMARK    4  A    between atoms: C_11  and  C_13
REMARK    5  A    between atoms: C_17  and  S_19
REMARK    6  A    between atoms: S_19  and  N_22
REMARK    7  A    between atoms: N_22  and  C_23
REMARK    8  A    between atoms: N_22  and  C_26
REMARK    9  A    between atoms: C_23  and  C_24
REMARK                            x       y       z     vdW  Elec       q    Type
REMARK                         _______ _______ _______ _____ _____    ______ ____
ROOT
ATOM      1  C   UNL     1       0.766  -1.123   3.553  0.00  0.00    +0.039 A 
ATOM      2  C   UNL     1       2.126  -1.432   3.481  0.00  0.00    +0.013 A 
ATOM      3  C   UNL     1       2.787  -1.888   4.602  0.00  0.00    +0.003 A 
ATOM      4  C   UNL     1       2.106  -2.040   5.797  0.00  0.00    +0.029 A 
ATOM      5  C   UNL     1       0.758  -1.736   5.875  0.00  0.00    +0.109 A 
ATOM      6  C   UNL     1       0.086  -1.274   4.763  0.00  0.00    +0.041 A 
ENDROOT
BRANCH   1   8
ATOM      7  N   UNL     1       0.711  -0.489   1.189  0.00  0.00    -0.306 N 
ATOM      8  C   UNL     1       0.051  -0.633   2.355  0.00  0.00    +0.244 C 
ATOM      9  O   UNL     1      -1.131  -0.361   2.423  0.00  0.00    -0.270 OA
ATOM     10  H   UNL     1       1.654  -0.707   1.135  0.00  0.00    +0.149 HD
BRANCH   7  12
ATOM     11  C   UNL     1      -0.019   1.526   0.010  0.00  0.00    +0.030 C 
ATOM     12  C   UNL     1       0.002  -0.004   0.002  0.00  0.00    +0.099 C 
BRANCH  12  13
ATOM     13  C   UNL     1       0.718  -0.497  -1.257  0.00  0.00    +0.138 C 
ATOM     14  C   UNL     1      -0.066  -0.071  -2.523  0.00  0.00    +0.035 C 
ATOM     15  C   UNL     1       1.068  -0.066  -3.584  0.00  0.00    +0.031 C 
ATOM     16  C   UNL     1       2.287   0.399  -2.759  0.00  0.00    +0.160 C 
ATOM     17  O   UNL     1       2.003   0.133  -1.379  0.00  0.00    -0.375 OA
ENDBRANCH  12  13
ENDBRANCH   7  12
ENDBRANCH   1   8
BRANCH   5  18
ATOM     18  S   UNL     1      -0.100  -1.934   7.402  0.00  0.00    +0.075 S 
ATOM     19  O   UNL     1      -1.473  -2.102   7.076  0.00  0.00    -0.150 OA
ATOM     20  O   UNL     1       0.628  -2.895   8.155  0.00  0.00    -0.150 OA
BRANCH  18  21
ATOM     21  N   UNL     1       0.021  -0.500   8.221  0.00  0.00    -0.198 N 
BRANCH  21  22
ATOM     22  C   UNL     1       1.092  -0.280   9.090  0.00  0.00    +0.070 A 
ATOM     23  C   UNL     1       0.953  -0.542  10.447  0.00  0.00    +0.026 A 
ATOM     24  C   UNL     1       2.014  -0.325  11.304  0.00  0.00    +0.002 A 
ATOM     25  C   UNL     1       3.215   0.155  10.813  0.00  0.00    +0.002 A 
ATOM     26  C   UNL     1       3.358   0.418   9.463  0.00  0.00    +0.022 A 
ATOM     27  C   UNL     1       2.302   0.196   8.599  0.00  0.00    +0.064 A 
ATOM     28 CL   UNL     1       2.484   0.520   6.903  0.00  0.00    -0.082 Cl
ENDBRANCH  21  22
BRANCH  21  29
ATOM     29  C   UNL     1      -0.996   0.538   8.034  0.00  0.00    +0.158 C 
BRANCH  29  30
ATOM     30  C   UNL     1      -2.038   0.421   9.116  0.00  0.00    -0.014 C 
ATOM     31  C   UNL     1      -2.319   1.456   9.869  0.00  0.00    +0.005 C 
ENDBRANCH  29  30
ENDBRANCH  21  29
ENDBRANCH  18  21
ENDBRANCH   5  18
TORSDOF 8
