REMARK  Name = ZINC05072481
REMARK  9 active torsions:
REMARK  status: ('A' for Active; 'I' for Inactive)
REMARK    1  A    between atoms: C_1  and  C_2
REMARK    2  A    between atoms: C_3  and  C_27
REMARK    3  A    between atoms: C_4  and  C_17
REMARK    4  A    between atoms: C_19  and  O_25
REMARK    5  A    between atoms: C_22  and  O_23
REMARK    6  A    between atoms: O_23  and  C_24
REMARK    7  A    between atoms: O_25  and  C_26
REMARK    8  A    between atoms: C_27  and  O_29
REMARK    9  A    between atoms: O_29  and  C_30
REMARK                            x       y       z     vdW  Elec       q    Type
REMARK                         _______ _______ _______ _____ _____    ______ ____
ROOT
ATOM      1  C   UNL     1      -3.842   6.287   0.827  0.00  0.00    +0.061 C 
ATOM      2  C   UNL     1      -2.517   5.697   0.420  0.00  0.00    +0.017 C 
ATOM      3  C   UNL     1      -1.419   6.471   0.421  0.00  0.00    +0.065 C 
ATOM      4  C   UNL     1      -0.076   5.936   0.016  0.00  0.00    +0.100 C 
ATOM      5  C   UNL     1      -0.074   4.433   0.020  0.00  0.00    +0.067 A 
ATOM      6  C   UNL     1      -1.240   3.728   0.032  0.00  0.00    +0.111 A 
ATOM      7  N   UNL     1      -1.201   2.355   0.021  0.00  0.00    -0.323 N 
ATOM      8  H   UNL     1      -2.029   1.849   0.022  0.00  0.00    +0.169 HD
ATOM      9  C   UNL     1      -0.021   1.708   0.011  0.00  0.00    +0.159 A 
ATOM     10  S   UNL     1       0.002  -0.004   0.002  0.00  0.00    -0.013 S 
ATOM     11  N   UNL     1       1.141   2.386   0.004  0.00  0.00    -0.302 N 
ATOM     12  H   UNL     1       1.981   1.902  -0.004  0.00  0.00    +0.171 HD
ATOM     13  C   UNL     1       1.147   3.734   0.008  0.00  0.00    +0.258 A 
ATOM     14  O   UNL     1       2.203   4.343   0.002  0.00  0.00    -0.267 OA
ATOM     15  N   UNL     1      -2.449   4.381   0.054  0.00  0.00    -0.304 N 
ATOM     16  H   UNL     1      -3.258   3.906  -0.192  0.00  0.00    +0.153 HD
ENDROOT
BRANCH   4  17
ATOM     17  C   UNL     1       0.255   6.428  -1.369  0.00  0.00    +0.010 A 
ATOM     18  C   UNL     1      -0.554   6.086  -2.436  0.00  0.00    +0.053 A 
ATOM     19  C   UNL     1      -0.249   6.538  -3.711  0.00  0.00    +0.121 A 
ATOM     20  C   UNL     1       0.868   7.335  -3.915  0.00  0.00    +0.049 A 
ATOM     21  C   UNL     1       1.676   7.678  -2.849  0.00  0.00    +0.049 A 
ATOM     22  C   UNL     1       1.369   7.229  -1.573  0.00  0.00    +0.124 A 
BRANCH  22  23
ATOM     23  O   UNL     1       2.162   7.570  -0.523  0.00  0.00    -0.495 OA
ATOM     24  C   UNL     1       3.293   8.397  -0.806  0.00  0.00    +0.277 C 
ENDBRANCH  22  23
BRANCH  19  25
ATOM     25  O   UNL     1      -1.046   6.201  -4.760  0.00  0.00    -0.495 OA
ATOM     26  C   UNL     1      -0.672   6.703  -6.045  0.00  0.00    +0.277 C 
ENDBRANCH  19  25
ENDBRANCH   4  17
BRANCH   3  27
ATOM     27  C   UNL     1      -1.531   7.825   0.814  0.00  0.00    +0.337 C 
ATOM     28  O   UNL     1      -2.612   8.274   1.146  0.00  0.00    -0.245 OA
BRANCH  27  29
ATOM     29  O   UNL     1      -0.439   8.618   0.822  0.00  0.00    -0.465 OA
ATOM     30  C   UNL     1      -0.625   9.974   1.230  0.00  0.00    +0.280 C 
ENDBRANCH  27  29
ENDBRANCH   3  27
TORSDOF 5
