REMARK  Name = ZINC41586324
REMARK  13 active torsions:
REMARK  status: ('A' for Active; 'I' for Inactive)
REMARK    1  A    between atoms: C_1  and  C_2
REMARK    2  A    between atoms: C_2  and  O_3
REMARK    3  A    between atoms: O_3  and  C_4
REMARK    4  A    between atoms: C_4  and  C_6
REMARK    5  A    between atoms: N_9  and  C_12
REMARK    6  A    between atoms: C_12  and  C_13
REMARK    7  A    between atoms: C_14  and  O_36
REMARK    8  A    between atoms: C_20  and  C_35
REMARK    9  A    between atoms: C_21  and  O_24
REMARK   10  A    between atoms: O_24  and  C_25
REMARK   11  A    between atoms: C_28  and  C_31
REMARK   12  A    between atoms: C_31  and  O_33
REMARK   13  A    between atoms: O_33  and  C_34
REMARK                            x       y       z     vdW  Elec       q    Type
REMARK                         _______ _______ _______ _____ _____    ______ ____
ROOT
ATOM      1  C   UNL     1      -5.971  -6.311   1.578  0.00  0.00    +0.020 A 
ATOM      2  C   UNL     1      -5.867  -7.126   0.463  0.00  0.00    +0.122 A 
ATOM      3  C   UNL     1      -5.637  -8.493   0.603  0.00  0.00    +0.046 A 
ATOM      4  C   UNL     1      -5.511  -9.048   1.845  0.00  0.00    +0.019 A 
ATOM      5  C   UNL     1      -5.612  -8.241   2.978  0.00  0.00    +0.068 A 
ATOM      6  C   UNL     1      -5.839  -6.859   2.846  0.00  0.00    +0.144 A 
ATOM      7  O   UNL     1      -5.930  -6.087   3.948  0.00  0.00    -0.456 OA
ATOM      8  C   UNL     1      -5.808  -6.585   5.185  0.00  0.00    +0.148 A 
ATOM      9  C   UNL     1      -5.583  -7.892   5.426  0.00  0.00    +0.213 A 
ATOM     10  C   UNL     1      -5.482  -8.801   4.334  0.00  0.00    +0.235 A 
ATOM     11  O   UNL     1      -5.281  -9.990   4.513  0.00  0.00    -0.283 OA
ATOM     12  C   UNL     1      -5.925  -5.645   6.357  0.00  0.00    +0.090 C 
ENDROOT
BRANCH   2  13
ATOM     13  O   UNL     1      -5.991  -6.588  -0.777  0.00  0.00    -0.506 OA
ATOM     14  H   UNL     1      -5.156  -6.288  -1.161  0.00  0.00    +0.292 HD
ENDBRANCH   2  13
BRANCH   1  15
ATOM     15  C   UNL     1      -6.221  -4.834   1.414  0.00  0.00    -0.036 C 
BRANCH  15  19
ATOM     16  C   UNL     1      -3.046  -2.359   0.016  0.00  0.00    +0.094 C 
ATOM     17  C   UNL     1      -3.839  -1.938   1.257  0.00  0.00    -0.004 C 
ATOM     18  C   UNL     1      -5.176  -2.680   1.277  0.00  0.00    -0.078 C 
ATOM     19  N   UNL     1      -4.936  -4.128   1.316  0.00  0.00    +0.383 N 
ATOM     20  C   UNL     1      -4.239  -4.550   0.095  0.00  0.00    -0.078 C 
ATOM     21  C   UNL     1      -2.866  -3.879   0.029  0.00  0.00    -0.004 C 
ATOM     22  H   UNL     1      -4.369  -4.352   2.120  0.00  0.00    -0.081 HD
BRANCH  16  23
ATOM     23  C   UNL     1      -1.696  -1.691   0.030  0.00  0.00    +0.310 C 
ATOM     24  O   UNL     1      -0.690  -2.361   0.049  0.00  0.00    -0.251 OA
BRANCH  23  25
ATOM     25  O   UNL     1      -1.609  -0.351   0.022  0.00  0.00    -0.465 OA
BRANCH  25  27
ATOM     26  C   UNL     1      -0.399   1.741   0.024  0.00  0.00    +0.048 C 
ATOM     27  C   UNL     1      -0.297   0.214   0.036  0.00  0.00    +0.229 C 
ENDBRANCH  25  27
ENDBRANCH  23  25
ENDBRANCH  16  23
ENDBRANCH  15  19
ENDBRANCH   1  15
BRANCH   9  28
ATOM     28  O   UNL     1      -5.466  -8.343   6.705  0.00  0.00    -0.449 OA
BRANCH  28  29
ATOM     29  C   UNL     1      -4.258  -8.810   7.108  0.00  0.00    +0.129 A 
ATOM     30  C   UNL     1      -3.158  -8.707   6.263  0.00  0.00    +0.047 A 
ATOM     31  C   UNL     1      -1.930  -9.180   6.668  0.00  0.00    +0.018 A 
ATOM     32  C   UNL     1      -1.790  -9.765   7.930  0.00  0.00    +0.059 A 
ATOM     33  C   UNL     1      -2.898  -9.867   8.776  0.00  0.00    +0.018 A 
ATOM     34  C   UNL     1      -4.122  -9.386   8.366  0.00  0.00    +0.047 A 
BRANCH  32  35
ATOM     35  C   UNL     1      -0.477 -10.274   8.367  0.00  0.00    +0.339 C 
ATOM     36  O   UNL     1       0.485 -10.185   7.630  0.00  0.00    -0.245 OA
BRANCH  35  37
ATOM     37  O   UNL     1      -0.344 -10.837   9.584  0.00  0.00    -0.464 OA
ATOM     38  C   UNL     1       0.957 -11.308   9.942  0.00  0.00    +0.280 C 
ENDBRANCH  35  37
ENDBRANCH  32  35
ENDBRANCH  28  29
ENDBRANCH   9  28
TORSDOF 10
