REMARK  Name = ZINC02312599
REMARK  7 active torsions:
REMARK  status: ('A' for Active; 'I' for Inactive)
REMARK    1  A    between atoms: C_1  and  C_2
REMARK    2  A    between atoms: C_5  and  C_7
REMARK    3  A    between atoms: C_9  and  C_31
REMARK    4  A    between atoms: C_10  and  S_19
REMARK    5  A    between atoms: S_19  and  C_20
REMARK    6  A    between atoms: C_20  and  C_21
REMARK    7  A    between atoms: N_23  and  C_24
REMARK                            x       y       z     vdW  Elec       q    Type
REMARK                         _______ _______ _______ _____ _____    ______ ____
ROOT
ATOM      1  C   UNL     1       1.685  -3.266  -0.023  0.00  0.00    +0.133 C 
ATOM      2  C   UNL     1       2.498  -3.225   1.259  0.00  0.00    +0.076 C 
ATOM      3  C   UNL     1       3.875  -3.162   1.134  0.00  0.00    +0.112 C 
ATOM      4  N   UNL     1       4.484  -3.138  -0.053  0.00  0.00    -0.244 NA
ATOM      5  C   UNL     1       3.885  -3.169  -1.218  0.00  0.00    +0.050 C 
ATOM      6  C   UNL     1       2.486  -3.231  -1.311  0.00  0.00    +0.032 C 
ATOM      7  C   UNL     1       1.854  -3.261  -2.495  0.00  0.00    +0.162 C 
ATOM      8  C   UNL     1       2.619  -3.229  -3.792  0.00  0.00    +0.080 C 
ATOM      9  C   UNL     1       3.927  -2.460  -3.588  0.00  0.00    +0.014 C 
ATOM     10  C   UNL     1       4.721  -3.136  -2.476  0.00  0.00    +0.056 C 
ATOM     11  O   UNL     1       0.508  -3.321  -2.524  0.00  0.00    -0.292 OA
ENDROOT
BRANCH   1  16
ATOM     12  C   UNL     1      -0.017   1.482  -0.026  0.00  0.00    +0.086 C 
ATOM     13  C   UNL     1       0.004  -0.025  -0.024  0.00  0.00    +0.102 A 
ATOM     14  C   UNL     1      -1.077  -0.826  -0.017  0.00  0.00    +0.044 A 
ATOM     15  C   UNL     1      -0.600  -2.157  -0.017  0.00  0.00    +0.046 A 
ATOM     16  C   UNL     1       0.744  -2.090  -0.022  0.00  0.00    +0.118 A 
ATOM     17  O   UNL     1       1.103  -0.796  -0.032  0.00  0.00    -0.464 OA
ENDBRANCH   1  16
BRANCH   2  18
ATOM     18  C   UNL     1       1.865  -3.249   2.543  0.00  0.00    +0.099 C 
ATOM     19  N   UNL     1       1.364  -3.269   3.562  0.00  0.00    -0.191 NA
ENDBRANCH   2  18
BRANCH   3  20
ATOM     20  S   UNL     1       4.859  -3.111   2.595  0.00  0.00    -0.096 S 
BRANCH  20  21
ATOM     21  C   UNL     1       6.562  -3.034   1.975  0.00  0.00    +0.172 C 
BRANCH  21  22
ATOM     22  C   UNL     1       7.519  -2.986   3.138  0.00  0.00    +0.227 C 
ATOM     23  O   UNL     1       7.093  -3.001   4.274  0.00  0.00    -0.275 OA
ATOM     24  N   UNL     1       8.847  -2.925   2.917  0.00  0.00    -0.285 N 
ATOM     25  H   UNL     1       9.190  -2.981   2.011  0.00  0.00    +0.155 HD
BRANCH  24  26
ATOM     26  C   UNL     1       9.730  -2.783   3.993  0.00  0.00    +0.033 A 
ATOM     27  C   UNL     1      10.886  -2.027   3.849  0.00  0.00    +0.024 A 
ATOM     28  C   UNL     1      11.755  -1.887   4.912  0.00  0.00    +0.017 A 
ATOM     29  C   UNL     1      11.476  -2.500   6.121  0.00  0.00    +0.018 A 
ATOM     30  C   UNL     1      10.325  -3.253   6.268  0.00  0.00    +0.017 A 
ATOM     31  C   UNL     1       9.449  -3.392   5.209  0.00  0.00    +0.024 A 
ATOM     32 BR   UNL     1      12.669  -2.307   7.575  0.00  0.00    -0.050 Br
ENDBRANCH  24  26
ENDBRANCH  21  22
ENDBRANCH  20  21
ENDBRANCH   3  20
TORSDOF 6
