REMARK  Name = ZINC10002330
REMARK  14 active torsions:
REMARK  status: ('A' for Active; 'I' for Inactive)
REMARK    1  A    between atoms: C_1  and  C_2
REMARK    2  A    between atoms: C_5  and  C_8
REMARK    3  A    between atoms: C_8  and  O_9
REMARK    4  A    between atoms: O_9  and  C_10
REMARK    5  A    between atoms: C_13  and  C_18
REMARK    6  A    between atoms: C_15  and  O_16
REMARK    7  A    between atoms: O_16  and  C_17
REMARK    8  A    between atoms: N_19  and  N_20
REMARK    9  A    between atoms: C_21  and  C_23
REMARK   10  A    between atoms: C_23  and  C_25
REMARK   11  A    between atoms: C_23  and  N_28
REMARK   12  A    between atoms: C_25  and  C_26
REMARK   13  A    between atoms: C_25  and  C_27
REMARK   14  A    between atoms: C_29  and  C_31
REMARK                            x       y       z     vdW  Elec       q    Type
REMARK                         _______ _______ _______ _____ _____    ______ ____
ROOT
ATOM      1  N   UNL     1      -3.022   3.756   0.587  0.00  0.00    -0.205 N 
ATOM      2  C   UNL     1      -2.843   5.059   0.293  0.00  0.00    +0.253 C 
ATOM      3  O   UNL     1      -1.721   5.510   0.194  0.00  0.00    -0.272 OA
ATOM      4  H   UNL     1      -3.916   3.411   0.736  0.00  0.00    +0.177 HD
ENDROOT
BRANCH   1   6
ATOM      5  C   UNL     1      -2.088   1.645   0.961  0.00  0.00    +0.138 C 
ATOM      6  N   UNL     1      -1.916   2.900   0.678  0.00  0.00    -0.188 NA
BRANCH   5  10
ATOM      7  C   UNL     1       1.267  -0.948   1.224  0.00  0.00    +0.162 A 
ATOM      8  C   UNL     1       1.450   0.394   0.921  0.00  0.00    +0.050 A 
ATOM      9  C   UNL     1       0.363   1.239   0.836  0.00  0.00    +0.013 A 
ATOM     10  C   UNL     1      -0.925   0.745   1.056  0.00  0.00    -0.002 A 
ATOM     11  C   UNL     1      -1.109  -0.606   1.361  0.00  0.00    +0.059 A 
ATOM     12  C   UNL     1      -0.015  -1.447   1.444  0.00  0.00    +0.162 A 
BRANCH  12  13
ATOM     13  O   UNL     1      -0.190  -2.763   1.741  0.00  0.00    -0.491 OA
ATOM     14  C   UNL     1      -1.531  -3.207   1.955  0.00  0.00    +0.277 C 
ENDBRANCH  12  13
BRANCH   7  15
ATOM     15  O   UNL     1       2.341  -1.776   1.305  0.00  0.00    -0.484 OA
BRANCH  15  16
ATOM     16  C   UNL     1       3.626  -1.198   1.068  0.00  0.00    +0.264 C 
BRANCH  16  21
ATOM     17  C   UNL     1       7.695  -5.270   1.576  0.00  0.00    +0.044 C 
ATOM     18  C   UNL     1       6.634  -4.208   1.444  0.00  0.00    -0.050 A 
ATOM     19  C   UNL     1       6.044  -3.970   0.217  0.00  0.00    +0.004 A 
ATOM     20  C   UNL     1       5.070  -2.996   0.095  0.00  0.00    +0.007 A 
ATOM     21  C   UNL     1       4.687  -2.260   1.201  0.00  0.00    -0.010 A 
ATOM     22  C   UNL     1       5.281  -2.495   2.427  0.00  0.00    +0.007 A 
ATOM     23  C   UNL     1       6.251  -3.472   2.549  0.00  0.00    +0.004 A 
ENDBRANCH  16  21
ENDBRANCH  15  16
ENDBRANCH   7  15
ENDBRANCH   5  10
ENDBRANCH   1   6
BRANCH   2  24
ATOM     24  C   UNL     1      -4.036   5.956   0.086  0.00  0.00    +0.163 C 
BRANCH  24  25
ATOM     25  N   UNL     1      -3.623   7.356   0.214  0.00  0.00    -0.300 N 
ATOM     26  C   UNL     1      -4.523   8.294   0.570  0.00  0.00    +0.245 C 
ATOM     27  O   UNL     1      -5.678   7.978   0.785  0.00  0.00    -0.270 OA
ATOM     28  H   UNL     1      -2.703   7.607   0.042  0.00  0.00    +0.150 HD
BRANCH  26  29
ATOM     29  C   UNL     1      -4.107   9.704   0.698  0.00  0.00    +0.040 A 
ATOM     30  C   UNL     1      -2.780  10.068   0.457  0.00  0.00    +0.017 A 
ATOM     31  C   UNL     1      -2.395  11.385   0.573  0.00  0.00    +0.050 A 
ATOM     32  C   UNL     1      -3.320  12.354   0.940  0.00  0.00    +0.166 A 
ATOM     33  C   UNL     1      -4.646  11.997   1.187  0.00  0.00    +0.167 A 
ATOM     34  C   UNL     1      -5.039  10.678   1.067  0.00  0.00    +0.062 A 
ATOM     35  O   UNL     1      -5.343  13.120   1.527  0.00  0.00    -0.453 OA
ATOM     36  C   UNL     1      -4.347  14.097   1.883  0.00  0.00    +0.466 C 
ATOM     37  O   UNL     1      -3.190  13.699   1.124  0.00  0.00    -0.453 OA
ENDBRANCH  26  29
ENDBRANCH  24  25
BRANCH  24  38
ATOM     38  C   UNL     1      -4.615   5.720  -1.310  0.00  0.00    +0.012 C 
ATOM     39  C   UNL     1      -5.885   6.556  -1.484  0.00  0.00    +0.009 C 
ATOM     40  C   UNL     1      -3.586   6.131  -2.365  0.00  0.00    +0.009 C 
ENDBRANCH  24  38
ENDBRANCH   2  24
TORSDOF 10
