REMARK  Name = ZINC56051250
REMARK  9 active torsions:
REMARK  status: ('A' for Active; 'I' for Inactive)
REMARK    1  A    between atoms: C_1  and  C_2
REMARK    2  A    between atoms: C_11  and  S_13
REMARK    3  A    between atoms: S_13  and  N_16
REMARK    4  A    between atoms: N_16  and  C_17
REMARK    5  A    between atoms: C_17  and  C_19
REMARK    6  A    between atoms: C_17  and  C_25
REMARK    7  A    between atoms: C_25  and  C_26
REMARK    8  A    between atoms: C_25  and  C_27
REMARK    9  A    between atoms: C_25  and  C_28
REMARK                            x       y       z     vdW  Elec       q    Type
REMARK                         _______ _______ _______ _____ _____    ______ ____
ROOT
ATOM      1  S   UNL     1      -2.378  -6.749  -0.025  0.00  0.00    +0.059 S 
ATOM      2  O   UNL     1      -3.715  -6.978  -0.448  0.00  0.00    -0.153 OA
ATOM      3  O   UNL     1      -1.265  -7.390  -0.634  0.00  0.00    -0.153 OA
ENDROOT
BRANCH   1  14
ATOM      4  C   UNL     1      -0.666   1.377  -0.659  0.00  0.00    +0.109 C 
ATOM      5  C   UNL     1      -0.542  -0.120  -0.537  0.00  0.00    +0.217 C 
ATOM      6  O   UNL     1       0.554  -0.635  -0.481  0.00  0.00    -0.276 OA
ATOM      7  N   UNL     1      -1.650  -0.886  -0.489  0.00  0.00    -0.271 N 
ATOM      8  C   UNL     1      -3.024  -0.381  -0.554  0.00  0.00    +0.118 C 
ATOM      9  C   UNL     1      -3.917  -1.629  -0.462  0.00  0.00    +0.056 C 
ATOM     10  C   UNL     1      -2.947  -2.783  -0.348  0.00  0.00    -0.023 A 
ATOM     11  C   UNL     1      -1.657  -2.280  -0.377  0.00  0.00    +0.040 A 
ATOM     12  C   UNL     1      -0.581  -3.166  -0.291  0.00  0.00    +0.026 A 
ATOM     13  C   UNL     1      -0.805  -4.522  -0.184  0.00  0.00    +0.030 A 
ATOM     14  C   UNL     1      -2.096  -5.015  -0.161  0.00  0.00    +0.106 A 
ATOM     15  C   UNL     1      -3.167  -4.143  -0.237  0.00  0.00    +0.034 A 
ENDBRANCH   1  14
BRANCH   1  16
ATOM     16  N   UNL     1      -2.319  -7.129   1.586  0.00  0.00    -0.182 NA
ATOM     17  H   UNL     1      -1.634  -7.729   1.918  0.00  0.00    +0.149 HD
BRANCH  16  18
ATOM     18  C   UNL     1      -3.304  -6.559   2.510  0.00  0.00    +0.112 C 
BRANCH  18  19
ATOM     19  C   UNL     1      -4.442  -7.530   2.693  0.00  0.00    -0.028 A 
ATOM     20  C   UNL     1      -4.185  -8.883   2.802  0.00  0.00    +0.005 A 
ATOM     21  C   UNL     1      -5.229  -9.774   2.970  0.00  0.00    +0.000 A 
ATOM     22  C   UNL     1      -6.530  -9.310   3.029  0.00  0.00    +0.000 A 
ATOM     23  C   UNL     1      -6.787  -7.956   2.921  0.00  0.00    +0.000 A 
ATOM     24  C   UNL     1      -5.742  -7.066   2.757  0.00  0.00    +0.005 A 
ENDBRANCH  18  19
BRANCH  18  25
ATOM     25  C   UNL     1      -2.639  -6.291   3.861  0.00  0.00    -0.017 C 
ATOM     26  C   UNL     1      -1.506  -5.279   3.681  0.00  0.00    +0.012 C 
ATOM     27  C   UNL     1      -3.675  -5.728   4.836  0.00  0.00    +0.012 C 
ATOM     28  C   UNL     1      -2.072  -7.598   4.419  0.00  0.00    +0.012 C 
ENDBRANCH  18  25
ENDBRANCH  16  18
ENDBRANCH   1  16
TORSDOF 5
