REMARK  Name = ZINC02587031
REMARK  5 active torsions:
REMARK  status: ('A' for Active; 'I' for Inactive)
REMARK    1  A    between atoms: C_1  and  O_2
REMARK    2  A    between atoms: O_2  and  C_3
REMARK    3  A    between atoms: C_8  and  C_9
REMARK    4  A    between atoms: C_17  and  C_29
REMARK    5  A    between atoms: C_20  and  C_22
REMARK                            x       y       z     vdW  Elec       q    Type
REMARK                         _______ _______ _______ _____ _____    ______ ____
ROOT
ATOM      1  C   UNL     1      -0.013  -2.830  -0.013  0.00  0.00    +0.254 C 
ATOM      2  O   UNL     1       1.066  -2.270  -0.020  0.00  0.00    -0.270 OA
ATOM      3  N   UNL     1      -0.073  -4.177  -0.020  0.00  0.00    -0.249 N 
ATOM      4  C   UNL     1       1.104  -4.929  -0.035  0.00  0.00    +0.243 A 
ATOM      5  N   UNL     1       2.344  -4.426  -0.038  0.00  0.00    -0.176 NA
ATOM      6  C   UNL     1       3.216  -5.404  -0.057  0.00  0.00    +0.251 A 
ATOM      7  N   UNL     1       2.518  -6.580  -0.057  0.00  0.00    -0.220 N 
ATOM      8  N   UNL     1       1.168  -6.245  -0.043  0.00  0.00    -0.131 NA
ATOM      9  C   UNL     1       3.175  -7.887  -0.058  0.00  0.00    +0.147 C 
ATOM     10  C   UNL     1       4.524  -7.739  -0.770  0.00  0.00    +0.087 C 
ATOM     11  C   UNL     1       5.222  -6.477  -0.348  0.00  0.00    +0.055 C 
ATOM     12  N   UNL     1       4.576  -5.381  -0.052  0.00  0.00    -0.215 NA
ATOM     13  H   UNL     1      -0.934  -4.624  -0.014  0.00  0.00    +0.158 HD
ENDROOT
BRANCH  11  14
ATOM     14  C   UNL     1       6.691  -6.476  -0.263  0.00  0.00    -0.003 A 
ATOM     15  C   UNL     1       7.414  -7.631  -0.579  0.00  0.00    +0.011 A 
ATOM     16  C   UNL     1       8.790  -7.623  -0.498  0.00  0.00    +0.020 A 
ATOM     17  C   UNL     1       9.457  -6.473  -0.105  0.00  0.00    +0.041 A 
ATOM     18  C   UNL     1       8.747  -5.325   0.209  0.00  0.00    +0.020 A 
ATOM     19  C   UNL     1       7.371  -5.318   0.127  0.00  0.00    +0.011 A 
ATOM     20 CL   UNL     1      11.190  -6.472  -0.006  0.00  0.00    -0.084 Cl
ENDBRANCH  11  14
BRANCH   1  26
ATOM     21  C   UNL     1      -1.198  -0.636   0.010  0.00  0.00    +0.132 A 
ATOM     22  C   UNL     1      -2.373   0.100   0.019  0.00  0.00    +0.046 A 
ATOM     23  C   UNL     1      -3.594  -0.545   0.028  0.00  0.00    +0.004 A 
ATOM     24  C   UNL     1      -3.656  -1.929   0.027  0.00  0.00    +0.001 A 
ATOM     25  C   UNL     1      -2.498  -2.676   0.018  0.00  0.00    +0.017 A 
ATOM     26  C   UNL     1      -1.256  -2.037   0.003  0.00  0.00    +0.079 A 
BRANCH  21  28
ATOM     27  C   UNL     1      -0.017   1.425   0.010  0.00  0.00    +0.277 C 
ATOM     28  O   UNL     1       0.002  -0.004   0.002  0.00  0.00    -0.494 OA
ENDBRANCH  21  28
ENDBRANCH   1  26
BRANCH   9  29
ATOM     29  C   UNL     1       2.318  -8.887  -0.791  0.00  0.00    -0.023 A 
ATOM     30  C   UNL     1       2.000  -8.682  -2.120  0.00  0.00    +0.006 A 
ATOM     31  C   UNL     1       1.214  -9.600  -2.792  0.00  0.00    +0.000 A 
ATOM     32  C   UNL     1       0.747 -10.723  -2.135  0.00  0.00    +0.000 A 
ATOM     33  C   UNL     1       1.065 -10.928  -0.806  0.00  0.00    +0.000 A 
ATOM     34  C   UNL     1       1.855 -10.013  -0.135  0.00  0.00    +0.006 A 
ENDBRANCH   9  29
TORSDOF 4
