REMARK  Name = ZINC39664166
REMARK  8 active torsions:
REMARK  status: ('A' for Active; 'I' for Inactive)
REMARK    1  A    between atoms: C_1  and  O_2
REMARK    2  A    between atoms: O_2  and  C_3
REMARK    3  A    between atoms: C_6  and  C_9
REMARK    4  A    between atoms: C_9  and  C_11
REMARK    5  A    between atoms: C_9  and  N_35
REMARK    6  A    between atoms: C_11  and  N_12
REMARK    7  A    between atoms: C_13  and  C_15
REMARK    8  A    between atoms: C_26  and  C_28
REMARK                            x       y       z     vdW  Elec       q    Type
REMARK                         _______ _______ _______ _____ _____    ______ ____
ROOT
ATOM      1  N   UNL     1       5.992  -3.029   4.732  0.00  0.00    -0.316 N 
ATOM      2  C   UNL     1       6.057  -4.365   4.896  0.00  0.00    +0.218 C 
ATOM      3  O   UNL     1       5.369  -5.095   4.214  0.00  0.00    -0.275 OA
ATOM      4  H   UNL     1       6.542  -2.446   5.278  0.00  0.00    +0.149 HD
ENDROOT
BRANCH   2   5
ATOM      5  C   UNL     1       6.985  -4.953   5.928  0.00  0.00    +0.100 C 
ATOM      6  C   UNL     1       6.415  -6.284   6.469  0.00  0.00    +0.121 C 
ATOM      7  N   UNL     1       7.068  -7.331   5.648  0.00  0.00    -0.300 N 
ATOM      8  C   UNL     1       8.462  -6.855   5.483  0.00  0.00    +0.115 C 
ATOM      9  C   UNL     1       8.330  -5.331   5.286  0.00  0.00    -0.004 C 
ATOM     10  C   UNL     1       9.474  -4.607   5.988  0.00  0.00    -0.010 C 
ATOM     11  C   UNL     1      10.794  -4.953   5.294  0.00  0.00    -0.082 C 
ATOM     12  N   UNL     1      10.728  -4.553   3.884  0.00  0.00    +0.379 N 
ATOM     13  C   UNL     1       9.686  -5.323   3.193  0.00  0.00    -0.082 C 
ATOM     14  C   UNL     1       8.319  -4.992   3.798  0.00  0.00    -0.010 C 
ATOM     15  C   UNL     1       6.518  -8.462   5.162  0.00  0.00    +0.219 C 
ATOM     16  O   UNL     1       5.332  -8.670   5.306  0.00  0.00    -0.275 OA
ATOM     17  H   UNL     1      10.512  -3.569   3.824  0.00  0.00    -0.086 HD
ATOM     18  H   UNL     1      11.619  -4.726   3.444  0.00  0.00    -0.086 HD
BRANCH  15  19
ATOM     19  C   UNL     1       7.377  -9.467   4.440  0.00  0.00    +0.079 C 
ATOM     20  C   UNL     1       6.490 -10.562   3.833  0.00  0.00    +0.017 C 
ATOM     21  C   UNL     1       7.365 -11.465   2.960  0.00  0.00    +0.027 C 
ATOM     22  C   UNL     1       8.589 -11.888   3.719  0.00  0.00    -0.031 C 
ATOM     23  C   UNL     1       9.017 -11.301   4.790  0.00  0.00    -0.030 C 
ATOM     24  C   UNL     1       8.348 -10.117   5.428  0.00  0.00    +0.039 C 
ENDBRANCH  15  19
ENDBRANCH   2   5
BRANCH   1  25
ATOM     25  C   UNL     1       5.090  -2.458   3.729  0.00  0.00    +0.093 C 
BRANCH  25  26
ATOM     26  C   UNL     1       5.301  -0.945   3.656  0.00  0.00    -0.020 C 
BRANCH  26  30
ATOM     27  C   UNL     1       9.210  -0.123   2.138  0.00  0.00    +0.120 A 
ATOM     28  C   UNL     1       8.967  -0.059   3.502  0.00  0.00    +0.046 A 
ATOM     29  C   UNL     1       7.702  -0.325   3.990  0.00  0.00    +0.005 A 
ATOM     30  C   UNL     1       6.679  -0.655   3.121  0.00  0.00    -0.059 A 
ATOM     31  C   UNL     1       6.919  -0.720   1.760  0.00  0.00    +0.005 A 
ATOM     32  C   UNL     1       8.181  -0.449   1.267  0.00  0.00    +0.046 A 
BRANCH  27  34
ATOM     33  C   UNL     1      11.464   0.467   2.610  0.00  0.00    +0.277 C 
ATOM     34  O   UNL     1      10.453   0.138   1.655  0.00  0.00    -0.495 OA
ENDBRANCH  27  34
ENDBRANCH  26  30
BRANCH  26  35
ATOM     35  N   UNL     1       4.295  -0.352   2.764  0.00  0.00    +0.385 N 
ATOM     36  C   UNL     1       2.941  -0.483   3.361  0.00  0.00    -0.078 C 
ATOM     37  C   UNL     1       2.129   0.626   2.646  0.00  0.00    -0.020 C 
ATOM     38  C   UNL     1       3.154   1.777   2.519  0.00  0.00    -0.020 C 
ATOM     39  C   UNL     1       4.533   1.100   2.620  0.00  0.00    -0.078 C 
ATOM     40  H   UNL     1       4.323  -0.801   1.861  0.00  0.00    -0.081 HD
ENDBRANCH  26  35
ENDBRANCH  25  26
ENDBRANCH   1  25
TORSDOF 7
