REMARK  Name = ZINC09116113
REMARK  9 active torsions:
REMARK  status: ('A' for Active; 'I' for Inactive)
REMARK    1  A    between atoms: C_1  and  C_2
REMARK    2  A    between atoms: C_2  and  O_3
REMARK    3  A    between atoms: O_3  and  C_4
REMARK    4  A    between atoms: C_9  and  N_12
REMARK    5  A    between atoms: C_13  and  C_15
REMARK    6  A    between atoms: C_15  and  C_16
REMARK    7  A    between atoms: C_16  and  C_17
REMARK    8  A    between atoms: N_19  and  C_26
REMARK    9  A    between atoms: C_26  and  C_27
REMARK                            x       y       z     vdW  Elec       q    Type
REMARK                         _______ _______ _______ _____ _____    ______ ____
ROOT
ATOM      1  C   UNL     1      -1.057   5.775   0.069  0.00  0.00    +0.046 C 
ENDROOT
BRANCH   1   2
ATOM      2  C   UNL     1       0.079   4.787   0.016  0.00  0.00    -0.022 A 
ATOM      3  C   UNL     1       1.390   5.074   0.046  0.00  0.00    +0.090 A 
ATOM      4  N   UNL     1       2.122   3.920  -0.021  0.00  0.00    -0.342 N 
ATOM      5  C   UNL     1       1.279   2.834  -0.098  0.00  0.00    +0.050 A 
ATOM      6  C   UNL     1      -0.038   3.329  -0.078  0.00  0.00    +0.003 A 
ATOM      7  C   UNL     1      -1.115   2.444  -0.145  0.00  0.00    +0.010 A 
ATOM      8  C   UNL     1      -0.885   1.100  -0.234  0.00  0.00    +0.001 A 
ATOM      9  C   UNL     1       0.412   0.607  -0.248  0.00  0.00    +0.002 A 
ATOM     10  C   UNL     1       1.491   1.462  -0.183  0.00  0.00    +0.026 A 
BRANCH   4  11
ATOM     11  C   UNL     1       3.586   3.851  -0.012  0.00  0.00    +0.159 C 
BRANCH  11  12
ATOM     12  C   UNL     1       4.069   3.628   1.398  0.00  0.00    +0.007 A 
ATOM     13  C   UNL     1       4.363   2.350   1.835  0.00  0.00    +0.008 A 
ATOM     14  C   UNL     1       4.807   2.146   3.128  0.00  0.00    +0.000 A 
ATOM     15  C   UNL     1       4.958   3.220   3.986  0.00  0.00    +0.003 A 
ATOM     16  C   UNL     1       4.666   4.498   3.551  0.00  0.00    +0.039 A 
ATOM     17  C   UNL     1       4.225   4.705   2.255  0.00  0.00    +0.128 A 
ATOM     18  F   UNL     1       3.944   5.955   1.827  0.00  0.00    -0.205 F 
ENDBRANCH  11  12
ENDBRANCH   4  11
ENDBRANCH   1   2
BRANCH   1  19
ATOM     19  C   UNL     1      -1.537   5.924   1.514  0.00  0.00    +0.100 C 
BRANCH  19  21
ATOM     20  N   UNL     1      -3.258   7.204   2.745  0.00  0.00    -0.312 N 
ATOM     21  C   UNL     1      -2.673   6.912   1.567  0.00  0.00    +0.214 C 
ATOM     22  O   UNL     1      -3.061   7.446   0.549  0.00  0.00    -0.276 OA
ATOM     23  H   UNL     1      -2.948   6.777   3.560  0.00  0.00    +0.149 HD
BRANCH  20  29
ATOM     24  C   UNL     1      -6.224  11.142   4.929  0.00  0.00    +0.403 C 
ATOM     25  O   UNL     1      -6.985  10.833   5.825  0.00  0.00    -0.226 OA
ATOM     26  N   UNL     1      -5.875  10.231   3.999  0.00  0.00    -0.267 N 
ATOM     27  C   UNL     1      -6.405   8.862   4.055  0.00  0.00    +0.113 C 
ATOM     28  C   UNL     1      -5.232   7.877   4.023  0.00  0.00    +0.041 C 
ATOM     29  C   UNL     1      -4.363   8.165   2.797  0.00  0.00    +0.076 C 
ATOM     30  C   UNL     1      -3.799   9.585   2.891  0.00  0.00    +0.041 C 
ATOM     31  C   UNL     1      -4.956  10.589   2.910  0.00  0.00    +0.113 C 
BRANCH  24  32
ATOM     32  O   UNL     1      -5.731  12.393   4.866  0.00  0.00    -0.451 OA
BRANCH  32  34
ATOM     33  C   UNL     1      -5.492  14.681   5.664  0.00  0.00    +0.048 C 
ATOM     34  C   UNL     1      -6.151  13.320   5.901  0.00  0.00    +0.230 C 
ENDBRANCH  32  34
ENDBRANCH  24  32
ENDBRANCH  20  29
ENDBRANCH  19  21
ENDBRANCH   1  19
TORSDOF 8
