REMARK  Name = ZINC09358228
REMARK  6 active torsions:
REMARK  status: ('A' for Active; 'I' for Inactive)
REMARK    1  A    between atoms: C_1  and  O_2
REMARK    2  A    between atoms: O_2  and  C_3
REMARK    3  A    between atoms: C_3  and  C_5
REMARK    4  A    between atoms: C_8  and  C_11
REMARK    5  A    between atoms: C_16  and  C_21
REMARK    6  A    between atoms: C_34  and  C_36
REMARK                            x       y       z     vdW  Elec       q    Type
REMARK                         _______ _______ _______ _____ _____    ______ ____
ROOT
ATOM      1  C   UNL     1      -1.158   1.728  -0.459  0.00  0.00    +0.147 C 
ATOM      2  C   UNL     1      -0.888   1.844   1.022  0.00  0.00    +0.037 C 
ATOM      3  C   UNL     1      -0.295   2.881   1.637  0.00  0.00    +0.017 C 
ATOM      4  C   UNL     1      -0.097   2.875   3.143  0.00  0.00    +0.063 C 
ATOM      5  C   UNL     1       0.114   1.445   3.636  0.00  0.00    +0.068 C 
ATOM      6  C   UNL     1      -1.128   0.631   3.255  0.00  0.00    +0.091 C 
ATOM      7  C   UNL     1      -1.323   0.726   1.772  0.00  0.00    +0.163 C 
ATOM      8  O   UNL     1      -1.873  -0.191   1.193  0.00  0.00    -0.292 OA
ATOM      9  N   UNL     1       0.153   3.998   1.008  0.00  0.00    -0.316 N 
ATOM     10  C   UNL     1       0.908   4.007  -0.158  0.00  0.00    +0.053 A 
ATOM     11  C   UNL     1       2.190   4.528  -0.206  0.00  0.00    +0.025 A 
ATOM     12  C   UNL     1       2.842   4.614  -1.424  0.00  0.00    +0.002 A 
ATOM     13  C   UNL     1       2.219   4.182  -2.581  0.00  0.00    +0.002 A 
ATOM     14  C   UNL     1       0.947   3.640  -2.532  0.00  0.00    +0.025 A 
ATOM     15  C   UNL     1       0.298   3.536  -1.311  0.00  0.00    +0.059 A 
ATOM     16  N   UNL     1      -0.965   2.954  -1.204  0.00  0.00    -0.254 N 
ATOM     17  C   UNL     1      -2.020   3.542  -1.802  0.00  0.00    +0.252 C 
ATOM     18  O   UNL     1      -3.140   3.104  -1.625  0.00  0.00    -0.270 OA
ATOM     19  H   UNL     1      -0.071   4.855   1.402  0.00  0.00    +0.152 HD
ENDROOT
BRANCH   1  23
ATOM     20  C   UNL     1       1.431  -1.259  -2.088  0.00  0.00    +0.059 A 
ATOM     21  C   UNL     1       0.050  -1.459  -2.077  0.00  0.00    +0.015 A 
ATOM     22  C   UNL     1      -0.780  -0.492  -1.548  0.00  0.00    +0.006 A 
ATOM     23  C   UNL     1      -0.245   0.674  -1.029  0.00  0.00    -0.022 A 
ATOM     24  C   UNL     1       1.123   0.879  -1.037  0.00  0.00    +0.006 A 
ATOM     25  C   UNL     1       1.964  -0.080  -1.563  0.00  0.00    +0.015 A 
BRANCH  20  26
ATOM     26  C   UNL     1       2.326  -2.290  -2.652  0.00  0.00    +0.339 C 
ATOM     27  O   UNL     1       1.860  -3.315  -3.108  0.00  0.00    -0.245 OA
BRANCH  26  29
ATOM     28  C   UNL     1       4.477  -3.150  -3.232  0.00  0.00    +0.280 C 
ATOM     29  O   UNL     1       3.659  -2.094  -2.662  0.00  0.00    -0.464 OA
ENDBRANCH  26  29
ENDBRANCH  20  26
ENDBRANCH   1  23
BRANCH  17  30
ATOM     30  C   UNL     1      -1.815   4.717  -2.674  0.00  0.00    +0.037 A 
ATOM     31  C   UNL     1      -0.708   5.546  -2.484  0.00  0.00    +0.013 A 
ATOM     32  C   UNL     1      -0.520   6.639  -3.305  0.00  0.00    +0.001 A 
ATOM     33  C   UNL     1      -1.431   6.920  -4.308  0.00  0.00    +0.000 A 
ATOM     34  C   UNL     1      -2.533   6.105  -4.498  0.00  0.00    +0.001 A 
ATOM     35  C   UNL     1      -2.730   5.006  -3.688  0.00  0.00    +0.013 A 
ENDBRANCH  17  30
BRANCH   5  36
ATOM     36  C   UNL     1       0.288   1.441   5.133  0.00  0.00    +0.109 A 
ATOM     37  C   UNL     1       1.367   0.993   5.799  0.00  0.00    +0.045 A 
ATOM     38  C   UNL     1       1.106   1.180   7.176  0.00  0.00    +0.041 A 
ATOM     39  C   UNL     1      -0.120   1.724   7.269  0.00  0.00    +0.195 A 
ATOM     40  O   UNL     1      -0.611   1.880   6.029  0.00  0.00    -0.468 OA
ENDBRANCH   5  36
TORSDOF 5
