REMARK  Name = ZINC39597032
REMARK  10 active torsions:
REMARK  status: ('A' for Active; 'I' for Inactive)
REMARK    1  A    between atoms: C_1  and  C_2
REMARK    2  A    between atoms: C_2  and  C_4
REMARK    3  A    between atoms: C_2  and  N_10
REMARK    4  A    between atoms: C_11  and  C_13
REMARK    5  A    between atoms: C_24  and  C_26
REMARK    6  A    between atoms: C_26  and  C_28
REMARK    7  A    between atoms: C_26  and  O_31
REMARK    8  A    between atoms: C_28  and  C_29
REMARK    9  A    between atoms: C_28  and  C_30
REMARK   10  A    between atoms: O_31  and  C_32
REMARK                            x       y       z     vdW  Elec       q    Type
REMARK                         _______ _______ _______ _____ _____    ______ ____
ROOT
ATOM      1  C   UNL     1      -3.781  -0.889  -1.001  0.00  0.00    +0.100 C 
ATOM      2  C   UNL     1      -3.681  -2.375  -0.590  0.00  0.00    +0.121 C 
ATOM      3  N   UNL     1      -4.648  -3.073  -1.469  0.00  0.00    -0.297 N 
ATOM      4  C   UNL     1      -4.499  -2.406  -2.784  0.00  0.00    +0.115 C 
ATOM      5  C   UNL     1      -4.318  -0.913  -2.442  0.00  0.00    -0.004 C 
ATOM      6  C   UNL     1      -3.311  -0.274  -3.392  0.00  0.00    -0.010 C 
ATOM      7  C   UNL     1      -3.891  -0.257  -4.809  0.00  0.00    -0.082 C 
ATOM      8  N   UNL     1      -5.149   0.500  -4.816  0.00  0.00    +0.379 N 
ATOM      9  C   UNL     1      -6.143  -0.174  -3.971  0.00  0.00    -0.082 C 
ATOM     10  C   UNL     1      -5.658  -0.188  -2.519  0.00  0.00    -0.010 C 
ATOM     11  C   UNL     1      -5.477  -4.086  -1.145  0.00  0.00    +0.257 C 
ATOM     12  O   UNL     1      -6.155  -4.612  -2.002  0.00  0.00    -0.272 OA
ATOM     13  H   UNL     1      -4.983   1.429  -4.460  0.00  0.00    -0.086 HD
ATOM     14  H   UNL     1      -5.498   0.561  -5.760  0.00  0.00    -0.086 HD
ENDROOT
BRANCH   1  16
ATOM     15  N   UNL     1      -2.318   1.100  -0.855  0.00  0.00    -0.308 N 
ATOM     16  C   UNL     1      -2.422  -0.240  -0.958  0.00  0.00    +0.219 C 
ATOM     17  O   UNL     1      -1.422  -0.922  -1.017  0.00  0.00    -0.275 OA
ATOM     18  H   UNL     1      -3.119   1.647  -0.809  0.00  0.00    +0.149 HD
BRANCH  15  20
ATOM     19  C   UNL     1      -0.491   1.949  -2.241  0.00  0.00    +0.033 C 
ATOM     20  C   UNL     1      -0.997   1.732  -0.814  0.00  0.00    +0.100 C 
BRANCH  20  21
ATOM     21  C   UNL     1      -1.097   3.060  -0.108  0.00  0.00    -0.027 A 
ATOM     22  C   UNL     1      -2.188   3.879  -0.328  0.00  0.00    +0.005 A 
ATOM     23  C   UNL     1      -2.280   5.097   0.319  0.00  0.00    +0.000 A 
ATOM     24  C   UNL     1      -1.280   5.496   1.186  0.00  0.00    +0.000 A 
ATOM     25  C   UNL     1      -0.189   4.676   1.407  0.00  0.00    +0.000 A 
ATOM     26  C   UNL     1      -0.100   3.456   0.763  0.00  0.00    +0.005 A 
ENDBRANCH  20  21
ENDBRANCH  15  20
ENDBRANCH   1  16
BRANCH  11  27
ATOM     27  C   UNL     1      -5.560  -4.564   0.281  0.00  0.00    +0.261 C 
BRANCH  27  28
ATOM     28  C   UNL     1      -4.496  -5.636   0.523  0.00  0.00    +0.033 C 
ATOM     29  C   UNL     1      -3.120  -5.081   0.150  0.00  0.00    +0.011 C 
ATOM     30  C   UNL     1      -4.502  -6.037   1.999  0.00  0.00    +0.011 C 
ENDBRANCH  27  28
BRANCH  27  31
ATOM     31  O   UNL     1      -6.856  -5.117   0.523  0.00  0.00    -0.479 OA
BRANCH  31  32
ATOM     32  C   UNL     1      -7.375  -4.951   1.768  0.00  0.00    +0.122 A 
ATOM     33  C   UNL     1      -6.694  -4.192   2.709  0.00  0.00    +0.045 A 
ATOM     34  C   UNL     1      -7.223  -4.025   3.974  0.00  0.00    +0.004 A 
ATOM     35  C   UNL     1      -8.430  -4.614   4.303  0.00  0.00    +0.000 A 
ATOM     36  C   UNL     1      -9.110  -5.372   3.368  0.00  0.00    +0.004 A 
ATOM     37  C   UNL     1      -8.588  -5.537   2.099  0.00  0.00    +0.045 A 
ENDBRANCH  31  32
ENDBRANCH  27  31
ENDBRANCH  11  27
TORSDOF 7
