REMARK  Name = ZINC34943990
REMARK  10 active torsions:
REMARK  status: ('A' for Active; 'I' for Inactive)
REMARK    1  A    between atoms: C_1  and  C_2
REMARK    2  A    between atoms: C_2  and  C_3
REMARK    3  A    between atoms: C_3  and  C_5
REMARK    4  A    between atoms: C_3  and  N_6
REMARK    5  A    between atoms: N_6  and  C_7
REMARK    6  A    between atoms: C_7  and  C_8
REMARK    7  A    between atoms: C_8  and  C_9
REMARK    8  A    between atoms: N_11  and  C_12
REMARK    9  A    between atoms: C_23  and  C_25
REMARK   10  A    between atoms: C_29  and  N_31
REMARK                            x       y       z     vdW  Elec       q    Type
REMARK                         _______ _______ _______ _____ _____    ______ ____
ROOT
ATOM      1  N   UNL     1       1.942   0.382  -0.683  0.00  0.00    -0.294 N 
ATOM      2  C   UNL     1       2.600  -0.296   0.277  0.00  0.00    +0.247 C 
ATOM      3  O   UNL     1       3.811  -0.218   0.355  0.00  0.00    -0.270 OA
ENDROOT
BRANCH   2   4
ATOM      4  C   UNL     1       1.851  -1.136   1.236  0.00  0.00    +0.039 A 
ATOM      5  C   UNL     1       0.606  -1.661   0.883  0.00  0.00    +0.014 A 
ATOM      6  C   UNL     1      -0.088  -2.443   1.782  0.00  0.00    +0.023 A 
ATOM      7  C   UNL     1       0.447  -2.709   3.031  0.00  0.00    +0.071 A 
ATOM      8  C   UNL     1       1.681  -2.191   3.386  0.00  0.00    +0.145 A 
ATOM      9  C   UNL     1       2.388  -1.412   2.494  0.00  0.00    +0.047 A 
ATOM     10 CL   UNL     1      -0.433  -3.695   4.157  0.00  0.00    -0.081 Cl
BRANCH   8  11
ATOM     11  N   UNL     1       2.246  -2.479   4.724  0.00  0.00    +0.058 N 
ATOM     12  O   UNL     1       3.324  -2.027   5.035  0.00  0.00    -0.126 OA
ATOM     13  O   UNL     1       1.630  -3.166   5.505  0.00  0.00    -0.126 OA
ENDBRANCH   8  11
ENDBRANCH   2   4
BRANCH   1  14
ATOM     14  C   UNL     1       0.720  -0.177  -1.267  0.00  0.00    +0.073 C 
ATOM     15  C   UNL     1       0.886  -1.686  -1.452  0.00  0.00    +0.028 C 
BRANCH  14  17
ATOM     16  C   UNL     1      -1.112   1.429  -0.709  0.00  0.00    +0.005 C 
ATOM     17  C   UNL     1      -0.462   0.096  -0.334  0.00  0.00    +0.019 C 
ENDBRANCH  14  17
ENDBRANCH   1  14
BRANCH   1  18
ATOM     18  C   UNL     1       2.447   1.678  -1.143  0.00  0.00    +0.117 C 
BRANCH  18  19
ATOM     19  C   UNL     1       1.837   2.794  -0.293  0.00  0.00    +0.115 C 
BRANCH  19  20
ATOM     20  C   UNL     1       2.357   4.127  -0.766  0.00  0.00    +0.215 C 
ATOM     21  O   UNL     1       3.139   4.179  -1.692  0.00  0.00    -0.276 OA
ATOM     22  N   UNL     1       1.953   5.261  -0.161  0.00  0.00    -0.308 N 
ATOM     23  H   UNL     1       1.328   5.220   0.579  0.00  0.00    +0.149 HD
BRANCH  22  24
ATOM     24  C   UNL     1       2.459   6.557  -0.621  0.00  0.00    +0.103 C 
ATOM     25  C   UNL     1       2.398   7.559   0.530  0.00  0.00    +0.027 C 
ATOM     26  C   UNL     1       2.722   8.952  -0.023  0.00  0.00    +0.007 C 
ATOM     27  C   UNL     1       1.557   9.403  -0.902  0.00  0.00    +0.035 C 
ATOM     28  C   UNL     1       1.214   8.340  -1.913  0.00  0.00    -0.042 A 
ATOM     29  C   UNL     1       1.624   7.033  -1.781  0.00  0.00    -0.024 A 
ATOM     30  C   UNL     1       1.266   6.100  -2.746  0.00  0.00    +0.006 A 
ATOM     31  C   UNL     1       0.507   6.474  -3.835  0.00  0.00    +0.000 A 
ATOM     32  C   UNL     1       0.098   7.788  -3.968  0.00  0.00    +0.000 A 
ATOM     33  C   UNL     1       0.451   8.715  -3.011  0.00  0.00    +0.004 A 
ENDBRANCH  22  24
ENDBRANCH  19  20
ENDBRANCH  18  19
ENDBRANCH   1  18
TORSDOF 8
