REMARK  Name = ZINC32964284
REMARK  5 active torsions:
REMARK  status: ('A' for Active; 'I' for Inactive)
REMARK    1  A    between atoms: C_1  and  O_2
REMARK    2  A    between atoms: O_2  and  C_3
REMARK    3  A    between atoms: C_6  and  N_10
REMARK    4  A    between atoms: C_14  and  C_15
REMARK    5  A    between atoms: C_25  and  C_27
REMARK                            x       y       z     vdW  Elec       q    Type
REMARK                         _______ _______ _______ _____ _____    ______ ____
ROOT
ATOM      1  C   UNL     1      -4.943  -3.577  -1.975  0.00  0.00    +0.042 C 
ATOM      2  C   UNL     1      -3.806  -2.869  -2.326  0.00  0.00    +0.082 C 
ATOM      3  C   UNL     1      -3.290  -1.750  -1.492  0.00  0.00    +0.153 C 
ATOM      4  N   UNL     1      -3.394  -1.720  -0.188  0.00  0.00    -0.283 NA
ATOM      5  N   UNL     1      -2.676  -0.726  -2.244  0.00  0.00    -0.152 N 
ATOM      6  C   UNL     1      -2.186  -1.058  -3.489  0.00  0.00    +0.181 C 
ATOM      7  N   UNL     1      -2.303  -2.203  -4.112  0.00  0.00    -0.152 NA
ATOM      8  C   UNL     1      -3.035  -3.188  -3.550  0.00  0.00    +0.273 C 
ATOM      9  O   UNL     1      -3.066  -4.308  -4.037  0.00  0.00    -0.268 OA
ATOM     10  S   UNL     1      -1.402   0.449  -3.998  0.00  0.00    -0.033 S 
ATOM     11  C   UNL     1      -1.860   1.442  -2.583  0.00  0.00    +0.133 C 
ATOM     12  N   UNL     1      -2.513   0.582  -1.840  0.00  0.00    -0.164 NA
ATOM     13  H   UNL     1      -3.105  -0.935   0.303  0.00  0.00    +0.188 HD
ENDROOT
BRANCH  11  14
ATOM     14  C   UNL     1      -1.575   2.869  -2.319  0.00  0.00    +0.044 A 
ATOM     15  C   UNL     1      -0.949   3.651  -3.292  0.00  0.00    +0.013 A 
ATOM     16  C   UNL     1      -0.686   4.981  -3.039  0.00  0.00    +0.001 A 
ATOM     17  C   UNL     1      -1.041   5.543  -1.825  0.00  0.00    +0.003 A 
ATOM     18  C   UNL     1      -1.660   4.776  -0.856  0.00  0.00    +0.039 A 
ATOM     19  C   UNL     1      -1.935   3.443  -1.097  0.00  0.00    +0.133 A 
ATOM     20  F   UNL     1      -2.546   2.695  -0.152  0.00  0.00    -0.205 F 
ENDBRANCH  11  14
BRANCH   1  25
ATOM     21  N   UNL     1      -6.948  -3.669  -0.504  0.00  0.00    -0.316 N 
ATOM     22  C   UNL     1      -7.583  -2.804   0.327  0.00  0.00    +0.092 A 
ATOM     23  C   UNL     1      -6.930  -1.614   0.309  0.00  0.00    +0.020 A 
ATOM     24  C   UNL     1      -5.846  -1.730  -0.561  0.00  0.00    +0.027 A 
ATOM     25  C   UNL     1      -5.862  -3.024  -1.063  0.00  0.00    +0.047 A 
BRANCH  21  29
ATOM     26  C   UNL     1      -8.077  -7.618  -1.232  0.00  0.00    +0.138 A 
ATOM     27  C   UNL     1      -7.931  -7.168   0.072  0.00  0.00    +0.049 A 
ATOM     28  C   UNL     1      -7.556  -5.861   0.313  0.00  0.00    +0.030 A 
ATOM     29  C   UNL     1      -7.327  -4.996  -0.749  0.00  0.00    +0.048 A 
ATOM     30  C   UNL     1      -7.474  -5.447  -2.054  0.00  0.00    +0.049 A 
ATOM     31  C   UNL     1      -7.843  -6.756  -2.295  0.00  0.00    +0.084 A 
ATOM     32 CL   UNL     1      -8.020  -7.322  -3.927  0.00  0.00    -0.080 Cl
BRANCH  26  34
ATOM     33  C   UNL     1      -8.777  -9.705  -0.332  0.00  0.00    +0.277 C 
ATOM     34  O   UNL     1      -8.445  -8.905  -1.469  0.00  0.00    -0.494 OA
ENDBRANCH  26  34
ENDBRANCH  21  29
ENDBRANCH   1  25
TORSDOF 4
