REMARK  Name = ZINC01047746
REMARK  7 active torsions:
REMARK  status: ('A' for Active; 'I' for Inactive)
REMARK    1  A    between atoms: C_3  and  O_28
REMARK    2  A    between atoms: C_6  and  C_7
REMARK    3  A    between atoms: C_9  and  C_12
REMARK    4  A    between atoms: N_14  and  N_15
REMARK    5  A    between atoms: C_16  and  C_18
REMARK    6  A    between atoms: C_21  and  C_24
REMARK    7  A    between atoms: O_28  and  C_29
REMARK                            x       y       z     vdW  Elec       q    Type
REMARK                         _______ _______ _______ _____ _____    ______ ____
ROOT
ATOM      1  C   UNL     1       3.833  -1.234   8.332  0.00  0.00    +0.318 C 
ATOM      2  O   UNL     1       4.690  -1.824   7.705  0.00  0.00    -0.263 OA
ATOM      3  N   UNL     1       3.855  -1.246   9.680  0.00  0.00    -0.226 N 
ATOM      4  H   UNL     1       3.171  -0.775  10.181  0.00  0.00    +0.173 HD
ENDROOT
BRANCH   1   7
ATOM      5  C   UNL     1       1.515   0.351   6.124  0.00  0.00    +0.203 A 
ATOM      6  N   UNL     1       2.616  -0.405   6.311  0.00  0.00    -0.183 NA
ATOM      7  C   UNL     1       2.761  -0.501   7.615  0.00  0.00    +0.315 A 
ATOM      8  O   UNL     1       1.756   0.191   8.173  0.00  0.00    -0.328 OA
ATOM      9  N   UNL     1       1.058   0.675   7.308  0.00  0.00    -0.055 NA
BRANCH   5  15
ATOM     10  C   UNL     1      -0.215   1.537   4.777  0.00  0.00    +0.015 A 
ATOM     11  C   UNL     1      -0.754   1.905   3.562  0.00  0.00    +0.046 A 
ATOM     12  C   UNL     1      -0.153   1.491   2.381  0.00  0.00    +0.130 A 
ATOM     13  C   UNL     1       0.988   0.701   2.419  0.00  0.00    +0.046 A 
ATOM     14  C   UNL     1       1.534   0.334   3.631  0.00  0.00    +0.015 A 
ATOM     15  C   UNL     1       0.933   0.749   4.818  0.00  0.00    +0.023 A 
BRANCH  12  16
ATOM     16  O   UNL     1      -0.686   1.856   1.185  0.00  0.00    -0.406 OA
BRANCH  16  17
ATOM     17  C   UNL     1      -0.017   1.395   0.010  0.00  0.00    +0.575 C 
ATOM     18  F   UNL     1       0.002  -0.004   0.002  0.00  0.00    -0.133 F 
ATOM     19  F   UNL     1       1.296   1.879  -0.000  0.00  0.00    -0.133 F 
ATOM     20  F   UNL     1      -0.694   1.858  -1.124  0.00  0.00    -0.133 F 
ENDBRANCH  16  17
ENDBRANCH  12  16
ENDBRANCH   5  15
ENDBRANCH   1   7
BRANCH   3  21
ATOM     21  N   UNL     1       4.867  -1.939  10.357  0.00  0.00    -0.230 N 
ATOM     22  C   UNL     1       4.890  -1.951  11.705  0.00  0.00    +0.260 C 
ATOM     23  O   UNL     1       4.032  -1.361  12.332  0.00  0.00    -0.269 OA
ATOM     24  H   UNL     1       5.552  -2.410   9.857  0.00  0.00    +0.173 HD
BRANCH  22  25
ATOM     25  C   UNL     1       5.958  -2.682  12.420  0.00  0.00    +0.038 A 
ATOM     26  C   UNL     1       6.941  -3.365  11.702  0.00  0.00    +0.013 A 
ATOM     27  C   UNL     1       7.937  -4.042  12.375  0.00  0.00    +0.013 A 
ATOM     28  C   UNL     1       7.957  -4.052  13.759  0.00  0.00    +0.055 A 
ATOM     29  C   UNL     1       6.983  -3.381  14.476  0.00  0.00    +0.013 A 
ATOM     30  C   UNL     1       5.984  -2.697  13.815  0.00  0.00    +0.013 A 
BRANCH  28  31
ATOM     31  C   UNL     1       9.046  -4.798  14.487  0.00  0.00    +0.417 C 
ATOM     32  F   UNL     1       8.635  -6.116  14.716  0.00  0.00    -0.166 F 
ATOM     33  F   UNL     1      10.210  -4.800  13.711  0.00  0.00    -0.166 F 
ATOM     34  F   UNL     1       9.302  -4.170  15.711  0.00  0.00    -0.166 F 
ENDBRANCH  28  31
ENDBRANCH  22  25
ENDBRANCH   3  21
TORSDOF 7
