REMARK  Name = ZINC44749544
REMARK  5 active torsions:
REMARK  status: ('A' for Active; 'I' for Inactive)
REMARK    1  A    between atoms: C_1  and  C_2
REMARK    2  A    between atoms: C_6  and  N_8
REMARK    3  A    between atoms: C_9  and  C_13
REMARK    4  A    between atoms: C_16  and  N_20
REMARK    5  A    between atoms: C_18  and  C_19
REMARK                            x       y       z     vdW  Elec       q    Type
REMARK                         _______ _______ _______ _____ _____    ______ ____
ROOT
ATOM      1  N   UNL     1      -0.712  -2.976   2.646  0.00  0.00    -0.190 N 
ATOM      2  C   UNL     1      -0.019  -4.149   2.568  0.00  0.00    +0.187 A 
ATOM      3  N   UNL     1       0.765  -4.201   3.625  0.00  0.00    -0.108 NA
ATOM      4  N   UNL     1       0.612  -3.154   4.351  0.00  0.00    -0.022 NA
ATOM      5  N   UNL     1      -0.258  -2.361   3.826  0.00  0.00    -0.039 NA
ENDROOT
BRANCH   1  11
ATOM      6  C   UNL     1      -5.307  -3.034   0.894  0.00  0.00    +0.044 C 
ATOM      7  C   UNL     1      -3.899  -2.498   0.871  0.00  0.00    -0.048 A 
ATOM      8  C   UNL     1      -3.547  -1.522  -0.044  0.00  0.00    +0.006 A 
ATOM      9  C   UNL     1      -2.257  -1.026  -0.069  0.00  0.00    +0.041 A 
ATOM     10  C   UNL     1      -1.313  -1.505   0.822  0.00  0.00    +0.149 A 
ATOM     11  C   UNL     1      -1.665  -2.486   1.742  0.00  0.00    +0.105 A 
ATOM     12  C   UNL     1      -2.963  -2.977   1.767  0.00  0.00    +0.034 A 
ATOM     13  F   UNL     1      -0.052  -1.022   0.797  0.00  0.00    -0.203 F 
ENDBRANCH   1  11
BRANCH   2  14
ATOM     14  C   UNL     1      -0.128  -5.166   1.501  0.00  0.00    +0.024 A 
ATOM     15  C   UNL     1      -0.058  -4.784   0.160  0.00  0.00    +0.014 A 
ATOM     16  C   UNL     1      -0.159  -5.734  -0.832  0.00  0.00    +0.023 A 
ATOM     17  C   UNL     1      -0.332  -7.074  -0.499  0.00  0.00    +0.025 A 
ATOM     18  C   UNL     1      -0.402  -7.457   0.836  0.00  0.00    +0.026 A 
ATOM     19  C   UNL     1      -0.296  -6.512   1.832  0.00  0.00    -0.038 A 
ATOM     20  C   UNL     1      -0.367  -6.929   3.279  0.00  0.00    +0.044 C 
BRANCH  17  21
ATOM     21  N   UNL     1      -0.434  -8.034  -1.505  0.00  0.00    -0.358 N 
ATOM     22  H   UNL     1      -0.386  -7.767  -2.437  0.00  0.00    +0.142 HD
ATOM     23  H   UNL     1      -0.555  -8.968  -1.274  0.00  0.00    +0.142 HD
ENDBRANCH  17  21
ENDBRANCH   2  14
TORSDOF 3
