REMARK  Name = ZINC08722169
REMARK  3 active torsions:
REMARK  status: ('A' for Active; 'I' for Inactive)
REMARK    1  A    between atoms: C_4  and  C_7
REMARK    2  A    between atoms: C_7  and  N_51
REMARK    3  A    between atoms: C_18  and  C_21
REMARK                            x       y       z     vdW  Elec       q    Type
REMARK                         _______ _______ _______ _____ _____    ______ ____
ROOT
ATOM      1  C   UNL     1      -0.765   1.599  -1.223  0.00  0.00    -0.073 C 
ATOM      2  C   UNL     1      -0.013   1.086   0.008  0.00  0.00    +0.018 C 
ATOM      3  C   UNL     1      -0.739   1.584   1.253  0.00  0.00    -0.027 A 
ATOM      4  C   UNL     1      -1.613   2.612   1.159  0.00  0.00    -0.021 A 
ATOM      5  S   UNL     1      -2.215   2.853   2.808  0.00  0.00    -0.080 S 
ATOM      6  C   UNL     1      -1.327   1.621   3.599  0.00  0.00    +0.080 A 
ATOM      7  C   UNL     1      -0.567   1.023   2.581  0.00  0.00    +0.068 A 
ATOM      8  C   UNL     1       0.319  -0.102   2.959  0.00  0.00    +0.248 C 
ATOM      9  O   UNL     1       1.091  -0.597   2.158  0.00  0.00    -0.270 OA
ATOM     10  N   UNL     1       0.235  -0.556   4.227  0.00  0.00    -0.289 N 
ATOM     11  C   UNL     1      -0.826  -0.170   5.151  0.00  0.00    +0.192 C 
ATOM     12  N   UNL     1      -1.273   1.213   4.907  0.00  0.00    -0.316 N 
ATOM     13  C   UNL     1      -1.972   3.364  -0.085  0.00  0.00    -0.035 C 
ATOM     14  H   UNL     1       0.916  -1.171   4.540  0.00  0.00    +0.151 HD
ATOM     15  H   UNL     1      -1.516   1.806   5.635  0.00  0.00    +0.149 HD
ATOM     16  N   UNL     1      -0.947   3.061  -1.111  0.00  0.00    +0.386 N 
ATOM     17  H   UNL     1      -0.056   3.488  -0.831  0.00  0.00    -0.081 HD
ENDROOT
BRANCH  11  18
ATOM     18  C   UNL     1      -1.996  -1.104   4.978  0.00  0.00    +0.013 A 
ATOM     19  C   UNL     1      -1.795  -2.376   4.473  0.00  0.00    +0.058 A 
ATOM     20  C   UNL     1      -2.868  -3.238   4.317  0.00  0.00    +0.167 A 
ATOM     21  C   UNL     1      -4.150  -2.817   4.660  0.00  0.00    +0.168 A 
ATOM     22  C   UNL     1      -4.346  -1.541   5.160  0.00  0.00    +0.070 A 
ATOM     23  C   UNL     1      -3.269  -0.686   5.319  0.00  0.00    +0.051 A 
ATOM     24 CL   UNL     1      -3.518   0.913   5.946  0.00  0.00    -0.083 Cl
ATOM     25  O   UNL     1      -5.024  -3.836   4.411  0.00  0.00    -0.453 OA
ATOM     26  C   UNL     1      -4.213  -5.020   4.299  0.00  0.00    +0.466 C 
ATOM     27  O   UNL     1      -2.938  -4.520   3.853  0.00  0.00    -0.453 OA
ENDBRANCH  11  18
BRANCH  16  28
ATOM     28  C   UNL     1      -1.357   3.621  -2.417  0.00  0.00    -0.043 C 
BRANCH  28  32
ATOM     29  C   UNL     1      -1.248   7.885  -2.189  0.00  0.00    +0.000 A 
ATOM     30  C   UNL     1      -0.120   7.184  -2.572  0.00  0.00    +0.000 A 
ATOM     31  C   UNL     1      -0.155   5.805  -2.646  0.00  0.00    +0.002 A 
ATOM     32  C   UNL     1      -1.319   5.125  -2.336  0.00  0.00    -0.064 A 
ATOM     33  C   UNL     1      -2.448   5.826  -1.958  0.00  0.00    +0.002 A 
ATOM     34  C   UNL     1      -2.412   7.206  -1.880  0.00  0.00    +0.000 A 
ENDBRANCH  28  32
ENDBRANCH  16  28
TORSDOF 3
