REMARK  Name = ZINC39686472
REMARK  8 active torsions:
REMARK  status: ('A' for Active; 'I' for Inactive)
REMARK    1  A    between atoms: C_1  and  C_2
REMARK    2  A    between atoms: C_2  and  C_4
REMARK    3  A    between atoms: C_2  and  N_13
REMARK    4  A    between atoms: C_4  and  C_5
REMARK    5  A    between atoms: C_10  and  O_11
REMARK    6  A    between atoms: O_11  and  C_12
REMARK    7  A    between atoms: C_14  and  C_16
REMARK    8  A    between atoms: C_27  and  C_29
REMARK                            x       y       z     vdW  Elec       q    Type
REMARK                         _______ _______ _______ _____ _____    ______ ____
ROOT
ATOM      1  C   UNL     1       1.276  -1.374   3.950  0.00  0.00    +0.100 C 
ATOM      2  C   UNL     1       2.295  -0.218   4.067  0.00  0.00    +0.121 C 
ATOM      3  N   UNL     1       1.694   0.712   5.052  0.00  0.00    -0.296 N 
ATOM      4  C   UNL     1       1.092  -0.175   6.076  0.00  0.00    +0.115 C 
ATOM      5  C   UNL     1       0.491  -1.345   5.271  0.00  0.00    -0.004 C 
ATOM      6  C   UNL     1      -0.989  -1.093   5.001  0.00  0.00    -0.010 C 
ATOM      7  C   UNL     1      -1.757  -1.124   6.326  0.00  0.00    -0.082 C 
ATOM      8  N   UNL     1      -1.572  -2.430   6.970  0.00  0.00    +0.379 N 
ATOM      9  C   UNL     1      -0.158  -2.625   7.310  0.00  0.00    -0.082 C 
ATOM     10  C   UNL     1       0.678  -2.656   6.027  0.00  0.00    -0.010 C 
ATOM     11  C   UNL     1       1.694   2.059   5.023  0.00  0.00    +0.247 C 
ATOM     12  O   UNL     1       2.135   2.646   4.054  0.00  0.00    -0.270 OA
ATOM     13  H   UNL     1      -2.127  -2.470   7.811  0.00  0.00    -0.086 HD
ATOM     14  H   UNL     1      -1.868  -3.160   6.339  0.00  0.00    -0.086 HD
ENDROOT
BRANCH  11  15
ATOM     15  C   UNL     1       1.158   2.824   6.169  0.00  0.00    +0.040 A 
ATOM     16  C   UNL     1       1.066   2.227   7.427  0.00  0.00    +0.033 A 
ATOM     17  C   UNL     1       0.565   2.946   8.495  0.00  0.00    +0.043 A 
ATOM     18  C   UNL     1       0.155   4.256   8.318  0.00  0.00    +0.040 A 
ATOM     19  C   UNL     1       0.243   4.854   7.073  0.00  0.00    +0.043 A 
ATOM     20  C   UNL     1       0.749   4.147   5.999  0.00  0.00    +0.033 A 
ATOM     21 CL   UNL     1      -0.274   6.497   6.861  0.00  0.00    -0.083 Cl
ATOM     22 CL   UNL     1       0.448   2.204  10.060  0.00  0.00    -0.083 Cl
ENDBRANCH  11  15
BRANCH   1  24
ATOM     23  N   UNL     1      -0.142  -2.190   2.094  0.00  0.00    -0.312 N 
ATOM     24  C   UNL     1       0.350  -1.141   2.784  0.00  0.00    +0.218 C 
ATOM     25  O   UNL     1       0.048  -0.011   2.466  0.00  0.00    -0.275 OA
ATOM     26  H   UNL     1       0.100  -3.094   2.348  0.00  0.00    +0.149 HD
BRANCH  23  28
ATOM     27  C   UNL     1      -0.218  -1.708  -0.302  0.00  0.00    +0.028 C 
ATOM     28  C   UNL     1      -1.042  -1.964   0.961  0.00  0.00    +0.074 C 
BRANCH  28  29
ATOM     29  C   UNL     1      -1.922  -3.198   0.754  0.00  0.00    +0.060 C 
BRANCH  29  30
ATOM     30  C   UNL     1      -2.823  -3.379   1.949  0.00  0.00    -0.004 A 
ATOM     31  C   UNL     1      -2.446  -4.221   2.978  0.00  0.00    +0.007 A 
ATOM     32  C   UNL     1      -3.272  -4.387   4.074  0.00  0.00    +0.000 A 
ATOM     33  C   UNL     1      -4.476  -3.712   4.144  0.00  0.00    +0.004 A 
ATOM     34  C   UNL     1      -4.858  -2.869   3.118  0.00  0.00    +0.046 A 
ATOM     35  C   UNL     1      -4.028  -2.696   2.019  0.00  0.00    +0.123 A 
BRANCH  35  36
ATOM     36  O   UNL     1      -4.398  -1.863   1.012  0.00  0.00    -0.495 OA
ATOM     37  C   UNL     1      -5.653  -1.193   1.152  0.00  0.00    +0.277 C 
ENDBRANCH  35  36
ENDBRANCH  29  30
ENDBRANCH  28  29
ENDBRANCH  23  28
ENDBRANCH   1  24
TORSDOF 6
