REMARK  Name = ZINC12420358
REMARK  12 active torsions:
REMARK  status: ('A' for Active; 'I' for Inactive)
REMARK    1  A    between atoms: C_3  and  O_9
REMARK    2  A    between atoms: O_9  and  C_10
REMARK    3  A    between atoms: C_10  and  C_11
REMARK    4  A    between atoms: C_11  and  C_13
REMARK    5  A    between atoms: C_11  and  O_20
REMARK    6  A    between atoms: C_13  and  N_39
REMARK    7  A    between atoms: C_14  and  C_15
REMARK    8  A    between atoms: C_14  and  N_39
REMARK    9  A    between atoms: C_15  and  O_16
REMARK   10  A    between atoms: C_17  and  C_18
REMARK   11  A    between atoms: C_17  and  N_39
REMARK   12  A    between atoms: C_18  and  O_19
REMARK                            x       y       z     vdW  Elec       q    Type
REMARK                         _______ _______ _______ _____ _____    ______ ____
ROOT
ATOM      1  C   UNL     1      -3.699  -0.944   0.088  0.00  0.00    +0.135 C 
ENDROOT
BRANCH   1   2
ATOM      2  O   UNL     1      -4.543  -0.473   1.141  0.00  0.00    -0.390 OA
ATOM      3  H   UNL     1      -4.254  -0.737   2.025  0.00  0.00    +0.210 HD
ENDBRANCH   1   2
BRANCH   1   4
ATOM      4  C   UNL     1      -2.285  -0.392   0.284  0.00  0.00    +0.258 C 
BRANCH   4   5
ATOM      5  O   UNL     1      -2.305   1.030   0.146  0.00  0.00    -0.488 OA
BRANCH   5   8
ATOM      6  C   UNL     1       1.240   1.628   0.705  0.00  0.00    +0.019 A 
ATOM      7  C   UNL     1       0.036   0.965   0.562  0.00  0.00    +0.048 A 
ATOM      8  C   UNL     1      -1.121   1.681   0.292  0.00  0.00    +0.135 A 
ATOM      9  C   UNL     1      -1.068   3.063   0.176  0.00  0.00    +0.061 A 
ATOM     10  C   UNL     1       0.138   3.722   0.320  0.00  0.00    +0.034 A 
ATOM     11  C   UNL     1       1.292   3.005   0.584  0.00  0.00    +0.019 A 
ATOM     12 BR   UNL     1       2.941   3.909   0.780  0.00  0.00    -0.050 Br
ATOM     13 BR   UNL     1      -2.644   4.043  -0.186  0.00  0.00    -0.046 Br
ENDBRANCH   5   8
ENDBRANCH   4   5
ENDBRANCH   1   4
BRANCH   1  14
ATOM     14  C   UNL     1      -3.658  -2.473   0.112  0.00  0.00    -0.044 C 
BRANCH  14  15
ATOM     15  N   UNL     1      -4.995  -2.989  -0.249  0.00  0.00    +0.384 N 
ATOM     16  H   UNL     1      -5.340  -2.476  -1.069  0.00  0.00    -0.082 HD
BRANCH  15  17
ATOM     17  C   UNL     1      -4.907  -4.426  -0.584  0.00  0.00    -0.050 C 
BRANCH  17  18
ATOM     18  C   UNL     1      -6.215  -4.856  -1.254  0.00  0.00    +0.137 C 
BRANCH  18  19
ATOM     19  O   UNL     1      -6.368  -4.157  -2.491  0.00  0.00    -0.397 OA
ATOM     20  H   UNL     1      -7.177  -4.380  -2.971  0.00  0.00    +0.209 HD
ENDBRANCH  18  19
ENDBRANCH  17  18
ENDBRANCH  15  17
BRANCH  15  21
ATOM     21  C   UNL     1      -5.934  -2.789   0.874  0.00  0.00    -0.050 C 
BRANCH  21  22
ATOM     22  C   UNL     1      -5.511  -3.626   2.083  0.00  0.00    +0.137 C 
BRANCH  22  23
ATOM     23  O   UNL     1      -4.318  -3.079   2.647  0.00  0.00    -0.397 OA
ATOM     24  H   UNL     1      -3.949  -3.603   3.372  0.00  0.00    +0.209 HD
ENDBRANCH  22  23
ENDBRANCH  21  22
ENDBRANCH  15  21
ENDBRANCH  14  15
ENDBRANCH   1  14
TORSDOF 12
