REMARK  Name = ZINC09136605
REMARK  4 active torsions:
REMARK  status: ('A' for Active; 'I' for Inactive)
REMARK    1  A    between atoms: C_4  and  C_7
REMARK    2  A    between atoms: C_7  and  C_9
REMARK    3  A    between atoms: C_11  and  C_33
REMARK    4  A    between atoms: C_33  and  C_35
REMARK                            x       y       z     vdW  Elec       q    Type
REMARK                         _______ _______ _______ _____ _____    ______ ____
ROOT
ATOM      1  C   UNL     1       2.101   5.941  -1.484  0.00  0.00    +0.140 C 
ATOM      2  C   UNL     1       2.445   5.600  -0.016  0.00  0.00    +0.108 C 
ATOM      3  C   UNL     1       3.755   6.357   0.268  0.00  0.00    +0.107 C 
ATOM      4  C   UNL     1       4.707   5.541   1.071  0.00  0.00    -0.008 A 
ATOM      5  C   UNL     1       5.450   4.413   0.787  0.00  0.00    +0.006 A 
ATOM      6  C   UNL     1       6.233   3.883   1.806  0.00  0.00    +0.000 A 
ATOM      7  C   UNL     1       6.280   4.465   3.056  0.00  0.00    +0.002 A 
ATOM      8  C   UNL     1       5.559   5.610   3.351  0.00  0.00    +0.023 A 
ATOM      9  C   UNL     1       4.776   6.154   2.333  0.00  0.00    +0.038 A 
ATOM     10  N   UNL     1       4.014   7.309   2.352  0.00  0.00    -0.284 N 
ATOM     11  C   UNL     1       3.436   7.547   1.159  0.00  0.00    +0.231 C 
ATOM     12  O   UNL     1       2.788   8.521   0.842  0.00  0.00    -0.274 OA
ATOM     13  C   UNL     1       4.283   6.843  -1.071  0.00  0.00    +0.107 C 
ATOM     14  C   UNL     1       3.635   6.391  -3.467  0.00  0.00    +0.054 C 
ATOM     15  C   UNL     1       4.923   6.227  -3.817  0.00  0.00    +0.022 C 
ATOM     16  C   UNL     1       5.945   6.056  -2.765  0.00  0.00    -0.019 A 
ATOM     17  C   UNL     1       5.665   6.381  -1.429  0.00  0.00    -0.020 A 
ATOM     18  C   UNL     1       6.680   6.323  -0.501  0.00  0.00    +0.006 A 
ATOM     19  C   UNL     1       7.927   5.832  -0.850  0.00  0.00    +0.000 A 
ATOM     20  C   UNL     1       8.181   5.430  -2.149  0.00  0.00    +0.001 A 
ATOM     21  C   UNL     1       7.200   5.550  -3.110  0.00  0.00    +0.008 A 
ATOM     22  H   UNL     1       3.909   7.875   3.133  0.00  0.00    +0.155 HD
ATOM     23  N   UNL     1       3.494   6.062  -1.997  0.00  0.00    -0.384 NA
ATOM     24  H   UNL     1       3.883   5.115  -1.925  0.00  0.00    +0.127 HD
ENDROOT
BRANCH   1  25
ATOM     25  C   UNL     1       1.062   7.033  -1.556  0.00  0.00    +0.183 C 
ATOM     26  O   UNL     1       1.397   8.174  -1.795  0.00  0.00    -0.290 OA
BRANCH  25  30
ATOM     27  C   UNL     1      -3.030   6.112  -0.923  0.00  0.00    +0.000 A 
ATOM     28  C   UNL     1      -2.638   7.429  -1.087  0.00  0.00    +0.001 A 
ATOM     29  C   UNL     1      -1.310   7.737  -1.293  0.00  0.00    +0.011 A 
ATOM     30  C   UNL     1      -0.357   6.713  -1.337  0.00  0.00    +0.019 A 
ATOM     31  C   UNL     1      -0.762   5.384  -1.176  0.00  0.00    +0.011 A 
ATOM     32  C   UNL     1      -2.093   5.093  -0.965  0.00  0.00    +0.001 A 
ENDBRANCH  25  30
ENDBRANCH   1  25
BRANCH   2  33
ATOM     33  C   UNL     1       2.578   4.113   0.179  0.00  0.00    +0.170 C 
ATOM     34  O   UNL     1       2.943   3.411  -0.739  0.00  0.00    -0.292 OA
BRANCH  33  35
ATOM     35  C   UNL     1       2.264   3.513   1.484  0.00  0.00    +0.018 A 
ATOM     36  C   UNL     1       2.280   2.122   1.640  0.00  0.00    +0.014 A 
ATOM     37  C   UNL     1       1.985   1.566   2.865  0.00  0.00    +0.039 A 
ATOM     38  C   UNL     1       1.665   2.380   3.941  0.00  0.00    +0.123 A 
ATOM     39  C   UNL     1       1.653   3.760   3.795  0.00  0.00    +0.039 A 
ATOM     40  C   UNL     1       1.946   4.329   2.575  0.00  0.00    +0.014 A 
ATOM     41  F   UNL     1       1.371   1.828   5.138  0.00  0.00    -0.205 F 
ENDBRANCH  33  35
ENDBRANCH   2  33
TORSDOF 4
