REMARK  Name = ZINC04748426
REMARK  5 active torsions:
REMARK  status: ('A' for Active; 'I' for Inactive)
REMARK    1  A    between atoms: C_5  and  N_15
REMARK    2  A    between atoms: C_9  and  S_11
REMARK    3  A    between atoms: S_11  and  N_14
REMARK    4  A    between atoms: N_16  and  C_17
REMARK    5  A    between atoms: C_26  and  S_27
REMARK                            x       y       z     vdW  Elec       q    Type
REMARK                         _______ _______ _______ _____ _____    ______ ____
ROOT
ATOM      1  C   UNL     1      -9.505   1.444  -1.280  0.00  0.00    +0.003 A 
ATOM      2  C   UNL     1      -8.331   2.133  -1.287  0.00  0.00    +0.009 A 
ATOM      3  C   UNL     1      -7.125   1.456  -1.029  0.00  0.00    -0.014 A 
ATOM      4  C   UNL     1      -5.899   2.136  -1.023  0.00  0.00    +0.038 A 
ATOM      5  C   UNL     1      -4.731   1.433  -0.769  0.00  0.00    +0.087 A 
ATOM      6  C   UNL     1      -4.772   0.049  -0.509  0.00  0.00    +0.030 A 
ATOM      7  C   UNL     1      -5.951  -0.623  -0.507  0.00  0.00    +0.012 A 
ATOM      8  C   UNL     1      -7.153   0.062  -0.766  0.00  0.00    +0.009 A 
ATOM      9  C   UNL     1      -8.384  -0.613  -0.768  0.00  0.00    +0.113 A 
ATOM     10  C   UNL     1      -9.532   0.076  -1.022  0.00  0.00    +0.029 A 
ENDROOT
BRANCH   9  11
ATOM     11  S   UNL     1      -8.444  -2.344  -0.444  0.00  0.00    +0.057 S 
ATOM     12  O   UNL     1      -7.674  -2.565   0.729  0.00  0.00    -0.153 OA
ATOM     13  O   UNL     1      -9.809  -2.728  -0.543  0.00  0.00    -0.153 OA
BRANCH  11  14
ATOM     14  N   UNL     1      -7.648  -3.102  -1.683  0.00  0.00    -0.203 NA
ATOM     15  H   UNL     1      -7.189  -3.941  -1.523  0.00  0.00    +0.144 HD
ATOM     16  H   UNL     1      -7.640  -2.706  -2.568  0.00  0.00    +0.144 HD
ENDBRANCH  11  14
ENDBRANCH   9  11
BRANCH   5  17
ATOM     17  N   UNL     1      -3.532   2.087  -0.767  0.00  0.00    -0.149 NA
ATOM     18  N   UNL     1      -2.444   1.438  -0.526  0.00  0.00    -0.149 NA
BRANCH  18  19
ATOM     19  C   UNL     1      -1.249   2.091  -0.524  0.00  0.00    +0.094 A 
ATOM     20  C   UNL     1      -1.185   3.459  -0.771  0.00  0.00    +0.030 A 
ATOM     21  C   UNL     1       0.035   4.119  -0.774  0.00  0.00    +0.003 A 
ATOM     22  C   UNL     1       1.205   3.467  -0.531  0.00  0.00    +0.010 A 
ATOM     23  C   UNL     1       1.217   2.087  -0.267  0.00  0.00    +0.012 A 
ATOM     24  C   UNL     1      -0.005   1.371  -0.254  0.00  0.00    +0.011 A 
ATOM     25  C   UNL     1       0.002  -0.004   0.010  0.00  0.00    +0.011 A 
ATOM     26  C   UNL     1       1.185  -0.637   0.252  0.00  0.00    +0.003 A 
ATOM     27  C   UNL     1       2.388   0.064   0.240  0.00  0.00    +0.030 A 
ATOM     28  C   UNL     1       2.417   1.402  -0.013  0.00  0.00    +0.127 A 
BRANCH  28  29
ATOM     29  S   UNL     1       3.952   2.268  -0.024  0.00  0.00    +0.140 S 
ATOM     30  O   UNL     1       3.676   3.587   0.426  0.00  0.00    -0.140 OA
ATOM     31  O   UNL     1       4.898   1.425   0.620  0.00  0.00    -0.140 OA
ATOM     32  O   UNL     1       4.391   2.386  -1.476  0.00  0.00    -0.043 OA
ENDBRANCH  28  29
ENDBRANCH  18  19
ENDBRANCH   5  17
TORSDOF 5
