REMARK  Name = ZINC54705974
REMARK  4 active torsions:
REMARK  status: ('A' for Active; 'I' for Inactive)
REMARK    1  A    between atoms: C_10  and  C_11
REMARK    2  A    between atoms: C_11  and  C_12
REMARK    3  A    between atoms: N_14  and  C_15
REMARK    4  A    between atoms: C_15  and  C_16
REMARK                            x       y       z     vdW  Elec       q    Type
REMARK                         _______ _______ _______ _____ _____    ______ ____
ROOT
ATOM      1  C   UNL     1       6.840   1.565   2.979  0.00  0.00    +0.200 C 
ENDROOT
BRANCH   1   2
ATOM      2  C   UNL     1       8.132   2.341   2.970  0.00  0.00    +0.233 C 
ATOM      3  O   UNL     1       8.689   2.579   1.919  0.00  0.00    -0.274 OA
ATOM      4  N   UNL     1       8.669   2.769   4.129  0.00  0.00    -0.300 N 
ATOM      5  C   UNL     1       8.008   2.482   5.410  0.00  0.00    +0.110 C 
ATOM      6  C   UNL     1       7.800   3.801   6.162  0.00  0.00    +0.054 C 
ATOM      7  C   UNL     1       9.132   4.534   6.277  0.00  0.00    +0.115 C 
ATOM      8  C   UNL     1       9.702   4.842   4.897  0.00  0.00    +0.054 C 
ATOM      9  C   UNL     1       9.928   3.526   4.135  0.00  0.00    +0.110 C 
ATOM     10  C   UNL     1       8.967   5.807   7.076  0.00  0.00    +0.244 C 
ATOM     11  O   UNL     1       8.265   6.758   6.804  0.00  0.00    -0.273 OA
ATOM     12  N   UNL     1       9.764   5.662   8.154  0.00  0.00    -0.238 N 
ATOM     13  C   UNL     1      10.400   4.484   8.142  0.00  0.00    +0.307 C 
ATOM     14  O   UNL     1      11.173   4.125   9.009  0.00  0.00    -0.252 OA
ATOM     15  N   UNL     1      10.088   3.743   7.063  0.00  0.00    -0.285 N 
ATOM     16  H   UNL     1       9.864   6.329   8.852  0.00  0.00    +0.159 HD
ATOM     17  H   UNL     1      10.427   2.860   6.846  0.00  0.00    +0.151 HD
ENDBRANCH   1   2
BRANCH   1  20
ATOM     18  C   UNL     1       5.341   0.519   1.367  0.00  0.00    +0.218 C 
ATOM     19  O   UNL     1       4.633   0.178   2.291  0.00  0.00    -0.275 OA
ATOM     20  N   UNL     1       6.469   1.218   1.605  0.00  0.00    -0.306 N 
ATOM     21  H   UNL     1       7.035   1.490   0.866  0.00  0.00    +0.149 HD
BRANCH  18  22
ATOM     22  C   UNL     1       4.960   0.161  -0.046  0.00  0.00    +0.131 C 
BRANCH  22  32
ATOM     23  C   UNL     1      -0.016   1.357   0.009  0.00  0.00    +0.001 A 
ATOM     24  C   UNL     1       1.169   2.091   0.002  0.00  0.00    +0.001 A 
ATOM     25  C   UNL     1       2.378   1.468  -0.013  0.00  0.00    +0.009 A 
ATOM     26  C   UNL     1       2.438   0.064  -0.021  0.00  0.00    -0.014 A 
ATOM     27  C   UNL     1       1.233  -0.683  -0.013  0.00  0.00    -0.018 A 
ATOM     28  C   UNL     1       0.002  -0.004   0.002  0.00  0.00    +0.008 A 
ATOM     29  C   UNL     1       1.292  -2.087  -0.021  0.00  0.00    +0.008 A 
ATOM     30  C   UNL     1       2.502  -2.709  -0.036  0.00  0.00    +0.001 A 
ATOM     31  C   UNL     1       3.687  -1.976  -0.043  0.00  0.00    +0.005 A 
ATOM     32  C   UNL     1       3.668  -0.615  -0.037  0.00  0.00    -0.031 A 
ENDBRANCH  22  32
ENDBRANCH  18  22
ENDBRANCH   1  20
TORSDOF 4
