REMARK  Name = ZINC63869583
REMARK  9 active torsions:
REMARK  status: ('A' for Active; 'I' for Inactive)
REMARK    1  A    between atoms: C_1  and  N_2
REMARK    2  A    between atoms: N_2  and  C_3
REMARK    3  A    between atoms: N_2  and  S_4
REMARK    4  A    between atoms: S_4  and  C_7
REMARK    5  A    between atoms: C_11  and  N_13
REMARK    6  A    between atoms: C_14  and  C_16
REMARK    7  A    between atoms: C_16  and  N_17
REMARK    8  A    between atoms: C_20  and  C_25
REMARK    9  A    between atoms: C_25  and  C_26
REMARK                            x       y       z     vdW  Elec       q    Type
REMARK                         _______ _______ _______ _____ _____    ______ ____
ROOT
ATOM      1  N   UNL     1       7.664  -5.046  -2.150  0.00  0.00    -0.216 N 
ATOM      2  C   UNL     1       7.944  -5.515  -3.382  0.00  0.00    +0.244 C 
ATOM      3  O   UNL     1       7.165  -5.995  -4.178  0.00  0.00    -0.273 OA
ATOM      4  C   UNL     1       9.436  -5.317  -3.567  0.00  0.00    +0.165 C 
ATOM      5  N   UNL     1       9.863  -4.702  -2.299  0.00  0.00    -0.287 N 
ATOM      6  C   UNL     1       8.759  -4.579  -1.539  0.00  0.00    +0.310 C 
ATOM      7  O   UNL     1       8.758  -4.101  -0.422  0.00  0.00    -0.252 OA
ATOM      8  H   UNL     1      10.764  -4.434  -2.059  0.00  0.00    +0.151 HD
ENDROOT
BRANCH   1   9
ATOM      9  C   UNL     1       6.325  -5.041  -1.556  0.00  0.00    +0.214 C 
BRANCH   9  11
ATOM     10  N   UNL     1       4.373  -3.525  -1.462  0.00  0.00    -0.284 N 
ATOM     11  C   UNL     1       5.626  -3.752  -1.904  0.00  0.00    +0.235 C 
ATOM     12  O   UNL     1       6.190  -2.920  -2.581  0.00  0.00    -0.274 OA
ATOM     13  H   UNL     1       3.950  -4.155  -0.858  0.00  0.00    +0.155 HD
BRANCH  10  18
ATOM     14  C   UNL     1       2.109  -0.629  -1.423  0.00  0.00    +0.107 A 
ATOM     15  C   UNL     1       2.317  -0.117  -2.691  0.00  0.00    +0.028 A 
ATOM     16  C   UNL     1       3.205  -0.734  -3.551  0.00  0.00    +0.004 A 
ATOM     17  C   UNL     1       3.889  -1.864  -3.147  0.00  0.00    +0.023 A 
ATOM     18  C   UNL     1       3.683  -2.380  -1.874  0.00  0.00    +0.035 A 
ATOM     19  C   UNL     1       2.793  -1.755  -1.010  0.00  0.00    +0.051 A 
BRANCH  14  20
ATOM     20  S   UNL     1       0.975   0.162  -0.329  0.00  0.00    +0.060 S 
ATOM     21  O   UNL     1       0.557  -0.824   0.605  0.00  0.00    -0.153 OA
ATOM     22  O   UNL     1       0.057   0.877  -1.144  0.00  0.00    -0.153 OA
BRANCH  20  24
ATOM     23  C   UNL     1       1.951   2.660   0.015  0.00  0.00    +0.131 C 
ATOM     24  N   UNL     1       1.829   1.293   0.527  0.00  0.00    -0.183 NA
ATOM     25  C   UNL     1       2.461   0.927   1.797  0.00  0.00    +0.131 C 
ENDBRANCH  20  24
ENDBRANCH  14  20
ENDBRANCH  10  18
ENDBRANCH   9  11
ENDBRANCH   1   9
BRANCH   4  26
ATOM     26  C   UNL     1      10.135  -6.662  -3.779  0.00  0.00    +0.065 C 
BRANCH  26  27
ATOM     27  C   UNL     1      11.593  -6.428  -4.081  0.00  0.00    -0.039 C 
ATOM     28  C   UNL     1      12.619  -6.448  -3.201  0.00  0.00    -0.001 A 
ATOM     29  C   UNL     1      12.683  -6.684  -1.753  0.00  0.00    +0.010 A 
ATOM     30  C   UNL     1      13.885  -6.638  -1.134  0.00  0.00    +0.001 A 
ATOM     31  C   UNL     1      15.067  -6.370  -1.837  0.00  0.00    +0.002 A 
ATOM     32  C   UNL     1      15.088  -6.143  -3.168  0.00  0.00    +0.026 A 
ATOM     33  C   UNL     1      13.882  -6.168  -3.921  0.00  0.00    +0.043 A 
ATOM     34  N   UNL     1      13.646  -5.982  -5.197  0.00  0.00    -0.380 N 
ATOM     35  C   UNL     1      12.205  -6.129  -5.431  0.00  0.00    +0.144 C 
ATOM     36  H   UNL     1      14.312  -5.784  -5.873  0.00  0.00    +0.160 HD
ENDBRANCH  26  27
ENDBRANCH   4  26
TORSDOF 7
