REMARK  Name = ZINC36038458
REMARK  9 active torsions:
REMARK  status: ('A' for Active; 'I' for Inactive)
REMARK    1  A    between atoms: C_1  and  C_2
REMARK    2  A    between atoms: C_2  and  C_3
REMARK    3  A    between atoms: C_2  and  C_4
REMARK    4  A    between atoms: C_4  and  C_5
REMARK    5  A    between atoms: N_9  and  C_30
REMARK    6  A    between atoms: N_14  and  S_17
REMARK    7  A    between atoms: S_17  and  C_20
REMARK    8  A    between atoms: C_24  and  C_26
REMARK    9  A    between atoms: C_30  and  C_31
REMARK                            x       y       z     vdW  Elec       q    Type
REMARK                         _______ _______ _______ _____ _____    ______ ____
ROOT
ATOM      1  C   UNL     1      -2.042  -0.366  -1.426  0.00  0.00    +0.019 C 
ATOM      2  C   UNL     1      -3.443  -0.936  -1.486  0.00  0.00    +0.200 C 
ATOM      3  O   UNL     1      -3.763  -2.063  -1.172  0.00  0.00    -0.277 OA
ATOM      4  N   UNL     1      -4.275   0.020  -1.946  0.00  0.00    -0.313 N 
ATOM      5  C   UNL     1      -3.513   1.242  -2.220  0.00  0.00    +0.006 C 
ATOM      6  N   UNL     1      -2.226   1.104  -1.502  0.00  0.00    +0.401 N 
ATOM      7  C   UNL     1      -3.254   1.378  -3.719  0.00  0.00    +0.023 C 
ATOM      8  C   UNL     1      -4.592   1.480  -4.459  0.00  0.00    +0.109 C 
ATOM      9  N   UNL     1      -5.374   2.575  -3.871  0.00  0.00    -0.177 NA
ATOM     10  C   UNL     1      -5.615   2.574  -2.421  0.00  0.00    +0.109 C 
ATOM     11  C   UNL     1      -4.268   2.463  -1.698  0.00  0.00    +0.023 C 
ATOM     12  H   UNL     1      -2.289   1.504  -0.578  0.00  0.00    -0.082 HD
ATOM     13  H   UNL     1      -1.477   1.530  -2.026  0.00  0.00    -0.082 HD
ENDROOT
BRANCH   9  14
ATOM     14  S   UNL     1      -5.974   3.789  -4.824  0.00  0.00    +0.061 S 
ATOM     15  O   UNL     1      -6.163   4.915  -3.977  0.00  0.00    -0.153 OA
ATOM     16  O   UNL     1      -5.155   3.837  -5.984  0.00  0.00    -0.153 OA
BRANCH  14  17
ATOM     17  C   UNL     1      -7.576   3.288  -5.359  0.00  0.00    +0.106 A 
ATOM     18  C   UNL     1      -7.720   2.568  -6.531  0.00  0.00    +0.028 A 
ATOM     19  C   UNL     1      -8.977   2.175  -6.951  0.00  0.00    +0.002 A 
ATOM     20  C   UNL     1     -10.090   2.501  -6.199  0.00  0.00    +0.012 A 
ATOM     21  C   UNL     1      -9.947   3.220  -5.027  0.00  0.00    +0.057 A 
ATOM     22  C   UNL     1      -8.689   3.609  -4.605  0.00  0.00    +0.041 A 
BRANCH  21  23
ATOM     23  C   UNL     1     -11.160   3.575  -4.208  0.00  0.00    +0.417 C 
ATOM     24  F   UNL     1     -12.307   3.073  -4.832  0.00  0.00    -0.166 F 
ATOM     25  F   UNL     1     -11.041   3.016  -2.931  0.00  0.00    -0.166 F 
ATOM     26  F   UNL     1     -11.259   4.966  -4.100  0.00  0.00    -0.166 F 
ENDBRANCH  21  23
ENDBRANCH  14  17
ENDBRANCH   9  14
BRANCH   1  27
ATOM     27  C   UNL     1      -1.366  -0.750  -0.108  0.00  0.00    -0.004 C 
BRANCH  27  29
ATOM     28  C   UNL     1       0.676  -0.435   1.297  0.00  0.00    +0.007 C 
ATOM     29  C   UNL     1       0.050  -0.171  -0.074  0.00  0.00    -0.018 C 
ATOM     30  C   UNL     1       0.899  -0.835  -1.159  0.00  0.00    +0.007 C 
ENDBRANCH  27  29
ENDBRANCH   1  27
BRANCH   4  31
ATOM     31  C   UNL     1      -5.718  -0.138  -2.143  0.00  0.00    +0.109 C 
BRANCH  31  32
ATOM     32  C   UNL     1      -6.453   0.236  -0.855  0.00  0.00    +0.006 C 
ATOM     33  C   UNL     1      -7.245  -0.865  -0.148  0.00  0.00    +0.005 C 
ATOM     34  C   UNL     1      -7.983   0.249  -0.892  0.00  0.00    +0.005 C 
ENDBRANCH  31  32
ENDBRANCH   4  31
TORSDOF 7
