REMARK  Name = ZINC39664002
REMARK  10 active torsions:
REMARK  status: ('A' for Active; 'I' for Inactive)
REMARK    1  A    between atoms: C_1  and  C_2
REMARK    2  A    between atoms: C_2  and  C_3
REMARK    3  A    between atoms: C_2  and  C_4
REMARK    4  A    between atoms: C_8  and  C_17
REMARK    5  A    between atoms: N_19  and  C_20
REMARK    6  A    between atoms: C_20  and  C_21
REMARK    7  A    between atoms: C_21  and  C_23
REMARK    8  A    between atoms: C_21  and  N_31
REMARK    9  A    between atoms: C_26  and  O_29
REMARK   10  A    between atoms: O_29  and  C_30
REMARK                            x       y       z     vdW  Elec       q    Type
REMARK                         _______ _______ _______ _____ _____    ______ ____
ROOT
ATOM      1  C   UNL     1      -0.642  -4.372   2.054  0.00  0.00    +0.218 C 
ATOM      2  O   UNL     1      -1.343  -4.341   3.043  0.00  0.00    -0.275 OA
ATOM      3  N   UNL     1       0.691  -4.523   2.176  0.00  0.00    -0.316 N 
ATOM      4  H   UNL     1       1.259  -4.478   1.391  0.00  0.00    +0.149 HD
ENDROOT
BRANCH   1   9
ATOM      5  C   UNL     1      -4.754  -4.391   1.642  0.00  0.00    +0.218 C 
ATOM      6  O   UNL     1      -5.020  -3.382   2.260  0.00  0.00    -0.275 OA
ATOM      7  N   UNL     1      -3.644  -4.442   0.879  0.00  0.00    -0.300 N 
ATOM      8  C   UNL     1      -2.572  -3.424   0.766  0.00  0.00    +0.121 C 
ATOM      9  C   UNL     1      -1.264  -4.242   0.687  0.00  0.00    +0.100 C 
ATOM     10  C   UNL     1      -1.694  -5.621   0.158  0.00  0.00    -0.004 C 
ATOM     11  C   UNL     1      -3.215  -5.531  -0.031  0.00  0.00    +0.115 C 
ATOM     12  C   UNL     1      -1.359  -6.706   1.177  0.00  0.00    -0.010 C 
ATOM     13  C   UNL     1      -1.744  -8.073   0.605  0.00  0.00    -0.082 C 
ATOM     14  N   UNL     1      -1.012  -8.305  -0.646  0.00  0.00    +0.379 N 
ATOM     15  C   UNL     1      -1.411  -7.312  -1.651  0.00  0.00    -0.082 C 
ATOM     16  C   UNL     1      -1.012  -5.913  -1.174  0.00  0.00    -0.010 C 
ATOM     17  H   UNL     1      -0.021  -8.229  -0.474  0.00  0.00    -0.086 HD
ATOM     18  H   UNL     1      -1.221  -9.231  -0.989  0.00  0.00    -0.086 HD
BRANCH   5  20
ATOM     19  C   UNL     1      -6.731  -5.343   2.797  0.00  0.00    +0.017 C 
ATOM     20  C   UNL     1      -5.664  -5.589   1.728  0.00  0.00    +0.069 C 
ATOM     21  C   UNL     1      -6.341  -5.813   0.374  0.00  0.00    +0.017 C 
ENDBRANCH   5  20
ENDBRANCH   1   9
BRANCH   3  22
ATOM     22  C   UNL     1       1.284  -4.756   3.495  0.00  0.00    +0.093 C 
BRANCH  22  23
ATOM     23  C   UNL     1       2.808  -4.789   3.371  0.00  0.00    -0.020 C 
BRANCH  23  24
ATOM     24  C   UNL     1       3.216  -5.947   2.497  0.00  0.00    -0.059 A 
ATOM     25  C   UNL     1       3.260  -7.226   3.021  0.00  0.00    +0.005 A 
ATOM     26  C   UNL     1       3.634  -8.288   2.221  0.00  0.00    +0.046 A 
ATOM     27  C   UNL     1       3.965  -8.072   0.892  0.00  0.00    +0.120 A 
ATOM     28  C   UNL     1       3.920  -6.788   0.368  0.00  0.00    +0.046 A 
ATOM     29  C   UNL     1       3.540  -5.729   1.170  0.00  0.00    +0.005 A 
BRANCH  27  30
ATOM     30  O   UNL     1       4.333  -9.116   0.103  0.00  0.00    -0.495 OA
ATOM     31  C   UNL     1       4.660  -8.819  -1.256  0.00  0.00    +0.277 C 
ENDBRANCH  27  30
ENDBRANCH  23  24
BRANCH  23  32
ATOM     32  N   UNL     1       3.405  -4.948   4.704  0.00  0.00    +0.385 N 
ATOM     33  C   UNL     1       4.887  -4.958   4.604  0.00  0.00    -0.078 C 
ATOM     34  C   UNL     1       5.342  -4.564   6.031  0.00  0.00    -0.020 C 
ATOM     35  C   UNL     1       4.289  -3.513   6.452  0.00  0.00    -0.020 C 
ATOM     36  C   UNL     1       3.067  -3.788   5.556  0.00  0.00    -0.078 C 
ATOM     37  H   UNL     1       3.079  -5.801   5.132  0.00  0.00    -0.081 HD
ENDBRANCH  23  32
ENDBRANCH  22  23
ENDBRANCH   3  22
TORSDOF 7
