REMARK  Name = ZINC10240504
REMARK  8 active torsions:
REMARK  status: ('A' for Active; 'I' for Inactive)
REMARK    1  A    between atoms: C_1  and  C_2
REMARK    2  A    between atoms: C_5  and  N_8
REMARK    3  A    between atoms: C_9  and  C_26
REMARK    4  A    between atoms: C_12  and  S_13
REMARK    5  A    between atoms: S_13  and  C_14
REMARK    6  A    between atoms: C_14  and  C_15
REMARK    7  A    between atoms: N_17  and  C_18
REMARK    8  A    between atoms: C_18  and  C_25
REMARK                            x       y       z     vdW  Elec       q    Type
REMARK                         _______ _______ _______ _____ _____    ______ ____
ROOT
ATOM      1  N   UNL     1      -0.008   1.398   0.048  0.00  0.00    -0.270 N 
ATOM      2  C   UNL     1      -1.113   2.212   0.176  0.00  0.00    +0.169 A 
ATOM      3  N   UNL     1      -0.690   3.451   0.083  0.00  0.00    -0.128 NA
ATOM      4  N   UNL     1       0.582   3.470  -0.101  0.00  0.00    -0.122 NA
ATOM      5  C   UNL     1       1.053   2.244  -0.131  0.00  0.00    +0.197 A 
ENDROOT
BRANCH   1  10
ATOM      6  C   UNL     1       0.114  -4.274   0.206  0.00  0.00    +0.044 C 
ATOM      7  C   UNL     1       0.081  -2.768   0.164  0.00  0.00    -0.050 A 
ATOM      8  C   UNL     1       0.664  -2.037   1.183  0.00  0.00    +0.005 A 
ATOM      9  C   UNL     1       0.636  -0.656   1.147  0.00  0.00    +0.026 A 
ATOM     10  C   UNL     1       0.022  -0.003   0.087  0.00  0.00    +0.051 A 
ATOM     11  C   UNL     1      -0.568  -0.740  -0.931  0.00  0.00    +0.026 A 
ATOM     12  C   UNL     1      -0.532  -2.120  -0.892  0.00  0.00    +0.005 A 
ENDBRANCH   1  10
BRANCH   2  13
ATOM     13  C   UNL     1      -2.509   1.772   0.383  0.00  0.00    +0.020 A 
ATOM     14  C   UNL     1      -2.777   0.476   0.827  0.00  0.00    +0.013 A 
ATOM     15  C   UNL     1      -4.081   0.073   1.023  0.00  0.00    +0.021 A 
ATOM     16  C   UNL     1      -5.124   0.948   0.769  0.00  0.00    +0.041 A 
ATOM     17  C   UNL     1      -4.865   2.233   0.323  0.00  0.00    +0.021 A 
ATOM     18  C   UNL     1      -3.564   2.649   0.128  0.00  0.00    +0.013 A 
ATOM     19 CL   UNL     1      -6.764   0.431   1.010  0.00  0.00    -0.084 Cl
ENDBRANCH   2  13
BRANCH   5  20
ATOM     20  S   UNL     1       2.736   1.776  -0.358  0.00  0.00    -0.076 S 
BRANCH  20  21
ATOM     21  C   UNL     1       3.498   3.410  -0.518  0.00  0.00    +0.173 C 
BRANCH  21  22
ATOM     22  C   UNL     1       4.982   3.254  -0.727  0.00  0.00    +0.224 C 
ATOM     23  O   UNL     1       5.476   2.147  -0.764  0.00  0.00    -0.275 OA
ATOM     24  N   UNL     1       5.760   4.345  -0.873  0.00  0.00    -0.308 N 
ATOM     25  H   UNL     1       5.365   5.230  -0.844  0.00  0.00    +0.149 HD
BRANCH  24  26
ATOM     26  C   UNL     1       7.203   4.193  -1.076  0.00  0.00    +0.052 C 
ATOM     27  C   UNL     1       7.848   5.583  -1.212  0.00  0.00    +0.049 C 
ATOM     28  C   UNL     1       7.855   6.253   0.192  0.00  0.00    +0.168 C 
ATOM     29  S   UNL     1       8.315   4.815   1.249  0.00  0.00    -0.029 S 
ATOM     30  O   UNL     1       9.726   4.791   1.409  0.00  0.00    -0.174 OA
ATOM     31  O   UNL     1       7.480   4.802   2.399  0.00  0.00    -0.174 OA
ATOM     32  C   UNL     1       7.816   3.443   0.131  0.00  0.00    +0.191 C 
ATOM     33  C   UNL     1       7.455   3.389  -2.353  0.00  0.00    +0.033 C 
ENDBRANCH  24  26
ENDBRANCH  21  22
ENDBRANCH  20  21
ENDBRANCH   5  20
TORSDOF 6
