REMARK  Name = ZINC35671305
REMARK  15 active torsions:
REMARK  status: ('A' for Active; 'I' for Inactive)
REMARK    1  A    between atoms: C_1  and  C_2
REMARK    2  A    between atoms: C_2  and  C_3
REMARK    3  A    between atoms: C_2  and  C_4
REMARK    4  A    between atoms: C_2  and  C_5
REMARK    5  A    between atoms: C_8  and  C_11
REMARK    6  A    between atoms: C_11  and  C_13
REMARK    7  A    between atoms: C_11  and  N_31
REMARK    8  A    between atoms: C_13  and  N_14
REMARK    9  A    between atoms: N_14  and  C_15
REMARK   10  A    between atoms: C_16  and  C_29
REMARK   11  A    between atoms: C_18  and  C_20
REMARK   12  A    between atoms: C_20  and  O_21
REMARK   13  A    between atoms: O_21  and  C_22
REMARK   14  A    between atoms: N_31  and  C_32
REMARK   15  A    between atoms: N_31  and  C_33
REMARK                            x       y       z     vdW  Elec       q    Type
REMARK                         _______ _______ _______ _____ _____    ______ ____
ROOT
ATOM      1  N   UNL     1       0.983  -1.087  -6.056  0.00  0.00    -0.314 N 
ATOM      2  H   UNL     1       0.378  -1.708  -5.622  0.00  0.00    +0.149 HD
ENDROOT
BRANCH   1   3
ATOM      3  C   UNL     1       0.517  -0.252  -7.050  0.00  0.00    +0.225 A 
ATOM      4  C   UNL     1      -0.779  -0.181  -7.532  0.00  0.00    +0.201 A 
ATOM      5  N   UNL     1      -0.784   0.775  -8.505  0.00  0.00    -0.198 NA
ATOM      6  C   UNL     1       0.415   1.259  -8.617  0.00  0.00    +0.237 A 
ATOM      7  O   UNL     1       1.233   0.656  -7.739  0.00  0.00    -0.421 OA
BRANCH   4   8
ATOM      8  C   UNL     1      -1.897  -0.960  -7.095  0.00  0.00    +0.124 C 
ATOM      9  N   UNL     1      -2.784  -1.579  -6.747  0.00  0.00    -0.189 NA
ENDBRANCH   4   8
BRANCH   6  10
ATOM     10  C   UNL     1       0.826   2.339  -9.585  0.00  0.00    +0.324 C 
BRANCH  10  11
ATOM     11  O   UNL     1       0.665   3.618  -8.967  0.00  0.00    -0.483 OA
BRANCH  11  12
ATOM     12  C   UNL     1       0.995   4.707  -9.710  0.00  0.00    +0.121 A 
ATOM     13  C   UNL     1       1.458   4.549 -11.008  0.00  0.00    +0.047 A 
ATOM     14  C   UNL     1       1.792   5.657 -11.761  0.00  0.00    +0.023 A 
ATOM     15  C   UNL     1       1.666   6.925 -11.222  0.00  0.00    +0.041 A 
ATOM     16  C   UNL     1       1.205   7.085  -9.927  0.00  0.00    +0.023 A 
ATOM     17  C   UNL     1       0.863   5.979  -9.173  0.00  0.00    +0.047 A 
ATOM     18 CL   UNL     1       2.087   8.317 -12.170  0.00  0.00    -0.084 Cl
ENDBRANCH  11  12
ENDBRANCH  10  11
ENDBRANCH   6  10
ENDBRANCH   1   3
BRANCH   1  19
ATOM     19  C   UNL     1       2.391  -1.034  -5.655  0.00  0.00    +0.094 C 
BRANCH  19  20
ATOM     20  C   UNL     1       2.665  -2.120  -4.612  0.00  0.00    -0.021 C 
BRANCH  20  24
ATOM     21  C   UNL     1       0.415  -1.302  -1.075  0.00  0.00    -0.042 A 
ATOM     22  C   UNL     1      -0.042  -2.239  -1.983  0.00  0.00    +0.004 A 
ATOM     23  C   UNL     1       0.686  -2.503  -3.128  0.00  0.00    +0.002 A 
ATOM     24  C   UNL     1       1.871  -1.831  -3.365  0.00  0.00    -0.059 A 
ATOM     25  C   UNL     1       2.327  -0.893  -2.457  0.00  0.00    +0.002 A 
ATOM     26  C   UNL     1       1.596  -0.625  -1.314  0.00  0.00    +0.004 A 
BRANCH  21  28
ATOM     27  C   UNL     1      -0.787   0.461   0.188  0.00  0.00    +0.015 C 
ATOM     28  C   UNL     1      -0.379  -1.013   0.173  0.00  0.00    -0.013 C 
ATOM     29  C   UNL     1       0.477  -1.318   1.404  0.00  0.00    +0.015 C 
ATOM     30  C   UNL     1      -1.633  -1.890   0.194  0.00  0.00    +0.015 C 
ENDBRANCH  21  28
ENDBRANCH  20  24
BRANCH  20  31
ATOM     31  N   UNL     1       4.098  -2.137  -4.288  0.00  0.00    +0.382 N 
ATOM     32  C   UNL     1       4.354  -3.149  -3.254  0.00  0.00    -0.096 C 
ATOM     33  C   UNL     1       4.869  -2.463  -5.495  0.00  0.00    -0.096 C 
ATOM     34  H   UNL     1       4.376  -1.229  -3.946  0.00  0.00    -0.082 HD
ENDBRANCH  20  31
ENDBRANCH  19  20
ENDBRANCH   1  19
TORSDOF 10
