REMARK  Name = ZINC09609863
REMARK  10 active torsions:
REMARK  status: ('A' for Active; 'I' for Inactive)
REMARK    1  A    between atoms: C_1  and  C_2
REMARK    2  A    between atoms: C_3  and  C_19
REMARK    3  A    between atoms: C_4  and  C_18
REMARK    4  A    between atoms: C_8  and  C_12
REMARK    5  A    between atoms: C_9  and  C_11
REMARK    6  A    between atoms: C_19  and  C_20
REMARK    7  A    between atoms: C_20  and  C_21
REMARK    8  A    between atoms: N_23  and  C_24
REMARK    9  A    between atoms: C_24  and  C_25
REMARK   10  A    between atoms: C_30  and  N_71
REMARK                            x       y       z     vdW  Elec       q    Type
REMARK                         _______ _______ _______ _____ _____    ______ ____
ROOT
ATOM      1  C   UNL     1      -2.407  -0.332  -6.080  0.00  0.00    +0.066 C 
ATOM      2  C   UNL     1      -2.033   0.997  -6.685  0.00  0.00    +0.045 A 
ATOM      3  C   UNL     1      -1.010   1.763  -6.110  0.00  0.00    -0.005 A 
ATOM      4  C   UNL     1      -0.678   2.955  -6.665  0.00  0.00    +0.047 A 
ATOM      5  N   UNL     1      -1.353   3.384  -7.771  0.00  0.00    -0.218 N 
ATOM      6  C   UNL     1      -2.352   2.609  -8.300  0.00  0.00    +0.164 A 
ATOM      7  N   UNL     1      -2.672   1.436  -7.745  0.00  0.00    -0.232 NA
ATOM      8  C   UNL     1      -2.853   3.299  -9.412  0.00  0.00    +0.049 A 
ATOM      9  C   UNL     1      -2.128   4.490  -9.521  0.00  0.00    +0.070 A 
ATOM     10  N   UNL     1      -1.245   4.539  -8.553  0.00  0.00    -0.169 NA
ATOM     11  C   UNL     1      -2.331   5.546 -10.577  0.00  0.00    +0.068 C 
ATOM     12  C   UNL     1       0.423   3.795  -6.069  0.00  0.00    +0.066 C 
ENDROOT
BRANCH   8  13
ATOM     13  C   UNL     1      -3.947   2.851 -10.305  0.00  0.00    -0.013 A 
ATOM     14  C   UNL     1      -3.783   1.714 -11.096  0.00  0.00    +0.009 A 
ATOM     15  C   UNL     1      -4.807   1.298 -11.922  0.00  0.00    +0.001 A 
ATOM     16  C   UNL     1      -5.990   2.014 -11.975  0.00  0.00    +0.000 A 
ATOM     17  C   UNL     1      -6.157   3.145 -11.196  0.00  0.00    +0.001 A 
ATOM     18  C   UNL     1      -5.142   3.567 -10.362  0.00  0.00    +0.009 A 
ENDBRANCH   8  13
BRANCH   3  19
ATOM     19  C   UNL     1      -0.281   1.264  -4.889  0.00  0.00    +0.048 C 
BRANCH  19  20
ATOM     20  C   UNL     1      -0.997   1.758  -3.630  0.00  0.00    +0.100 C 
BRANCH  20  21
ATOM     21  C   UNL     1      -0.268   1.258  -2.409  0.00  0.00    +0.213 C 
ATOM     22  O   UNL     1       0.726   0.575  -2.534  0.00  0.00    -0.276 OA
ATOM     23  N   UNL     1      -0.721   1.571  -1.179  0.00  0.00    -0.315 N 
ATOM     24  H   UNL     1      -1.516   2.118  -1.079  0.00  0.00    +0.149 HD
BRANCH  23  25
ATOM     25  C   UNL     1      -0.013   1.086   0.008  0.00  0.00    +0.105 C 
BRANCH  25  26
ATOM     26  C   UNL     1      -0.729   1.579   1.267  0.00  0.00    -0.012 C 
ATOM     27  C   UNL     1      -2.078   0.838   1.456  0.00  0.00    -0.015 C 
ATOM     28  C   UNL     1      -2.277   0.937   2.989  0.00  0.00    -0.078 C 
ATOM     29  C   UNL     1       0.063   1.190   2.533  0.00  0.00    -0.074 C 
ATOM     30  N   UNL     1      -0.923   0.773   3.547  0.00  0.00    +0.382 N 
ATOM     31  H   UNL     1      -0.770  -0.214   3.784  0.00  0.00    -0.081 HD
BRANCH  30  32
ATOM     32  C   UNL     1      -0.768   1.596   4.775  0.00  0.00    -0.069 C 
ATOM     33  C   UNL     1       0.629   1.369   5.389  0.00  0.00    -0.015 C 
ATOM     34  C   UNL     1       0.380   1.391   6.918  0.00  0.00    -0.002 C 
ATOM     35  C   UNL     1      -0.982   0.665   7.054  0.00  0.00    -0.002 C 
ATOM     36  C   UNL     1      -1.792   1.149   5.834  0.00  0.00    -0.015 C 
ENDBRANCH  30  32
ENDBRANCH  25  26
ENDBRANCH  23  25
ENDBRANCH  20  21
ENDBRANCH  19  20
ENDBRANCH   3  19
TORSDOF 7
