REMARK  Name = ZINC56324321
REMARK  6 active torsions:
REMARK  status: ('A' for Active; 'I' for Inactive)
REMARK    1  A    between atoms: C_1  and  C_2
REMARK    2  A    between atoms: C_2  and  C_4
REMARK    3  A    between atoms: C_2  and  N_16
REMARK    4  A    between atoms: N_6  and  N_7
REMARK    5  A    between atoms: C_8  and  C_10
REMARK    6  A    between atoms: C_17  and  C_19
REMARK                            x       y       z     vdW  Elec       q    Type
REMARK                         _______ _______ _______ _____ _____    ______ ____
ROOT
ATOM      1  C   UNL     1       0.707  -0.490  -1.238  0.00  0.00    +0.249 C 
ATOM      2  O   UNL     1       0.120  -1.191  -2.034  0.00  0.00    -0.272 OA
ATOM      3  N   UNL     1       1.991  -0.146  -1.462  0.00  0.00    -0.233 N 
ATOM      4  H   UNL     1       2.461   0.415  -0.825  0.00  0.00    +0.173 HD
ENDROOT
BRANCH   3   5
ATOM      5  N   UNL     1       2.647  -0.598  -2.614  0.00  0.00    -0.229 N 
ATOM      6  C   UNL     1       3.931  -0.253  -2.838  0.00  0.00    +0.280 C 
ATOM      7  O   UNL     1       4.519   0.449  -2.040  0.00  0.00    -0.267 OA
ATOM      8  H   UNL     1       2.177  -1.158  -3.251  0.00  0.00    +0.173 HD
BRANCH   6   9
ATOM      9  C   UNL     1       4.624  -0.731  -4.057  0.00  0.00    +0.145 A 
ATOM     10  C   UNL     1       5.954  -0.381  -4.287  0.00  0.00    +0.143 A 
ATOM     11  N   UNL     1       6.568  -0.810  -5.375  0.00  0.00    -0.259 NA
ATOM     12  C   UNL     1       5.923  -1.569  -6.244  0.00  0.00    +0.130 A 
ATOM     13  C   UNL     1       4.600  -1.919  -6.017  0.00  0.00    +0.131 A 
ATOM     14  N   UNL     1       3.982  -1.500  -4.932  0.00  0.00    -0.247 NA
ENDBRANCH   6   9
ENDBRANCH   3   5
BRANCH   1  16
ATOM     15  C   UNL     1      -0.019   1.526   0.010  0.00  0.00    +0.038 C 
ATOM     16  C   UNL     1       0.002  -0.004   0.002  0.00  0.00    +0.158 C 
BRANCH  16  17
ATOM     17  N   UNL     1      -1.372  -0.511   0.012  0.00  0.00    -0.300 N 
ATOM     18  C   UNL     1      -2.029  -0.655   1.181  0.00  0.00    +0.251 C 
ATOM     19  O   UNL     1      -1.480  -0.364   2.227  0.00  0.00    -0.270 OA
ATOM     20  H   UNL     1      -1.810  -0.743  -0.822  0.00  0.00    +0.150 HD
BRANCH  18  21
ATOM     21  C   UNL     1      -3.403  -1.162   1.191  0.00  0.00    +0.075 A 
ATOM     22  C   UNL     1      -4.247  -1.377   2.270  0.00  0.00    +0.022 A 
ATOM     23  C   UNL     1      -5.494  -1.866   1.965  0.00  0.00    +0.024 A 
ATOM     24  C   UNL     1      -5.811  -2.099   0.666  0.00  0.00    +0.056 A 
ATOM     25  S   UNL     1      -4.429  -1.656  -0.181  0.00  0.00    -0.077 S 
ATOM     26 BR   UNL     1      -7.438  -2.764  -0.033  0.00  0.00    -0.043 Br
ENDBRANCH  18  21
ENDBRANCH  16  17
ENDBRANCH   1  16
TORSDOF 5
