REMARK  Name = ZINC40155282
REMARK  9 active torsions:
REMARK  status: ('A' for Active; 'I' for Inactive)
REMARK    1  A    between atoms: C_1  and  C_2
REMARK    2  A    between atoms: C_2  and  C_3
REMARK    3  A    between atoms: C_2  and  C_4
REMARK    4  A    between atoms: C_2  and  O_5
REMARK    5  A    between atoms: O_5  and  C_6
REMARK    6  A    between atoms: N_8  and  C_9
REMARK    7  A    between atoms: C_15  and  N_17
REMARK    8  A    between atoms: C_18  and  C_20
REMARK    9  A    between atoms: C_24  and  C_26
REMARK                            x       y       z     vdW  Elec       q    Type
REMARK                         _______ _______ _______ _____ _____    ______ ____
ROOT
ATOM      1  C   UNL     1       4.035  -0.071  -2.601  0.00  0.00    +0.096 C 
ATOM      2  C   UNL     1       4.078   1.308  -3.263  0.00  0.00    +0.024 C 
ATOM      3  C   UNL     1       5.534   1.740  -3.448  0.00  0.00    +0.002 C 
ATOM      4  C   UNL     1       6.258   0.725  -4.336  0.00  0.00    +0.002 C 
ATOM      5  C   UNL     1       6.215  -0.654  -3.675  0.00  0.00    +0.024 C 
ATOM      6  C   UNL     1       4.759  -1.086  -3.489  0.00  0.00    +0.094 C 
ENDROOT
BRANCH   1   9
ATOM      7  C   UNL     1       1.952  -0.085  -1.337  0.00  0.00    +0.401 C 
ATOM      8  O   UNL     1       2.488   0.619  -0.503  0.00  0.00    -0.226 OA
ATOM      9  N   UNL     1       2.641  -0.485  -2.424  0.00  0.00    -0.276 N 
ATOM     10  H   UNL     1       2.213  -1.047  -3.089  0.00  0.00    +0.152 HD
BRANCH   7  11
ATOM     11  O   UNL     1       0.671  -0.465  -1.174  0.00  0.00    -0.445 OA
BRANCH  11  13
ATOM     12  C   UNL     1      -0.019   1.526   0.010  0.00  0.00    +0.055 C 
ATOM     13  C   UNL     1       0.002  -0.004   0.002  0.00  0.00    +0.107 C 
ATOM     14  C   UNL     1       0.742  -0.511   1.242  0.00  0.00    +0.055 C 
ATOM     15  C   UNL     1      -1.433  -0.534   0.013  0.00  0.00    +0.055 C 
ENDBRANCH  11  13
ENDBRANCH   7  11
ENDBRANCH   1   9
BRANCH   6  16
ATOM     16  N   UNL     1       4.718  -2.406  -2.856  0.00  0.00    -0.307 N 
ATOM     17  C   UNL     1       4.817  -3.518  -3.610  0.00  0.00    +0.244 C 
ATOM     18  O   UNL     1       4.940  -3.426  -4.816  0.00  0.00    -0.270 OA
ATOM     19  H   UNL     1       4.620  -2.479  -1.894  0.00  0.00    +0.149 HD
BRANCH  17  20
ATOM     20  C   UNL     1       4.775  -4.851  -2.971  0.00  0.00    +0.037 A 
ATOM     21  C   UNL     1       4.628  -4.959  -1.586  0.00  0.00    +0.013 A 
ATOM     22  C   UNL     1       4.590  -6.202  -0.987  0.00  0.00    +0.001 A 
ATOM     23  C   UNL     1       4.696  -7.347  -1.752  0.00  0.00    +0.013 A 
ATOM     24  C   UNL     1       4.844  -7.254  -3.138  0.00  0.00    +0.037 A 
ATOM     25  C   UNL     1       4.877  -6.002  -3.749  0.00  0.00    +0.026 A 
BRANCH  24  26
ATOM     26  C   UNL     1       4.958  -8.481  -3.955  0.00  0.00    +0.242 C 
ATOM     27  O   UNL     1       5.087  -8.398  -5.161  0.00  0.00    -0.270 OA
ATOM     28  N   UNL     1       4.920  -9.691  -3.363  0.00  0.00    -0.325 N 
ATOM     29  H   UNL     1       4.817  -9.757  -2.401  0.00  0.00    +0.145 HD
ATOM     30  H   UNL     1       4.995 -10.496  -3.900  0.00  0.00    +0.145 HD
ENDBRANCH  24  26
ENDBRANCH  17  20
ENDBRANCH   6  16
TORSDOF 6
