REMARK  Name = ZINC66348198
REMARK  6 active torsions:
REMARK  status: ('A' for Active; 'I' for Inactive)
REMARK    1  A    between atoms: C_1  and  C_2
REMARK    2  A    between atoms: N_4  and  C_5
REMARK    3  A    between atoms: C_7  and  N_13
REMARK    4  A    between atoms: C_14  and  C_16
REMARK    5  A    between atoms: C_20  and  N_23
REMARK    6  A    between atoms: C_21  and  N_22
REMARK                            x       y       z     vdW  Elec       q    Type
REMARK                         _______ _______ _______ _____ _____    ______ ____
ROOT
ATOM      1  N   UNL     1       1.083  -5.058   0.039  0.00  0.00    -0.279 N 
ATOM      2  C   UNL     1       2.248  -4.401   0.206  0.00  0.00    +0.250 C 
ATOM      3  O   UNL     1       2.256  -3.187   0.284  0.00  0.00    -0.270 OA
ATOM      4  H   UNL     1       1.082  -6.021  -0.079  0.00  0.00    +0.155 HD
ENDROOT
BRANCH   1   7
ATOM      5  C   UNL     1      -1.378  -2.372  -0.495  0.00  0.00    +0.071 A 
ATOM      6  C   UNL     1      -0.180  -3.070  -0.493  0.00  0.00    +0.052 A 
ATOM      7  C   UNL     1      -0.126  -4.351   0.037  0.00  0.00    +0.071 A 
ATOM      8  C   UNL     1      -1.273  -4.932   0.566  0.00  0.00    +0.147 A 
ATOM      9  C   UNL     1      -2.467  -4.234   0.564  0.00  0.00    +0.080 A 
ATOM     10  C   UNL     1      -2.522  -2.954   0.040  0.00  0.00    +0.147 A 
ATOM     11  F   UNL     1      -3.688  -2.272   0.043  0.00  0.00    -0.203 F 
ATOM     12  F   UNL     1      -1.222  -6.179   1.083  0.00  0.00    -0.203 F 
BRANCH   5  16
ATOM     13  C   UNL     1      -0.792   0.612  -2.719  0.00  0.00    +0.109 C 
ATOM     14  C   UNL     1      -0.668  -0.752  -2.089  0.00  0.00    +0.214 C 
ATOM     15  O   UNL     1       0.123  -1.556  -2.535  0.00  0.00    -0.276 OA
ATOM     16  N   UNL     1      -1.435  -1.077  -1.030  0.00  0.00    -0.283 N 
ATOM     17  H   UNL     1      -2.027  -0.416  -0.638  0.00  0.00    +0.155 HD
ENDBRANCH   5  16
ENDBRANCH   1   7
BRANCH   2  18
ATOM     18  C   UNL     1       3.513  -5.154   0.294  0.00  0.00    +0.063 A 
ATOM     19  C   UNL     1       3.522  -6.538   0.101  0.00  0.00    +0.053 A 
ATOM     20  C   UNL     1       4.708  -7.236   0.184  0.00  0.00    +0.126 A 
ATOM     21  C   UNL     1       5.895  -6.570   0.459  0.00  0.00    +0.073 A 
ATOM     22  C   UNL     1       5.900  -5.204   0.652  0.00  0.00    +0.150 A 
ATOM     23  C   UNL     1       4.715  -4.484   0.566  0.00  0.00    +0.068 A 
ATOM     24  F   UNL     1       4.716  -8.574  -0.003  0.00  0.00    -0.205 F 
BRANCH  23  25
ATOM     25  N   UNL     1       4.720  -3.106   0.754  0.00  0.00    -0.356 N 
ATOM     26  H   UNL     1       5.404  -2.695   1.305  0.00  0.00    +0.142 HD
ATOM     27  H   UNL     1       4.039  -2.557   0.335  0.00  0.00    +0.142 HD
ENDBRANCH  23  25
BRANCH  22  28
ATOM     28  N   UNL     1       7.171  -4.504   0.945  0.00  0.00    +0.058 N 
ATOM     29  O   UNL     1       8.214  -5.114   0.930  0.00  0.00    -0.126 OA
ATOM     30  O   UNL     1       7.165  -3.322   1.200  0.00  0.00    -0.126 OA
ENDBRANCH  22  28
ENDBRANCH   2  18
TORSDOF 5
