REMARK  Name = ZINC64137169
REMARK  12 active torsions:
REMARK  status: ('A' for Active; 'I' for Inactive)
REMARK    1  A    between atoms: C_1  and  C_2
REMARK    2  A    between atoms: C_2  and  O_3
REMARK    3  A    between atoms: O_3  and  C_4
REMARK    4  A    between atoms: C_6  and  C_11
REMARK    5  A    between atoms: C_9  and  O_10
REMARK    6  A    between atoms: C_11  and  N_12
REMARK    7  A    between atoms: C_14  and  N_23
REMARK    8  A    between atoms: C_17  and  C_19
REMARK    9  A    between atoms: C_19  and  O_21
REMARK   10  A    between atoms: O_21  and  C_22
REMARK   11  A    between atoms: C_24  and  C_26
REMARK   12  A    between atoms: C_28  and  C_37
REMARK                            x       y       z     vdW  Elec       q    Type
REMARK                         _______ _______ _______ _____ _____    ______ ____
ROOT
ATOM      1  N   UNL     1      -1.621  -5.283   0.127  0.00  0.00    -0.284 NA
ATOM      2  C   UNL     1      -2.489  -4.097   0.290  0.00  0.00    +0.107 C 
ATOM      3  C   UNL     1      -3.854  -4.667   0.748  0.00  0.00    +0.089 C 
ATOM      4  C   UNL     1      -3.413  -5.833   1.671  0.00  0.00    +0.054 C 
ATOM      5  C   UNL     1      -2.146  -6.370   0.972  0.00  0.00    +0.168 C 
ENDROOT
BRANCH   3   6
ATOM      6  N   UNL     1      -4.617  -3.664   1.496  0.00  0.00    -0.309 N 
ATOM      7  C   UNL     1      -5.401  -2.786   0.840  0.00  0.00    +0.240 C 
ATOM      8  O   UNL     1      -5.475  -2.826  -0.370  0.00  0.00    -0.273 OA
ATOM      9  H   UNL     1      -4.558  -3.633   2.464  0.00  0.00    +0.149 HD
BRANCH   7  10
ATOM     10  C   UNL     1      -6.186  -1.755   1.609  0.00  0.00    +0.193 C 
ATOM     11  C   UNL     1      -5.296  -0.586   1.970  0.00  0.00    -0.033 C 
ATOM     12  C   UNL     1      -5.843   0.498   1.374  0.00  0.00    +0.001 A 
ATOM     13  C   UNL     1      -5.458   1.914   1.342  0.00  0.00    +0.030 A 
ATOM     14  C   UNL     1      -6.222   2.786   0.643  0.00  0.00    +0.042 A 
ATOM     15  C   UNL     1      -7.369   2.371  -0.049  0.00  0.00    +0.022 A 
ATOM     16  C   UNL     1      -7.786   1.087  -0.065  0.00  0.00    +0.027 A 
ATOM     17  C   UNL     1      -7.058   0.086   0.636  0.00  0.00    +0.043 A 
ATOM     18  N   UNL     1      -7.256  -1.204   0.770  0.00  0.00    -0.370 N 
ATOM     19 CL   UNL     1      -5.770   4.462   0.603  0.00  0.00    -0.084 Cl
ATOM     20  C   UNL     1      -4.053  -0.622   2.821  0.00  0.00    +0.042 C 
ATOM     21  H   UNL     1      -7.986  -1.710   0.380  0.00  0.00    +0.161 HD
ENDBRANCH   7  10
ENDBRANCH   3   6
BRANCH   5  22
ATOM     22  C   UNL     1      -2.498  -7.560   0.117  0.00  0.00    +0.324 C 
ATOM     23  O   UNL     1      -2.329  -7.516  -1.078  0.00  0.00    -0.249 OA
BRANCH  22  24
ATOM     24  O   UNL     1      -2.997  -8.670   0.684  0.00  0.00    -0.467 OA
ATOM     25  C   UNL     1      -3.307  -9.760  -0.186  0.00  0.00    +0.280 C 
ENDBRANCH  22  24
ENDBRANCH   5  22
BRANCH   1  26
ATOM     26  C   UNL     1      -0.229  -4.969   0.477  0.00  0.00    +0.120 C 
BRANCH  26  29
ATOM     27  C   UNL     1       0.777  -1.811  -1.336  0.00  0.00    +0.162 A 
ATOM     28  C   UNL     1       0.243  -2.669  -0.388  0.00  0.00    +0.054 A 
ATOM     29  C   UNL     1       0.352  -4.037  -0.555  0.00  0.00    -0.030 A 
ATOM     30  C   UNL     1       0.992  -4.552  -1.667  0.00  0.00    +0.009 A 
ATOM     31  C   UNL     1       1.526  -3.702  -2.616  0.00  0.00    +0.049 A 
ATOM     32  C   UNL     1       1.416  -2.330  -2.458  0.00  0.00    +0.158 A 
BRANCH  32  33
ATOM     33  O   UNL     1       1.936  -1.492  -3.394  0.00  0.00    -0.503 OA
ATOM     34  H   UNL     1       2.856  -1.241  -3.231  0.00  0.00    +0.292 HD
ENDBRANCH  32  33
BRANCH  27  35
ATOM     35  O   UNL     1       0.671  -0.465  -1.174  0.00  0.00    -0.489 OA
BRANCH  35  37
ATOM     36  C   UNL     1      -0.019   1.526   0.010  0.00  0.00    +0.048 C 
ATOM     37  C   UNL     1       0.002  -0.004   0.002  0.00  0.00    +0.226 C 
ENDBRANCH  35  37
ENDBRANCH  27  35
ENDBRANCH  26  29
ENDBRANCH   1  26
TORSDOF 9
