REMARK  Name = ZINC12858369
REMARK  12 active torsions:
REMARK  status: ('A' for Active; 'I' for Inactive)
REMARK    1  A    between atoms: C_1  and  C_2
REMARK    2  A    between atoms: C_5  and  C_43
REMARK    3  A    between atoms: C_9  and  C_10
REMARK    4  A    between atoms: C_9  and  N_87
REMARK    5  A    between atoms: C_10  and  C_11
REMARK    6  A    between atoms: C_11  and  O_13
REMARK    7  A    between atoms: O_13  and  C_14
REMARK    8  A    between atoms: C_18  and  C_42
REMARK    9  A    between atoms: C_23  and  C_41
REMARK   10  A    between atoms: C_33  and  C_40
REMARK   11  A    between atoms: C_35  and  C_37
REMARK   12  A    between atoms: C_37  and  C_39
REMARK                            x       y       z     vdW  Elec       q    Type
REMARK                         _______ _______ _______ _____ _____    ______ ____
ROOT
ATOM      1  C   UNL     1       7.665   0.113   2.208  0.00  0.00    +0.180 C 
ATOM      2  C   UNL     1       7.832  -0.719   0.938  0.00  0.00    +0.046 C 
ATOM      3  C   UNL     1       6.732  -1.767   0.815  0.00  0.00    +0.015 C 
ATOM      4  C   UNL     1       5.342  -1.108   0.787  0.00  0.00    -0.008 C 
ATOM      5  C   UNL     1       4.285  -2.185   0.709  0.00  0.00    +0.003 C 
ATOM      6  C   UNL     1       3.987  -2.628  -0.716  0.00  0.00    +0.005 C 
ATOM      7  C   UNL     1       2.920  -1.838  -1.465  0.00  0.00    +0.008 C 
ATOM      8  C   UNL     1       1.716  -1.558  -0.601  0.00  0.00    -0.019 C 
ATOM      9  C   UNL     1       2.180  -0.901   0.721  0.00  0.00    -0.000 C 
ATOM     10  C   UNL     1       3.006  -1.894   1.492  0.00  0.00    +0.000 C 
ATOM     11  C   UNL     1       3.312  -1.423   2.908  0.00  0.00    +0.031 C 
ATOM     12  C   UNL     1       4.309  -0.306   2.891  0.00  0.00    -0.027 C 
ATOM     13  C   UNL     1       5.235  -0.213   1.988  0.00  0.00    -0.064 C 
ATOM     14  C   UNL     1       6.316   0.840   2.178  0.00  0.00    +0.075 C 
ATOM     15  C   UNL     1       0.851  -0.460   1.343  0.00  0.00    +0.008 C 
ATOM     16  C   UNL     1       0.056   0.079   0.122  0.00  0.00    -0.003 C 
ATOM     17  C   UNL     1       0.734  -0.508  -1.141  0.00  0.00    +0.064 C 
ATOM     18  C   UNL     1       0.118   1.608   0.089  0.00  0.00    +0.008 C 
ATOM     19  C   UNL     1       0.935  -2.850  -0.357  0.00  0.00    +0.012 C 
ATOM     20  C   UNL     1       5.292  -0.214  -0.451  0.00  0.00    +0.016 C 
ENDROOT
BRANCH  17  21
ATOM     21  C   UNL     1      -0.288  -1.168  -2.028  0.00  0.00    +0.134 C 
ATOM     22  O   UNL     1      -1.320  -1.580  -1.556  0.00  0.00    -0.297 OA
ATOM     23  C   UNL     1      -0.022  -1.313  -3.504  0.00  0.00    +0.086 C 
ENDBRANCH  17  21
BRANCH   1  24
ATOM     24  O   UNL     1       8.736   1.089   2.294  0.00  0.00    -0.461 OA
BRANCH  24  25
ATOM     25  C   UNL     1       9.133   1.451   3.525  0.00  0.00    +0.306 C 
ATOM     26  O   UNL     1       8.603   0.968   4.497  0.00  0.00    -0.251 OA
BRANCH  25  27
ATOM     27  C   UNL     1      10.241   2.459   3.693  0.00  0.00    +0.102 C 
BRANCH  27  28
ATOM     28  C   UNL     1      10.496   2.692   5.183  0.00  0.00    -0.068 C 
BRANCH  28  36
ATOM     29  C   UNL     1      15.249   3.685   4.399  0.00  0.00    +0.005 C 
ATOM     30  C   UNL     1      13.916   4.243   4.900  0.00  0.00    -0.031 C 
ATOM     31  C   UNL     1      14.073   4.726   6.344  0.00  0.00    +0.003 C 
ATOM     32  C   UNL     1      12.721   5.228   6.857  0.00  0.00    -0.031 C 
ATOM     33  C   UNL     1      11.690   4.102   6.748  0.00  0.00    -0.076 C 
ATOM     34  C   UNL     1      12.850   3.145   4.848  0.00  0.00    -0.076 C 
ATOM     35  C   UNL     1      12.265   6.421   6.014  0.00  0.00    +0.005 C 
ATOM     36  N   UNL     1      11.567   3.699   5.331  0.00  0.00    +0.380 N 
ATOM     37  H   UNL     1      11.329   4.525   4.769  0.00  0.00    -0.082 HD
ENDBRANCH  28  36
ENDBRANCH  27  28
ENDBRANCH  25  27
ENDBRANCH  24  25
ENDBRANCH   1  24
TORSDOF 6
