REMARK  Name = ZINC67302965
REMARK  9 active torsions:
REMARK  status: ('A' for Active; 'I' for Inactive)
REMARK    1  A    between atoms: C_1  and  C_2
REMARK    2  A    between atoms: C_3  and  C_9
REMARK    3  A    between atoms: C_4  and  C_8
REMARK    4  A    between atoms: N_5  and  C_7
REMARK    5  A    between atoms: C_9  and  C_11
REMARK    6  A    between atoms: C_9  and  N_12
REMARK    7  A    between atoms: C_13  and  C_15
REMARK    8  A    between atoms: C_15  and  N_16
REMARK    9  A    between atoms: N_19  and  C_20
REMARK                            x       y       z     vdW  Elec       q    Type
REMARK                         _______ _______ _______ _____ _____    ______ ____
ROOT
ATOM      1  N   UNL     1       0.955   0.751  -2.726  0.00  0.00    -0.307 N 
ATOM      2  C   UNL     1       1.494   1.003  -3.936  0.00  0.00    +0.231 C 
ATOM      3  O   UNL     1       1.183   0.323  -4.891  0.00  0.00    -0.274 OA
ATOM      4  H   UNL     1       1.203   1.295  -1.962  0.00  0.00    +0.149 HD
ENDROOT
BRANCH   1   5
ATOM      5  C   UNL     1      -0.006  -0.343  -2.566  0.00  0.00    +0.104 C 
ATOM      6  C   UNL     1      -1.408   0.152  -2.925  0.00  0.00    +0.033 C 
BRANCH   5   9
ATOM      7  C   UNL     1      -0.018   1.503   0.010  0.00  0.00    +0.068 C 
ATOM      8  C   UNL     1       0.002  -0.004   0.002  0.00  0.00    +0.065 A 
ATOM      9  C   UNL     1       0.008  -0.818  -1.135  0.00  0.00    +0.016 A 
ATOM     10  C   UNL     1       0.028  -2.107  -0.725  0.00  0.00    +0.041 A 
ATOM     11  N   UNL     1       0.034  -2.109   0.625  0.00  0.00    -0.271 N 
ATOM     12  N   UNL     1       0.023  -0.777   1.058  0.00  0.00    -0.176 NA
ATOM     13  C   UNL     1       0.055  -3.295   1.485  0.00  0.00    +0.172 C 
ATOM     14  C   UNL     1       0.040  -3.323  -1.615  0.00  0.00    +0.065 C 
ENDBRANCH   5   9
ENDBRANCH   1   5
BRANCH   2  15
ATOM     15  C   UNL     1       2.482   2.129  -4.101  0.00  0.00    +0.201 C 
BRANCH  15  16
ATOM     16  N   UNL     1       2.917   2.195  -5.498  0.00  0.00    -0.291 N 
ATOM     17  C   UNL     1       3.806   3.132  -5.883  0.00  0.00    +0.300 C 
ATOM     18  O   UNL     1       4.247   3.922  -5.071  0.00  0.00    -0.253 OA
ATOM     19  N   UNL     1       4.206   3.193  -7.169  0.00  0.00    -0.297 N 
ATOM     20  H   UNL     1       2.565   1.565  -6.146  0.00  0.00    +0.151 HD
ATOM     21  H   UNL     1       3.854   2.563  -7.817  0.00  0.00    +0.151 HD
BRANCH  19  22
ATOM     22  C   UNL     1       5.173   4.212  -7.587  0.00  0.00    +0.074 C 
ATOM     23  C   UNL     1       4.436   5.513  -7.907  0.00  0.00    +0.022 C 
ATOM     24  C   UNL     1       5.446   6.577  -8.344  0.00  0.00    +0.002 C 
ATOM     25  C   UNL     1       6.190   6.092  -9.590  0.00  0.00    +0.000 C 
ATOM     26  C   UNL     1       6.927   4.790  -9.270  0.00  0.00    +0.002 C 
ATOM     27  C   UNL     1       5.917   3.727  -8.833  0.00  0.00    +0.022 C 
ENDBRANCH  19  22
ENDBRANCH  15  16
ENDBRANCH   2  15
TORSDOF 5
