REMARK  Name = ZINC61914472
REMARK  7 active torsions:
REMARK  status: ('A' for Active; 'I' for Inactive)
REMARK    1  A    between atoms: C_1  and  C_2
REMARK    2  A    between atoms: C_2  and  C_3
REMARK    3  A    between atoms: C_2  and  C_4
REMARK    4  A    between atoms: C_2  and  C_5
REMARK    5  A    between atoms: C_10  and  N_11
REMARK    6  A    between atoms: N_14  and  C_15
REMARK    7  A    between atoms: C_15  and  C_16
REMARK                            x       y       z     vdW  Elec       q    Type
REMARK                         _______ _______ _______ _____ _____    ______ ____
ROOT
ATOM      1  N   UNL     1       2.558  -1.335  -0.230  0.00  0.00    -0.296 N 
ATOM      2  C   UNL     1       3.773  -0.907   0.167  0.00  0.00    +0.300 C 
ATOM      3  O   UNL     1       4.340  -0.028  -0.453  0.00  0.00    -0.253 OA
ATOM      4  N   UNL     1       4.359  -1.453   1.250  0.00  0.00    -0.294 N 
ATOM      5  H   UNL     1       2.106  -2.037   0.265  0.00  0.00    +0.151 HD
ATOM      6  H   UNL     1       3.907  -2.154   1.745  0.00  0.00    +0.151 HD
ENDROOT
BRANCH   1  12
ATOM      7  C   UNL     1       0.401  -0.761  -1.230  0.00  0.00    +0.015 C 
ATOM      8  C   UNL     1      -0.074  -2.206  -1.066  0.00  0.00    +0.006 C 
ATOM      9  C   UNL     1       0.304  -3.012  -2.311  0.00  0.00    +0.000 C 
ATOM     10  C   UNL     1       1.823  -2.992  -2.489  0.00  0.00    +0.002 C 
ATOM     11  C   UNL     1       2.299  -1.547  -2.653  0.00  0.00    +0.022 C 
ATOM     12  C   UNL     1       1.921  -0.742  -1.408  0.00  0.00    +0.078 C 
BRANCH   7  14
ATOM     13  C   UNL     1       0.639   1.442  -0.076  0.00  0.00    +0.011 C 
ATOM     14  C   UNL     1       0.023   0.044   0.015  0.00  0.00    -0.033 C 
ATOM     15  C   UNL     1       0.553  -0.666   1.262  0.00  0.00    +0.011 C 
ATOM     16  C   UNL     1      -1.500   0.162   0.103  0.00  0.00    +0.011 C 
ENDBRANCH   7  14
ENDBRANCH   1  12
BRANCH   4  17
ATOM     17  C   UNL     1       5.680  -0.987   1.681  0.00  0.00    +0.162 C 
BRANCH  17  18
ATOM     18  C   UNL     1       6.107  -1.753   2.907  0.00  0.00    +0.078 A 
ATOM     19  C   UNL     1       6.885  -2.848   2.918  0.00  0.00    +0.118 A 
ATOM     20  N   UNL     1       7.041  -3.244   4.243  0.00  0.00    -0.300 N 
ATOM     21  C   UNL     1       7.681  -4.238   4.951  0.00  0.00    +0.100 A 
ATOM     22  C   UNL     1       7.593  -4.294   6.279  0.00  0.00    +0.067 A 
ATOM     23  S   UNL     1       6.556  -2.885   6.640  0.00  0.00    -0.058 S 
ATOM     24  C   UNL     1       6.322  -2.331   4.968  0.00  0.00    +0.178 A 
ATOM     25  N   UNL     1       5.780  -1.454   4.173  0.00  0.00    -0.225 NA
ENDBRANCH  17  18
ENDBRANCH   4  17
TORSDOF 4
