REMARK  Name = ZINC63985249
REMARK  8 active torsions:
REMARK  status: ('A' for Active; 'I' for Inactive)
REMARK    1  A    between atoms: C_1  and  C_2
REMARK    2  A    between atoms: C_5  and  N_9
REMARK    3  A    between atoms: C_7  and  C_8
REMARK    4  A    between atoms: C_10  and  O_36
REMARK    5  A    between atoms: C_13  and  O_35
REMARK    6  A    between atoms: C_14  and  C_18
REMARK    7  A    between atoms: C_25  and  O_30
REMARK    8  A    between atoms: O_30  and  C_31
REMARK                            x       y       z     vdW  Elec       q    Type
REMARK                         _______ _______ _______ _____ _____    ______ ____
ROOT
ATOM      1  N   UNL     1       0.048  -4.088  -0.171  0.00  0.00    -0.225 N 
ATOM      2  C   UNL     1       0.130  -4.704   1.146  0.00  0.00    +0.338 C 
ATOM      3  N   UNL     1       0.594  -6.080   1.079  0.00  0.00    -0.204 NA
ATOM      4  C   UNL     1       0.544  -6.803   0.029  0.00  0.00    +0.200 C 
ATOM      5  C   UNL     1      -0.004  -6.307  -1.278  0.00  0.00    +0.179 C 
ATOM      6  C   UNL     1      -0.029  -4.805  -1.299  0.00  0.00    +0.237 C 
ATOM      7  O   UNL     1      -0.117  -4.229  -2.363  0.00  0.00    -0.274 OA
ENDROOT
BRANCH   5   8
ATOM      8  C   UNL     1      -1.429  -6.832  -1.462  0.00  0.00    +0.101 C 
ATOM      9  C   UNL     1      -1.953  -6.428  -2.841  0.00  0.00    +0.124 C 
ATOM     10  C   UNL     1      -3.422  -6.836  -2.875  0.00  0.00    -0.036 C 
ATOM     11  C   UNL     1      -3.576  -7.595  -3.950  0.00  0.00    +0.003 A 
ATOM     12  C   UNL     1      -4.765  -8.211  -4.559  0.00  0.00    +0.055 A 
ATOM     13  C   UNL     1      -4.561  -8.959  -5.679  0.00  0.00    +0.121 A 
ATOM     14  C   UNL     1      -3.303  -9.164  -6.266  0.00  0.00    +0.047 A 
ATOM     15  C   UNL     1      -2.144  -8.640  -5.792  0.00  0.00    +0.029 A 
ATOM     16  C   UNL     1      -2.237  -7.806  -4.585  0.00  0.00    +0.043 A 
ATOM     17  N   UNL     1      -1.299  -7.156  -3.927  0.00  0.00    -0.376 N 
ATOM     18  C   UNL     1      -4.375  -6.455  -1.768  0.00  0.00    +0.048 C 
ATOM     19  C   UNL     1      -3.663  -6.805  -0.449  0.00  0.00    +0.085 C 
ATOM     20  N   UNL     1      -2.310  -6.243  -0.440  0.00  0.00    -0.310 NA
ATOM     21  H   UNL     1      -1.895  -6.311   0.477  0.00  0.00    +0.122 HD
ATOM     22  H   UNL     1      -0.348  -7.158  -4.118  0.00  0.00    +0.160 HD
BRANCH  13  23
ATOM     23  O   UNL     1      -5.641  -9.541  -6.263  0.00  0.00    -0.495 OA
ATOM     24  C   UNL     1      -5.402 -10.320  -7.437  0.00  0.00    +0.277 C 
ENDBRANCH  13  23
ENDBRANCH   5   8
BRANCH   1  29
ATOM     25  C   UNL     1       0.028   1.573  -0.531  0.00  0.00    +0.044 C 
ATOM     26  C   UNL     1       0.033   0.069  -0.436  0.00  0.00    -0.047 A 
ATOM     27  C   UNL     1      -1.148  -0.612  -0.204  0.00  0.00    +0.005 A 
ATOM     28  C   UNL     1      -1.147  -1.990  -0.116  0.00  0.00    +0.024 A 
ATOM     29  C   UNL     1       0.043  -2.692  -0.260  0.00  0.00    +0.041 A 
ATOM     30  C   UNL     1       1.227  -2.006  -0.493  0.00  0.00    +0.027 A 
ATOM     31  C   UNL     1       1.218  -0.627  -0.585  0.00  0.00    -0.046 A 
ATOM     32  C   UNL     1       2.502   0.118  -0.843  0.00  0.00    +0.044 C 
ENDBRANCH   1  29
BRANCH   4  33
ATOM     33  O   UNL     1       1.004  -8.070   0.096  0.00  0.00    -0.495 OA
ATOM     34  H   UNL     1       1.341  -8.321   0.967  0.00  0.00    +0.293 HD
ENDBRANCH   4  33
BRANCH   2  35
ATOM     35  O   UNL     1       1.036  -3.950   1.955  0.00  0.00    -0.356 OA
ATOM     36  H   UNL     1       1.146  -4.298   2.850  0.00  0.00    +0.214 HD
ENDBRANCH   2  35
TORSDOF 5
