REMARK  Name = ZINC05793364
REMARK  3 active torsions:
REMARK  status: ('A' for Active; 'I' for Inactive)
REMARK    1  A    between atoms: C_1  and  C_2
REMARK    2  A    between atoms: C_7  and  N_8
REMARK    3  A    between atoms: N_10  and  C_12
REMARK                            x       y       z     vdW  Elec       q    Type
REMARK                         _______ _______ _______ _____ _____    ______ ____
ROOT
ATOM      1  C   UNL     1      -1.304  -0.756   0.011  0.00  0.00    +0.046 C 
ATOM      2  C   UNL     1       0.002  -0.004   0.002  0.00  0.00    -0.028 A 
ATOM      3  C   UNL     1       1.167  -0.701  -0.013  0.00  0.00    +0.037 A 
ATOM      4  C   UNL     1       2.391  -0.008  -0.021  0.00  0.00    +0.114 A 
ATOM      5  C   UNL     1       2.374   1.463  -0.013  0.00  0.00    +0.115 A 
ATOM      6  C   UNL     1       1.137   2.127   0.003  0.00  0.00    +0.054 A 
ATOM      7  C   UNL     1      -0.017   1.397   0.010  0.00  0.00    +0.030 A 
ATOM      8  N   UNL     1       3.651   1.814  -0.023  0.00  0.00    -0.147 NA
ATOM      9  N   UNL     1       4.375   0.750  -0.036  0.00  0.00    -0.149 N 
ATOM     10  N   UNL     1       3.675  -0.330  -0.036  0.00  0.00    -0.147 NA
ENDROOT
BRANCH   9  11
ATOM     11  C   UNL     1       5.776   0.766  -0.049  0.00  0.00    +0.086 A 
ATOM     12  C   UNL     1       6.485  -0.429  -0.056  0.00  0.00    +0.030 A 
ATOM     13  C   UNL     1       7.865  -0.410  -0.073  0.00  0.00    +0.017 A 
ATOM     14  C   UNL     1       8.543   0.796  -0.073  0.00  0.00    +0.018 A 
ATOM     15  C   UNL     1       7.839   1.988  -0.061  0.00  0.00    +0.017 A 
ATOM     16  C   UNL     1       6.458   1.975  -0.049  0.00  0.00    +0.030 A 
ATOM     17 BR   UNL     1      10.433   0.817  -0.090  0.00  0.00    -0.050 Br
ENDBRANCH   9  11
BRANCH   7  18
ATOM     18  N   UNL     1      -1.245   2.063   0.019  0.00  0.00    -0.358 N 
ATOM     19  H   UNL     1      -2.072   1.555   0.020  0.00  0.00    +0.142 HD
ATOM     20  H   UNL     1      -1.272   3.032   0.025  0.00  0.00    +0.142 HD
ENDBRANCH   7  18
TORSDOF 2
