REMARK  Name = ZINC26344547
REMARK  3 active torsions:
REMARK  status: ('A' for Active; 'I' for Inactive)
REMARK    1  A    between atoms: N_9  and  C_13
REMARK    2  A    between atoms: C_13  and  C_14
REMARK    3  A    between atoms: C_14  and  C_15
REMARK                            x       y       z     vdW  Elec       q    Type
REMARK                         _______ _______ _______ _____ _____    ______ ____
ROOT
ATOM      1  C   UNL     1       2.281   1.085  -0.463  0.00  0.00    +0.046 A 
ATOM      2  C   UNL     1       1.162   1.871  -0.237  0.00  0.00    -0.023 A 
ATOM      3  C   UNL     1      -0.092   1.289  -0.189  0.00  0.00    +0.036 A 
ATOM      4  C   UNL     1      -0.215  -0.091  -0.361  0.00  0.00    +0.064 A 
ATOM      5  C   UNL     1       0.902  -0.870  -0.582  0.00  0.00    +0.160 A 
ATOM      6  C   UNL     1       2.157  -0.280  -0.635  0.00  0.00    +0.159 A 
ATOM      7  F   UNL     1       3.253  -1.038  -0.854  0.00  0.00    -0.202 F 
ATOM      8  F   UNL     1       0.775  -2.205  -0.748  0.00  0.00    -0.202 F 
ATOM      9  N   UNL     1      -1.262   2.022   0.016  0.00  0.00    -0.329 N 
ATOM     10  C   UNL     1      -1.021   3.327   0.635  0.00  0.00    +0.105 C 
ATOM     11  C   UNL     1       0.024   4.079  -0.198  0.00  0.00    +0.024 C 
ATOM     12  C   UNL     1       1.362   3.353  -0.043  0.00  0.00    +0.038 C 
ENDROOT
BRANCH   9  13
ATOM     13  C   UNL     1      -2.241   1.245   0.788  0.00  0.00    +0.114 C 
BRANCH  13  14
ATOM     14  C   UNL     1      -3.460   2.119   1.091  0.00  0.00    +0.115 C 
BRANCH  14  15
ATOM     15  C   UNL     1      -4.465   1.322   1.883  0.00  0.00    +0.222 C 
ATOM     16  O   UNL     1      -4.229   0.170   2.177  0.00  0.00    -0.275 OA
ATOM     17  N   UNL     1      -5.625   1.891   2.266  0.00  0.00    -0.240 N 
ATOM     18  C   UNL     1      -6.523   1.179   2.974  0.00  0.00    +0.303 C 
ATOM     19  O   UNL     1      -6.287   0.023   3.269  0.00  0.00    -0.253 OA
ATOM     20  N   UNL     1      -7.684   1.747   3.357  0.00  0.00    -0.313 N 
ATOM     21  H   UNL     1      -5.839   2.937   2.000  0.00  0.00    +0.159 HD
ATOM     22  H   UNL     1      -8.417   1.166   3.935  0.00  0.00    +0.146 HD
ATOM     23  H   UNL     1      -7.898   2.793   3.090  0.00  0.00    +0.146 HD
ENDBRANCH  14  15
ENDBRANCH  13  14
ENDBRANCH   9  13
TORSDOF 3
