REMARK  Name = ZINC63571547
REMARK  9 active torsions:
REMARK  status: ('A' for Active; 'I' for Inactive)
REMARK    1  A    between atoms: C_1  and  C_2
REMARK    2  A    between atoms: C_5  and  C_8
REMARK    3  A    between atoms: N_25  and  C_26
REMARK    4  A    between atoms: C_28  and  O_36
REMARK    5  A    between atoms: C_29  and  O_34
REMARK    6  A    between atoms: C_30  and  O_32
REMARK    7  A    between atoms: O_32  and  C_33
REMARK    8  A    between atoms: O_34  and  C_35
REMARK    9  A    between atoms: O_36  and  C_37
REMARK                            x       y       z     vdW  Elec       q    Type
REMARK                         _______ _______ _______ _____ _____    ______ ____
ROOT
ATOM      1  C   UNL     1      -0.498  -4.595   0.766  0.00  0.00    +0.134 C 
ATOM      2  C   UNL     1      -1.598  -5.480   1.363  0.00  0.00    +0.131 C 
ATOM      3  C   UNL     1      -1.086  -6.913   1.297  0.00  0.00    -0.035 C 
ATOM      4  C   UNL     1      -1.995  -7.606   0.622  0.00  0.00    -0.001 A 
ATOM      5  C   UNL     1      -2.093  -9.038   0.297  0.00  0.00    +0.010 A 
ATOM      6  C   UNL     1      -3.174  -9.414  -0.436  0.00  0.00    +0.001 A 
ATOM      7  C   UNL     1      -4.155  -8.519  -0.873  0.00  0.00    +0.002 A 
ATOM      8  C   UNL     1      -4.148  -7.187  -0.617  0.00  0.00    +0.026 A 
ATOM      9  C   UNL     1      -3.063  -6.672   0.151  0.00  0.00    +0.043 A 
ATOM     10  N   UNL     1      -2.823  -5.440   0.562  0.00  0.00    -0.375 N 
ATOM     11  C   UNL     1       0.253  -7.321   1.860  0.00  0.00    +0.052 C 
ATOM     12  C   UNL     1       1.292  -6.337   1.291  0.00  0.00    +0.114 C 
ATOM     13  N   UNL     1       0.776  -4.968   1.400  0.00  0.00    -0.276 N 
ATOM     14  C   UNL     1       1.476  -4.044   2.087  0.00  0.00    +0.307 C 
ATOM     15  O   UNL     1       0.983  -2.957   2.320  0.00  0.00    -0.252 OA
ATOM     16  N   UNL     1       2.723  -4.324   2.516  0.00  0.00    -0.269 N 
ATOM     17  H   UNL     1       3.152  -5.152   2.250  0.00  0.00    +0.156 HD
ATOM     18  H   UNL     1      -3.350  -4.648   0.371  0.00  0.00    +0.160 HD
ENDROOT
BRANCH   1  23
ATOM     19  C   UNL     1      -1.659   0.963   1.843  0.00  0.00    +0.044 C 
ATOM     20  C   UNL     1      -1.356  -0.486   1.562  0.00  0.00    -0.050 A 
ATOM     21  C   UNL     1      -1.654  -1.450   2.507  0.00  0.00    +0.004 A 
ATOM     22  C   UNL     1      -1.377  -2.780   2.250  0.00  0.00    +0.006 A 
ATOM     23  C   UNL     1      -0.802  -3.145   1.047  0.00  0.00    -0.025 A 
ATOM     24  C   UNL     1      -0.504  -2.181   0.102  0.00  0.00    +0.006 A 
ATOM     25  C   UNL     1      -0.786  -0.852   0.358  0.00  0.00    +0.004 A 
ENDBRANCH   1  23
BRANCH  16  26
ATOM     26  C   UNL     1       3.398  -3.419   3.345  0.00  0.00    +0.042 A 
ATOM     27  C   UNL     1       3.140  -2.059   3.244  0.00  0.00    +0.073 A 
ATOM     28  C   UNL     1       3.808  -1.163   4.064  0.00  0.00    +0.167 A 
ATOM     29  C   UNL     1       4.735  -1.627   4.989  0.00  0.00    +0.204 A 
ATOM     30  C   UNL     1       4.993  -2.990   5.091  0.00  0.00    +0.167 A 
ATOM     31  C   UNL     1       4.320  -3.884   4.273  0.00  0.00    +0.073 A 
BRANCH  30  32
ATOM     32  O   UNL     1       5.900  -3.445   5.995  0.00  0.00    -0.491 OA
ATOM     33  C   UNL     1       6.115  -4.857   6.045  0.00  0.00    +0.277 C 
ENDBRANCH  30  32
BRANCH  29  34
ATOM     34  O   UNL     1       5.391  -0.748   5.796  0.00  0.00    -0.488 OA
ATOM     35  C   UNL     1       4.781  -0.439   7.050  0.00  0.00    +0.277 C 
ENDBRANCH  29  34
BRANCH  28  36
ATOM     36  O   UNL     1       3.555   0.169   3.964  0.00  0.00    -0.491 OA
ATOM     37  C   UNL     1       2.590   0.575   2.991  0.00  0.00    +0.277 C 
ENDBRANCH  28  36
ENDBRANCH  16  26
TORSDOF 5
