REMARK  Name = ZINC33931430
REMARK  11 active torsions:
REMARK  status: ('A' for Active; 'I' for Inactive)
REMARK    1  A    between atoms: C_1  and  C_2
REMARK    2  A    between atoms: C_2  and  C_3
REMARK    3  A    between atoms: C_3  and  C_4
REMARK    4  A    between atoms: C_4  and  N_5
REMARK    5  A    between atoms: C_10  and  C_25
REMARK    6  A    between atoms: C_13  and  C_18
REMARK    7  A    between atoms: C_13  and  C_22
REMARK    8  A    between atoms: C_18  and  C_19
REMARK    9  A    between atoms: C_29  and  O_32
REMARK   10  A    between atoms: C_30  and  O_31
REMARK   11  A    between atoms: O_32  and  C_33
REMARK                            x       y       z     vdW  Elec       q    Type
REMARK                         _______ _______ _______ _____ _____    ______ ____
ROOT
ATOM      1  N   UNL     1       1.185  -2.918   2.588  0.00  0.00    -0.242 N 
ATOM      2  C   UNL     1       2.548  -3.064   2.506  0.00  0.00    +0.224 C 
ATOM      3  O   UNL     1       3.271  -2.752   1.585  0.00  0.00    -0.275 OA
ATOM      4  C   UNL     1       2.929  -3.670   3.758  0.00  0.00    +0.077 C 
ATOM      5  C   UNL     1       4.107  -3.846   4.624  0.00  0.00    -0.023 C 
ATOM      6  N   UNL     1       3.496  -4.411   5.876  0.00  0.00    +0.396 N 
ATOM      7  C   UNL     1       2.057  -4.012   5.903  0.00  0.00    +0.058 C 
ATOM      8  C   UNL     1       1.908  -2.996   4.760  0.00  0.00    +0.086 C 
ATOM      9  C   UNL     1       0.710  -3.095   3.857  0.00  0.00    +0.225 C 
ATOM     10  O   UNL     1      -0.439  -3.293   4.187  0.00  0.00    -0.275 OA
ATOM     11  H   UNL     1       3.571  -5.417   5.869  0.00  0.00    -0.083 HD
ATOM     12  H   UNL     1       3.969  -4.038   6.685  0.00  0.00    -0.083 HD
ENDROOT
BRANCH   5  13
ATOM     13  C   UNL     1       5.082  -4.820   4.013  0.00  0.00    -0.015 A 
ATOM     14  C   UNL     1       4.993  -6.167   4.313  0.00  0.00    +0.006 A 
ATOM     15  C   UNL     1       5.885  -7.063   3.755  0.00  0.00    +0.004 A 
ATOM     16  C   UNL     1       6.871  -6.616   2.895  0.00  0.00    +0.049 A 
ATOM     17  C   UNL     1       6.966  -5.269   2.590  0.00  0.00    +0.161 A 
ATOM     18  C   UNL     1       6.063  -4.367   3.147  0.00  0.00    +0.160 A 
BRANCH  18  19
ATOM     19  O   UNL     1       6.149  -3.043   2.846  0.00  0.00    -0.503 OA
ATOM     20  H   UNL     1       6.721  -2.541   3.442  0.00  0.00    +0.292 HD
ENDBRANCH  18  19
BRANCH  17  21
ATOM     21  O   UNL     1       7.935  -4.828   1.744  0.00  0.00    -0.491 OA
ATOM     22  C   UNL     1       8.822  -5.810   1.205  0.00  0.00    +0.277 C 
ENDBRANCH  17  21
ENDBRANCH   5  13
BRANCH   7  23
ATOM     23  C   UNL     1       1.723  -3.354   7.216  0.00  0.00    +0.347 C 
ATOM     24  O   UNL     1       2.578  -3.242   8.078  0.00  0.00    -0.248 OA
ATOM     25  O   UNL     1       0.596  -2.933   7.418  0.00  0.00    -0.248 OA
ENDBRANCH   7  23
BRANCH   1  26
ATOM     26  C   UNL     1       0.332  -2.601   1.439  0.00  0.00    +0.116 C 
BRANCH  26  27
ATOM     27  C   UNL     1       0.208  -1.082   1.300  0.00  0.00    +0.019 C 
BRANCH  27  29
ATOM     28  C   UNL     1      -0.807   0.767  -0.038  0.00  0.00    +0.004 C 
ATOM     29  C   UNL     1      -0.682  -0.751   0.101  0.00  0.00    -0.002 C 
ENDBRANCH  27  29
ENDBRANCH  26  27
ENDBRANCH   1  26
BRANCH   7  30
ATOM     30  C   UNL     1       1.164  -5.234   5.679  0.00  0.00    +0.125 C 
BRANCH  30  31
ATOM     31  C   UNL     1       1.389  -6.230   6.787  0.00  0.00    +0.355 C 
ATOM     32  O   UNL     1       2.189  -5.986   7.673  0.00  0.00    -0.246 OA
ATOM     33  O   UNL     1       0.770  -7.281   6.796  0.00  0.00    -0.246 OA
ENDBRANCH  30  31
ENDBRANCH   7  30
TORSDOF 9
