REMARK  Name = ZINC58501367
REMARK  5 active torsions:
REMARK  status: ('A' for Active; 'I' for Inactive)
REMARK    1  A    between atoms: C_6  and  S_7
REMARK    2  A    between atoms: S_7  and  N_10
REMARK    3  A    between atoms: N_10  and  C_11
REMARK    4  A    between atoms: C_11  and  C_12
REMARK    5  A    between atoms: N_14  and  C_15
REMARK                            x       y       z     vdW  Elec       q    Type
REMARK                         _______ _______ _______ _____ _____    ______ ____
ROOT
ATOM      1  S   UNL     1      -1.514  -0.902   0.012  0.00  0.00    +0.059 S 
ATOM      2  O   UNL     1      -1.223  -2.183   0.553  0.00  0.00    -0.153 OA
ATOM      3  O   UNL     1      -2.493  -0.041   0.577  0.00  0.00    -0.153 OA
ENDROOT
BRANCH   1   9
ATOM      4  C   UNL     1      -0.017   1.380   0.010  0.00  0.00    +0.030 A 
ATOM      5  C   UNL     1       1.167   2.093   0.002  0.00  0.00    +0.030 A 
ATOM      6  C   UNL     1       2.378   1.419  -0.013  0.00  0.00    +0.067 A 
ATOM      7  C   UNL     1       2.397   0.022  -0.021  0.00  0.00    +0.069 A 
ATOM      8  C   UNL     1       1.204  -0.684  -0.014  0.00  0.00    +0.056 A 
ATOM      9  C   UNL     1       0.002  -0.004   0.002  0.00  0.00    +0.107 A 
ATOM     10  N   UNL     1       3.736  -0.362  -0.035  0.00  0.00    -0.306 N 
ATOM     11  H   UNL     1       4.064  -1.275  -0.043  0.00  0.00    +0.170 HD
ATOM     12  C   UNL     1       4.496   0.749  -0.035  0.00  0.00    +0.325 A 
ATOM     13  O   UNL     1       5.713   0.766  -0.047  0.00  0.00    -0.247 OA
ATOM     14  N   UNL     1       3.706   1.839  -0.023  0.00  0.00    -0.306 N 
ATOM     15  H   UNL     1       4.010   2.760  -0.020  0.00  0.00    +0.170 HD
ENDBRANCH   1   9
BRANCH   1  16
ATOM     16  N   UNL     1      -1.951  -1.143  -1.567  0.00  0.00    -0.181 NA
ATOM     17  H   UNL     1      -2.757  -0.732  -1.915  0.00  0.00    +0.149 HD
BRANCH  16  18
ATOM     18  C   UNL     1      -1.119  -1.977  -2.438  0.00  0.00    +0.201 C 
BRANCH  18  19
ATOM     19  C   UNL     1      -1.896  -2.339  -3.678  0.00  0.00    +0.229 C 
ATOM     20  O   UNL     1      -3.032  -1.940  -3.820  0.00  0.00    -0.274 OA
ATOM     21  N   UNL     1      -1.327  -3.107  -4.629  0.00  0.00    -0.311 N 
ATOM     22  H   UNL     1      -0.418  -3.426  -4.515  0.00  0.00    +0.149 HD
BRANCH  21  23
ATOM     23  C   UNL     1      -2.082  -3.459  -5.834  0.00  0.00    +0.073 C 
ATOM     24  C   UNL     1      -2.940  -4.695  -5.556  0.00  0.00    +0.022 C 
ATOM     25  C   UNL     1      -3.728  -5.062  -6.814  0.00  0.00    +0.002 C 
ATOM     26  C   UNL     1      -2.755  -5.363  -7.956  0.00  0.00    +0.000 C 
ATOM     27  C   UNL     1      -1.897  -4.127  -8.234  0.00  0.00    +0.002 C 
ATOM     28  C   UNL     1      -1.109  -3.760  -6.975  0.00  0.00    +0.022 C 
ENDBRANCH  21  23
ENDBRANCH  18  19
ENDBRANCH  16  18
ENDBRANCH   1  16
TORSDOF 5
