REMARK  Name = ZINC22373992
REMARK  10 active torsions:
REMARK  status: ('A' for Active; 'I' for Inactive)
REMARK    1  A    between atoms: C_1  and  C_2
REMARK    2  A    between atoms: C_5  and  C_9
REMARK    3  A    between atoms: C_7  and  C_8
REMARK    4  A    between atoms: C_9  and  C_11
REMARK    5  A    between atoms: C_9  and  N_12
REMARK    6  A    between atoms: C_13  and  C_15
REMARK    7  A    between atoms: C_15  and  N_16
REMARK    8  A    between atoms: N_16  and  C_17
REMARK    9  A    between atoms: N_16  and  S_25
REMARK   10  A    between atoms: S_25  and  C_28
REMARK                            x       y       z     vdW  Elec       q    Type
REMARK                         _______ _______ _______ _____ _____    ______ ____
ROOT
ATOM      1  N   UNL     1      -0.699   1.568  -1.172  0.00  0.00    -0.194 N 
ENDROOT
BRANCH   1   2
ATOM      2  C   UNL     1      -1.783   0.837  -1.669  0.00  0.00    +0.053 A 
ATOM      3  C   UNL     1      -2.077   0.866  -3.026  0.00  0.00    +0.027 A 
ATOM      4  C   UNL     1      -3.144   0.139  -3.516  0.00  0.00    +0.042 A 
ATOM      5  C   UNL     1      -3.928  -0.609  -2.655  0.00  0.00    +0.142 A 
ATOM      6  C   UNL     1      -3.640  -0.635  -1.300  0.00  0.00    +0.078 A 
ATOM      7  C   UNL     1      -2.570   0.086  -0.806  0.00  0.00    +0.047 A 
ATOM      8 CL   UNL     1      -4.625  -1.575  -0.222  0.00  0.00    -0.081 Cl
ATOM      9  F   UNL     1      -4.975  -1.315  -3.136  0.00  0.00    -0.204 F 
ENDBRANCH   1   2
BRANCH   1  10
ATOM     10  S   UNL     1      -0.626   3.205  -1.409  0.00  0.00    +0.075 S 
ATOM     11  O   UNL     1      -1.941   3.626  -1.746  0.00  0.00    -0.150 OA
ATOM     12  O   UNL     1       0.087   3.744  -0.305  0.00  0.00    -0.150 OA
BRANCH  10  13
ATOM     13  C   UNL     1       0.372   3.480  -2.836  0.00  0.00    +0.109 A 
ATOM     14  C   UNL     1       1.748   3.530  -2.717  0.00  0.00    +0.029 A 
ATOM     15  C   UNL     1       2.531   3.741  -3.837  0.00  0.00    +0.002 A 
ATOM     16  C   UNL     1       1.937   3.912  -5.073  0.00  0.00    +0.000 A 
ATOM     17  C   UNL     1       0.560   3.867  -5.191  0.00  0.00    +0.002 A 
ATOM     18  C   UNL     1      -0.222   3.651  -4.072  0.00  0.00    +0.029 A 
ENDBRANCH  10  13
ENDBRANCH   1  10
BRANCH   1  19
ATOM     19  C   UNL     1       0.371   0.885  -0.440  0.00  0.00    +0.227 C 
BRANCH  19  21
ATOM     20  N   UNL     1       0.819   0.151   1.879  0.00  0.00    -0.307 N 
ATOM     21  C   UNL     1      -0.018   0.751   1.010  0.00  0.00    +0.233 C 
ATOM     22  O   UNL     1      -1.084   1.183   1.394  0.00  0.00    -0.274 OA
ATOM     23  H   UNL     1       1.786  -0.241   1.530  0.00  0.00    +0.149 HD
BRANCH  20  24
ATOM     24  C   UNL     1       0.441   0.020   3.288  0.00  0.00    +0.100 C 
ATOM     25  C   UNL     1       0.816   1.300   4.038  0.00  0.00    +0.033 C 
BRANCH  24  30
ATOM     26  C   UNL     1       3.234  -4.467   5.624  0.00  0.00    +0.044 C 
ATOM     27  C   UNL     1       2.505  -3.297   5.014  0.00  0.00    -0.048 A 
ATOM     28  C   UNL     1       3.159  -2.462   4.128  0.00  0.00    +0.004 A 
ATOM     29  C   UNL     1       2.490  -1.391   3.566  0.00  0.00    +0.006 A 
ATOM     30  C   UNL     1       1.169  -1.150   3.897  0.00  0.00    -0.027 A 
ATOM     31  C   UNL     1       0.515  -1.987   4.782  0.00  0.00    +0.009 A 
ATOM     32  C   UNL     1       1.183  -3.060   5.341  0.00  0.00    -0.047 A 
ATOM     33  C   UNL     1       0.471  -3.971   6.307  0.00  0.00    +0.044 C 
ENDBRANCH  24  30
ENDBRANCH  20  24
ENDBRANCH  19  21
ENDBRANCH   1  19
TORSDOF 7
