REMARK  Name = ZINC61887434
REMARK  7 active torsions:
REMARK  status: ('A' for Active; 'I' for Inactive)
REMARK    1  A    between atoms: C_1  and  C_2
REMARK    2  A    between atoms: C_2  and  C_3
REMARK    3  A    between atoms: C_2  and  C_4
REMARK    4  A    between atoms: C_2  and  C_5
REMARK    5  A    between atoms: N_7  and  C_8
REMARK    6  A    between atoms: C_13  and  C_15
REMARK    7  A    between atoms: N_16  and  O_17
REMARK                            x       y       z     vdW  Elec       q    Type
REMARK                         _______ _______ _______ _____ _____    ______ ____
ROOT
ATOM      1  C   UNL     1       1.532  -2.285  -2.665  0.00  0.00    +0.083 C 
ATOM      2  C   UNL     1       3.051  -2.372  -2.409  0.00  0.00    +0.023 C 
ATOM      3  C   UNL     1       3.286  -3.854  -2.022  0.00  0.00    +0.003 C 
ATOM      4  C   UNL     1       2.312  -4.610  -2.959  0.00  0.00    +0.013 C 
ATOM      5  C   UNL     1       1.062  -3.707  -3.016  0.00  0.00    +0.076 C 
ENDROOT
BRANCH   5   6
ATOM      6  C   UNL     1       0.470  -3.728  -4.402  0.00  0.00    +0.136 C 
ATOM      7  N   UNL     1       0.828  -2.841  -5.270  0.00  0.00    -0.076 NA
ATOM      8  N   UNL     1      -0.451  -4.693  -4.743  0.00  0.00    -0.344 N 
ATOM      9  H   UNL     1      -0.720  -5.359  -4.091  0.00  0.00    +0.144 HD
ATOM     10  H   UNL     1      -0.832  -4.707  -5.635  0.00  0.00    +0.144 HD
BRANCH   7  11
ATOM     11  O   UNL     1       0.273  -2.861  -6.572  0.00  0.00    -0.408 OA
ATOM     12  H   UNL     1       0.601  -2.159  -7.151  0.00  0.00    +0.328 HD
ENDBRANCH   7  11
ENDBRANCH   5   6
BRANCH   1  15
ATOM     13  C   UNL     1       0.707  -0.490  -1.238  0.00  0.00    +0.219 C 
ATOM     14  O   UNL     1       1.150   0.308  -2.036  0.00  0.00    -0.275 OA
ATOM     15  N   UNL     1       0.847  -1.812  -1.460  0.00  0.00    -0.311 N 
ATOM     16  H   UNL     1       0.493  -2.451  -0.821  0.00  0.00    +0.149 HD
BRANCH  13  18
ATOM     17  C   UNL     1      -0.019   1.526   0.010  0.00  0.00    +0.020 C 
ATOM     18  C   UNL     1       0.002  -0.004   0.002  0.00  0.00    +0.039 C 
ATOM     19  C   UNL     1       0.742  -0.511   1.242  0.00  0.00    +0.020 C 
ATOM     20  C   UNL     1      -1.433  -0.534   0.013  0.00  0.00    +0.020 C 
ENDBRANCH  13  18
ENDBRANCH   1  15
TORSDOF 4
