REMARK  Name = ZINC01004567
REMARK  5 active torsions:
REMARK  status: ('A' for Active; 'I' for Inactive)
REMARK    1  A    between atoms: C_6  and  C_12
REMARK    2  A    between atoms: C_7  and  O_11
REMARK    3  A    between atoms: C_12  and  C_14
REMARK    4  A    between atoms: C_12  and  N_23
REMARK    5  A    between atoms: C_17  and  N_20
REMARK                            x       y       z     vdW  Elec       q    Type
REMARK                         _______ _______ _______ _____ _____    ______ ____
ROOT
ATOM      1  C   UNL     1       2.469   3.912   0.001  0.00  0.00    +0.136 C 
ENDROOT
BRANCH   1   7
ATOM      2  C   UNL     1      -3.328   1.125   0.196  0.00  0.00    +0.020 A 
ATOM      3  C   UNL     1      -2.103   0.529   0.093  0.00  0.00    +0.011 A 
ATOM      4  C   UNL     1      -0.963   1.354   0.072  0.00  0.00    +0.004 A 
ATOM      5  C   UNL     1       0.329   0.813  -0.032  0.00  0.00    +0.010 A 
ATOM      6  C   UNL     1       1.408   1.643  -0.055  0.00  0.00    +0.010 A 
ATOM      7  C   UNL     1       1.252   3.024   0.029  0.00  0.00    +0.021 A 
ATOM      8  C   UNL     1       0.012   3.586   0.138  0.00  0.00    +0.148 A 
ATOM      9  C   UNL     1      -1.130   2.758   0.165  0.00  0.00    +0.113 A 
ATOM     10  N   UNL     1      -2.356   3.277   0.269  0.00  0.00    -0.251 NA
ATOM     11  C   UNL     1      -3.421   2.512   0.277  0.00  0.00    +0.111 A 
BRANCH   8  12
ATOM     12  O   UNL     1      -0.121   4.936   0.220  0.00  0.00    -0.504 OA
ATOM     13  H   UNL     1      -0.215   5.375  -0.636  0.00  0.00    +0.292 HD
ENDBRANCH   8  12
ENDBRANCH   1   7
BRANCH   1  14
ATOM     14  N   UNL     1       3.558   3.225  -0.698  0.00  0.00    -0.313 N 
ATOM     15  C   UNL     1       3.662   3.315  -2.077  0.00  0.00    +0.159 A 
ATOM     16  N   UNL     1       4.611   2.852  -2.869  0.00  0.00    -0.233 NA
ATOM     17  C   UNL     1       4.555   3.027  -4.176  0.00  0.00    +0.120 A 
ATOM     18  C   UNL     1       3.497   3.696  -4.693  0.00  0.00    +0.068 A 
ATOM     19  S   UNL     1       2.574   4.060  -3.207  0.00  0.00    -0.061 S 
ATOM     20  H   UNL     1       4.207   2.708  -0.195  0.00  0.00    +0.149 HD
ENDBRANCH   1  14
BRANCH   1  21
ATOM     21  C   UNL     1       2.896   4.224   1.412  0.00  0.00    -0.023 A 
ATOM     22  C   UNL     1       3.522   3.257   2.175  0.00  0.00    +0.008 A 
ATOM     23  C   UNL     1       3.918   3.545   3.468  0.00  0.00    +0.033 A 
ATOM     24  C   UNL     1       3.678   4.797   4.001  0.00  0.00    +0.126 A 
ATOM     25  C   UNL     1       3.047   5.763   3.240  0.00  0.00    +0.033 A 
ATOM     26  C   UNL     1       2.656   5.477   1.946  0.00  0.00    +0.008 A 
BRANCH  24  27
ATOM     27  N   UNL     1       4.096   5.104   5.388  0.00  0.00    +0.056 N 
ATOM     28  O   UNL     1       3.884   6.207   5.858  0.00  0.00    -0.126 OA
ATOM     29  O   UNL     1       4.653   4.253   6.058  0.00  0.00    -0.126 OA
ENDBRANCH  24  27
ENDBRANCH   1  21
TORSDOF 5
