REMARK  Name = ZINC36674276
REMARK  15 active torsions:
REMARK  status: ('A' for Active; 'I' for Inactive)
REMARK    1  A    between atoms: C_1  and  C_2
REMARK    2  A    between atoms: C_2  and  C_3
REMARK    3  A    between atoms: C_2  and  C_4
REMARK    4  A    between atoms: C_2  and  N_5
REMARK    5  A    between atoms: N_5  and  S_6
REMARK    6  A    between atoms: S_6  and  C_9
REMARK    7  A    between atoms: C_11  and  C_17
REMARK    8  A    between atoms: C_14  and  O_15
REMARK    9  A    between atoms: O_15  and  C_16
REMARK   10  A    between atoms: N_19  and  C_20
REMARK   11  A    between atoms: C_20  and  C_21
REMARK   12  A    between atoms: C_21  and  C_23
REMARK   13  A    between atoms: C_21  and  N_30
REMARK   14  A    between atoms: N_30  and  C_31
REMARK   15  A    between atoms: N_30  and  C_32
REMARK                            x       y       z     vdW  Elec       q    Type
REMARK                         _______ _______ _______ _____ _____    ______ ____
ROOT
ATOM      1  C   UNL     1       2.946  -1.524  -1.803  0.00  0.00    +0.147 A 
ATOM      2  C   UNL     1       4.149  -2.113  -2.126  0.00  0.00    +0.045 A 
ATOM      3  C   UNL     1       5.094  -2.361  -1.128  0.00  0.00    +0.039 A 
ATOM      4  C   UNL     1       4.815  -2.012   0.196  0.00  0.00    +0.017 A 
ATOM      5  C   UNL     1       3.611  -1.424   0.511  0.00  0.00    +0.048 A 
ATOM      6  C   UNL     1       2.675  -1.173  -0.486  0.00  0.00    +0.146 A 
ENDROOT
BRANCH   3   7
ATOM      7  C   UNL     1       6.383  -2.993  -1.471  0.00  0.00    +0.244 C 
ATOM      8  O   UNL     1       6.624  -3.296  -2.623  0.00  0.00    -0.270 OA
ATOM      9  N   UNL     1       7.294  -3.232  -0.506  0.00  0.00    -0.313 N 
ATOM     10  H   UNL     1       7.102  -2.989   0.413  0.00  0.00    +0.149 HD
BRANCH   9  11
ATOM     11  C   UNL     1       8.574  -3.858  -0.846  0.00  0.00    +0.094 C 
BRANCH  11  12
ATOM     12  C   UNL     1       9.363  -4.133   0.435  0.00  0.00    -0.020 C 
BRANCH  12  13
ATOM     13  C   UNL     1       9.742  -2.826   1.083  0.00  0.00    -0.041 A 
ATOM     14  C   UNL     1       9.009  -2.347   2.153  0.00  0.00    +0.003 A 
ATOM     15  C   UNL     1       9.356  -1.148   2.747  0.00  0.00    +0.000 A 
ATOM     16  C   UNL     1      10.436  -0.427   2.271  0.00  0.00    +0.001 A 
ATOM     17  C   UNL     1      11.169  -0.905   1.202  0.00  0.00    +0.020 A 
ATOM     18  C   UNL     1      10.826  -2.108   0.610  0.00  0.00    +0.043 A 
ATOM     19 CL   UNL     1      11.750  -2.713  -0.729  0.00  0.00    -0.083 Cl
ENDBRANCH  12  13
BRANCH  12  20
ATOM     20  N   UNL     1       8.535  -4.917   1.362  0.00  0.00    +0.382 N 
ATOM     21  C   UNL     1       8.061  -6.132   0.686  0.00  0.00    -0.096 C 
ATOM     22  C   UNL     1       9.334  -5.290   2.537  0.00  0.00    -0.096 C 
ATOM     23  H   UNL     1       7.744  -4.364   1.655  0.00  0.00    -0.082 HD
ENDBRANCH  12  20
ENDBRANCH  11  12
ENDBRANCH   9  11
ENDBRANCH   3   7
BRANCH   1  24
ATOM     24  S   UNL     1       1.753  -1.210  -3.061  0.00  0.00    +0.062 S 
ATOM     25  O   UNL     1       2.308  -1.694  -4.276  0.00  0.00    -0.153 OA
ATOM     26  O   UNL     1       1.337   0.139  -2.898  0.00  0.00    -0.153 OA
BRANCH  24  27
ATOM     27  N   UNL     1       0.434  -2.156  -2.732  0.00  0.00    -0.185 NA
ATOM     28  H   UNL     1      -0.410  -1.744  -2.492  0.00  0.00    +0.149 HD
BRANCH  27  30
ATOM     29  C   UNL     1       1.505  -4.109  -1.722  0.00  0.00    +0.029 C 
ATOM     30  C   UNL     1       0.543  -3.615  -2.805  0.00  0.00    +0.032 C 
ATOM     31  C   UNL     1       1.073  -4.019  -4.182  0.00  0.00    +0.029 C 
ATOM     32  C   UNL     1      -0.836  -4.241  -2.585  0.00  0.00    +0.029 C 
ENDBRANCH  27  30
ENDBRANCH  24  27
ENDBRANCH   1  24
BRANCH   6  33
ATOM     33  O   UNL     1       1.491  -0.588  -0.172  0.00  0.00    -0.493 OA
ATOM     34  C   UNL     1       1.320  -0.154   1.179  0.00  0.00    +0.277 C 
ENDBRANCH   6  33
TORSDOF 9
