REMARK  Name = ZINC36735715
REMARK  8 active torsions:
REMARK  status: ('A' for Active; 'I' for Inactive)
REMARK    1  A    between atoms: C_1  and  N_2
REMARK    2  A    between atoms: N_2  and  C_3
REMARK    3  A    between atoms: N_2  and  C_4
REMARK    4  A    between atoms: C_4  and  C_6
REMARK    5  A    between atoms: C_4  and  C_26
REMARK    6  A    between atoms: C_6  and  N_7
REMARK    7  A    between atoms: C_8  and  C_10
REMARK    8  A    between atoms: C_10  and  N_11
REMARK                            x       y       z     vdW  Elec       q    Type
REMARK                         _______ _______ _______ _____ _____    ______ ____
ROOT
ATOM      1  N   UNL     1      -0.964  -2.611   0.830  0.00  0.00    -0.315 N 
ATOM      2  C   UNL     1      -1.054  -3.951   0.934  0.00  0.00    +0.231 C 
ATOM      3  O   UNL     1      -1.720  -4.578   0.139  0.00  0.00    -0.274 OA
ATOM      4  H   UNL     1      -0.430  -2.109   1.467  0.00  0.00    +0.149 HD
ENDROOT
BRANCH   1   5
ATOM      5  C   UNL     1      -1.671  -1.911  -0.244  0.00  0.00    +0.093 C 
BRANCH   5   6
ATOM      6  C   UNL     1      -1.510  -0.400  -0.062  0.00  0.00    -0.020 C 
BRANCH   6   7
ATOM      7  C   UNL     1      -0.062  -0.024  -0.246  0.00  0.00    -0.041 A 
ATOM      8  C   UNL     1       0.770   0.082   0.852  0.00  0.00    +0.003 A 
ATOM      9  C   UNL     1       2.098   0.427   0.683  0.00  0.00    +0.000 A 
ATOM     10  C   UNL     1       2.595   0.666  -0.584  0.00  0.00    +0.001 A 
ATOM     11  C   UNL     1       1.764   0.560  -1.684  0.00  0.00    +0.020 A 
ATOM     12  C   UNL     1       0.436   0.210  -1.516  0.00  0.00    +0.043 A 
ATOM     13 CL   UNL     1      -0.607   0.071  -2.897  0.00  0.00    -0.083 Cl
ENDBRANCH   6   7
BRANCH   6  15
ATOM     14  C   UNL     1      -1.832   1.435   1.448  0.00  0.00    -0.096 C 
ATOM     15  N   UNL     1      -1.946  -0.020   1.288  0.00  0.00    +0.382 N 
ATOM     16  C   UNL     1      -3.344  -0.426   1.483  0.00  0.00    -0.096 C 
ATOM     17  H   UNL     1      -1.364  -0.480   1.972  0.00  0.00    -0.082 HD
ENDBRANCH   6  15
ENDBRANCH   5   6
ENDBRANCH   1   5
BRANCH   2  18
ATOM     18  C   UNL     1      -0.325  -4.672   2.040  0.00  0.00    +0.213 C 
BRANCH  18  19
ATOM     19  N   UNL     1      -0.581  -6.111   1.937  0.00  0.00    -0.215 N 
ATOM     20  C   UNL     1      -1.610  -6.745   2.540  0.00  0.00    +0.251 C 
ATOM     21  O   UNL     1      -2.467  -6.253   3.242  0.00  0.00    -0.272 OA
ATOM     22  C   UNL     1      -1.466  -8.193   2.151  0.00  0.00    +0.138 C 
ATOM     23  C   UNL     1      -1.298  -9.086   3.387  0.00  0.00    +0.045 C 
ATOM     24  C   UNL     1      -1.993 -10.393   2.940  0.00  0.00    +0.038 C 
ATOM     25  C   UNL     1      -2.993  -9.970   1.883  0.00  0.00    -0.042 A 
ATOM     26  C   UNL     1      -2.684  -8.699   1.428  0.00  0.00    -0.012 A 
ATOM     27  C   UNL     1      -3.470  -8.111   0.451  0.00  0.00    +0.006 A 
ATOM     28  C   UNL     1      -4.558  -8.785  -0.068  0.00  0.00    +0.000 A 
ATOM     29  C   UNL     1      -4.866 -10.053   0.388  0.00  0.00    +0.000 A 
ATOM     30  C   UNL     1      -4.083 -10.643   1.361  0.00  0.00    +0.004 A 
ATOM     31  N   UNL     1      -0.275  -8.230   1.301  0.00  0.00    -0.281 N 
ATOM     32  C   UNL     1       0.174  -6.960   1.228  0.00  0.00    +0.310 C 
ATOM     33  O   UNL     1       1.154  -6.626   0.592  0.00  0.00    -0.252 OA
ATOM     34  H   UNL     1       0.112  -9.010   0.874  0.00  0.00    +0.152 HD
ENDBRANCH  18  19
ENDBRANCH   2  18
TORSDOF 6
