REMARK  Name = ZINC25046529
REMARK  10 active torsions:
REMARK  status: ('A' for Active; 'I' for Inactive)
REMARK    1  A    between atoms: C_1  and  C_2
REMARK    2  A    between atoms: C_2  and  C_3
REMARK    3  A    between atoms: C_3  and  C_4
REMARK    4  A    between atoms: C_4  and  N_5
REMARK    5  A    between atoms: C_6  and  N_30
REMARK    6  A    between atoms: C_7  and  N_14
REMARK    7  A    between atoms: N_14  and  C_15
REMARK    8  A    between atoms: C_15  and  C_16
REMARK    9  A    between atoms: C_17  and  C_19
REMARK   10  A    between atoms: C_22  and  C_28
REMARK                            x       y       z     vdW  Elec       q    Type
REMARK                         _______ _______ _______ _____ _____    ______ ____
ROOT
ATOM      1  N   UNL     1       2.575  -0.712   0.806  0.00  0.00    -0.280 N 
ATOM      2  C   UNL     1       2.415   0.654   0.823  0.00  0.00    +0.127 A 
ATOM      3  C   UNL     1       1.867   1.282  -0.276  0.00  0.00    +0.140 A 
ATOM      4  C   UNL     1       1.488   0.503  -1.385  0.00  0.00    +0.277 A 
ATOM      5  O   UNL     1       1.001   1.032  -2.370  0.00  0.00    -0.266 OA
ATOM      6  N   UNL     1       1.667  -0.832  -1.352  0.00  0.00    -0.273 N 
ATOM      7  H   UNL     1       1.373  -1.448  -2.214  0.00  0.00    +0.173 HD
ATOM      8  C   UNL     1       2.202  -1.427  -0.271  0.00  0.00    +0.331 A 
ATOM      9  O   UNL     1       2.352  -2.634  -0.267  0.00  0.00    -0.246 OA
ENDROOT
BRANCH   3  10
ATOM     10  N   UNL     1       1.689   2.682  -0.289  0.00  0.00    -0.260 N 
ATOM     11  C   UNL     1       0.447   3.203  -0.318  0.00  0.00    +0.259 C 
ATOM     12  O   UNL     1      -0.522   2.472  -0.229  0.00  0.00    -0.269 OA
BRANCH  11  13
ATOM     13  C   UNL     1       0.262   4.653  -0.458  0.00  0.00    +0.094 A 
ATOM     14  C   UNL     1      -0.891   5.372  -0.387  0.00  0.00    +0.068 A 
ATOM     15  C   UNL     1      -0.857   6.770  -0.545  0.00  0.00    +0.011 A 
ATOM     16  C   UNL     1      -1.939   7.686  -0.500  0.00  0.00    -0.041 A 
ATOM     17  C   UNL     1      -1.732   9.016  -0.680  0.00  0.00    +0.004 A 
ATOM     18  C   UNL     1      -0.463   9.531  -0.912  0.00  0.00    +0.001 A 
ATOM     19  C   UNL     1       0.619   8.675  -0.963  0.00  0.00    +0.016 A 
ATOM     20  C   UNL     1       0.424   7.322  -0.783  0.00  0.00    +0.022 A 
ATOM     21  S   UNL     1       1.494   5.906  -0.769  0.00  0.00    -0.082 S 
ATOM     22  C   UNL     1      -3.336   7.176  -0.250  0.00  0.00    +0.044 C 
ATOM     23 CL   UNL     1      -2.401   4.566  -0.098  0.00  0.00    -0.082 Cl
ENDBRANCH  11  13
BRANCH  10  24
ATOM     24  C   UNL     1       2.855   3.568  -0.270  0.00  0.00    +0.111 C 
ATOM     25  C   UNL     1       3.279   3.885  -1.706  0.00  0.00    +0.025 C 
ENDBRANCH  10  24
ENDBRANCH   3  10
BRANCH   2  26
ATOM     26  N   UNL     1       2.791   1.384   1.925  0.00  0.00    -0.343 N 
ATOM     27  H   UNL     1       2.660   2.476   1.933  0.00  0.00    +0.144 HD
ATOM     28  H   UNL     1       3.223   0.876   2.800  0.00  0.00    +0.144 HD
ENDBRANCH   2  26
BRANCH   1  29
ATOM     29  C   UNL     1       3.156  -1.392   1.966  0.00  0.00    +0.128 C 
BRANCH  29  30
ATOM     30  C   UNL     1       2.040  -1.791   2.934  0.00  0.00    +0.021 C 
BRANCH  30  32
ATOM     31  C   UNL     1       1.530  -2.900   5.114  0.00  0.00    +0.004 C 
ATOM     32  C   UNL     1       2.646  -2.501   4.146  0.00  0.00    -0.002 C 
ENDBRANCH  30  32
ENDBRANCH  29  30
ENDBRANCH   1  29
TORSDOF 7
