REMARK  Name = ZINC65833041
REMARK  4 active torsions:
REMARK  status: ('A' for Active; 'I' for Inactive)
REMARK    1  A    between atoms: C_6  and  S_7
REMARK    2  A    between atoms: S_7  and  N_10
REMARK    3  A    between atoms: N_10  and  N_11
REMARK    4  A    between atoms: N_14  and  C_15
REMARK                            x       y       z     vdW  Elec       q    Type
REMARK                         _______ _______ _______ _____ _____    ______ ____
ROOT
ATOM      1  S   UNL     1      -1.513  -0.904   0.012  0.00  0.00    +0.074 S 
ATOM      2  O   UNL     1      -1.221  -2.185   0.553  0.00  0.00    -0.152 OA
ATOM      3  O   UNL     1      -2.492  -0.043   0.577  0.00  0.00    -0.152 OA
ENDROOT
BRANCH   1   9
ATOM      4  C   UNL     1      -0.017   1.378   0.010  0.00  0.00    +0.030 A 
ATOM      5  C   UNL     1       1.169   2.087   0.002  0.00  0.00    +0.025 A 
ATOM      6  C   UNL     1       2.380   1.409  -0.013  0.00  0.00    +0.037 A 
ATOM      7  C   UNL     1       2.396   0.020  -0.020  0.00  0.00    -0.024 A 
ATOM      8  C   UNL     1       1.208  -0.682  -0.013  0.00  0.00    +0.034 A 
ATOM      9  C   UNL     1       0.002  -0.004   0.002  0.00  0.00    +0.107 A 
ATOM     10  C   UNL     1       3.711  -0.715  -0.036  0.00  0.00    +0.046 C 
ATOM     11  C   UNL     1       4.733   0.084  -0.846  0.00  0.00    +0.101 C 
ATOM     12  C   UNL     1       4.727   1.522  -0.402  0.00  0.00    +0.218 C 
ATOM     13  O   UNL     1       5.766   2.148  -0.389  0.00  0.00    -0.275 OA
ATOM     14  N   UNL     1       3.584   2.120  -0.020  0.00  0.00    -0.285 N 
ATOM     15  H   UNL     1       3.595   3.051   0.251  0.00  0.00    +0.155 HD
ENDBRANCH   1   9
BRANCH   1  16
ATOM     16  N   UNL     1      -1.949  -1.145  -1.567  0.00  0.00    -0.107 NA
ATOM     17  H   UNL     1      -2.792  -0.796  -1.896  0.00  0.00    +0.172 HD
BRANCH  16  18
ATOM     18  N   UNL     1      -1.101  -1.854  -2.428  0.00  0.00    -0.216 N 
ATOM     19  C   UNL     1      -1.565  -2.928  -3.097  0.00  0.00    +0.315 C 
ATOM     20  O   UNL     1      -0.828  -3.543  -3.844  0.00  0.00    -0.251 OA
ATOM     21  N   UNL     1      -2.844  -3.321  -2.938  0.00  0.00    -0.296 N 
ATOM     22  H   UNL     1      -0.180  -1.571  -2.542  0.00  0.00    +0.172 HD
ATOM     23  H   UNL     1      -3.431  -2.830  -2.342  0.00  0.00    +0.151 HD
BRANCH  21  24
ATOM     24  C   UNL     1      -3.348  -4.489  -3.665  0.00  0.00    +0.074 C 
ATOM     25  C   UNL     1      -3.879  -4.061  -5.048  0.00  0.00    +0.022 C 
ATOM     26  C   UNL     1      -5.120  -4.960  -5.273  0.00  0.00    +0.002 C 
ATOM     27  C   UNL     1      -5.749  -5.034  -3.860  0.00  0.00    +0.002 C 
ATOM     28  C   UNL     1      -4.537  -5.108  -2.909  0.00  0.00    +0.022 C 
ENDBRANCH  21  24
ENDBRANCH  16  18
ENDBRANCH   1  16
TORSDOF 4
