REMARK  Name = ZINC34860266
REMARK  4 active torsions:
REMARK  status: ('A' for Active; 'I' for Inactive)
REMARK    1  A    between atoms: C_4  and  C_7
REMARK    2  A    between atoms: C_12  and  C_14
REMARK    3  A    between atoms: C_14  and  N_15
REMARK    4  A    between atoms: C_16  and  C_18
REMARK                            x       y       z     vdW  Elec       q    Type
REMARK                         _______ _______ _______ _____ _____    ______ ____
ROOT
ATOM      1  C   UNL     1       6.014  -2.662   5.405  0.00  0.00    +0.130 C 
ATOM      2  C   UNL     1       4.657  -2.416   6.024  0.00  0.00    -0.021 A 
ATOM      3  C   UNL     1       3.509  -2.722   5.328  0.00  0.00    +0.005 A 
ATOM      4  C   UNL     1       2.270  -2.503   5.905  0.00  0.00    +0.000 A 
ATOM      5  C   UNL     1       2.183  -1.977   7.182  0.00  0.00    +0.001 A 
ATOM      6  C   UNL     1       3.326  -1.663   7.886  0.00  0.00    +0.013 A 
ATOM      7  C   UNL     1       4.581  -1.877   7.309  0.00  0.00    +0.041 A 
ATOM      8  C   UNL     1       5.800  -1.520   8.059  0.00  0.00    +0.247 C 
ATOM      9  O   UNL     1       5.683  -1.074   9.184  0.00  0.00    -0.270 OA
ATOM     10  N   UNL     1       7.031  -1.668   7.552  0.00  0.00    -0.289 N 
ATOM     11  C   UNL     1       7.244  -2.322   6.260  0.00  0.00    +0.123 C 
ATOM     12  C   UNL     1       8.156  -1.455   5.437  0.00  0.00    -0.023 A 
ATOM     13  C   UNL     1       8.252  -1.725   4.077  0.00  0.00    +0.006 A 
ATOM     14  C   UNL     1       9.080  -0.975   3.269  0.00  0.00    +0.000 A 
ATOM     15  C   UNL     1       9.823   0.054   3.816  0.00  0.00    +0.000 A 
ATOM     16  C   UNL     1       9.726   0.328   5.164  0.00  0.00    +0.004 A 
ATOM     17  C   UNL     1       8.886  -0.421   5.981  0.00  0.00    -0.041 A 
ATOM     18  C   UNL     1       8.811  -0.034   7.434  0.00  0.00    +0.054 C 
ATOM     19  C   UNL     1       8.210  -1.166   8.269  0.00  0.00    +0.113 C 
ENDROOT
BRANCH   1  21
ATOM     20  N   UNL     1       6.038  -2.477   2.938  0.00  0.00    -0.314 N 
ATOM     21  C   UNL     1       6.096  -1.857   4.133  0.00  0.00    +0.223 C 
ATOM     22  O   UNL     1       6.215  -0.651   4.186  0.00  0.00    -0.275 OA
ATOM     23  H   UNL     1       6.019  -3.445   2.895  0.00  0.00    +0.149 HD
BRANCH  20  24
ATOM     24  C   UNL     1       6.003  -1.687   1.704  0.00  0.00    +0.108 C 
BRANCH  24  29
ATOM     25  C   UNL     1       5.776  -1.813  -0.796  0.00  0.00    +0.024 C 
ATOM     26  C   UNL     1       7.007  -2.126  -1.672  0.00  0.00    +0.008 C 
ATOM     27  C   UNL     1       8.085  -2.587  -0.661  0.00  0.00    +0.001 C 
ATOM     28  C   UNL     1       7.264  -3.408   0.364  0.00  0.00    +0.005 C 
ATOM     29  C   UNL     1       5.939  -2.627   0.499  0.00  0.00    +0.014 C 
BRANCH  25  33
ATOM     30  C   UNL     1       2.204  -2.984  -2.825  0.00  0.00    +0.000 A 
ATOM     31  C   UNL     1       2.371  -1.673  -2.421  0.00  0.00    +0.000 A 
ATOM     32  C   UNL     1       3.527  -1.294  -1.764  0.00  0.00    +0.004 A 
ATOM     33  C   UNL     1       4.515  -2.226  -1.511  0.00  0.00    -0.044 A 
ATOM     34  C   UNL     1       4.348  -3.538  -1.914  0.00  0.00    +0.004 A 
ATOM     35  C   UNL     1       3.192  -3.917  -2.572  0.00  0.00    +0.000 A 
ENDBRANCH  25  33
ENDBRANCH  24  29
ENDBRANCH  20  24
ENDBRANCH   1  21
TORSDOF 4
