REMARK  Name = ZINC44322001
REMARK  9 active torsions:
REMARK  status: ('A' for Active; 'I' for Inactive)
REMARK    1  A    between atoms: C_1  and  C_2
REMARK    2  A    between atoms: C_2  and  C_3
REMARK    3  A    between atoms: C_6  and  C_8
REMARK    4  A    between atoms: C_8  and  CA_9
REMARK    5  A    between atoms: CA_9  and  C_11
REMARK    6  A    between atoms: CA_9  and  N_14
REMARK    7  A    between atoms: C_15  and  O_17
REMARK    8  A    between atoms: O_17  and  C_18
REMARK    9  A    between atoms: C_18  and  C_19
REMARK                            x       y       z     vdW  Elec       q    Type
REMARK                         _______ _______ _______ _____ _____    ______ ____
ROOT
ATOM      1  N   UNL     1       4.128  -3.685   2.530  0.00  0.00    -0.267 N 
ATOM      2  C   UNL     1       3.860  -4.905   2.024  0.00  0.00    +0.401 C 
ATOM      3  O   UNL     1       3.273  -5.727   2.700  0.00  0.00    -0.226 OA
ATOM      4  H   UNL     1       4.597  -3.029   1.991  0.00  0.00    +0.153 HD
ENDROOT
BRANCH   1   5
ATOM      5  CA  UNL     1       3.713  -3.350   3.895  0.00  0.00    +0.194 C 
BRANCH   5   6
ATOM      6  C   UNL     1       4.759  -3.826   4.870  0.00  0.00    +0.376 C 
ATOM      7  O   UNL     1       4.436  -4.160   5.997  0.00  0.00    -0.244 OA
ATOM      8  OXT UNL     1       5.929  -3.877   4.531  0.00  0.00    -0.244 OA
ENDBRANCH   5   6
BRANCH   5   9
ATOM      9  C   UNL     1       3.550  -1.834   4.021  0.00  0.00    +0.076 C 
BRANCH   9  13
ATOM     10  C   UNL     1       0.731  -0.503   1.223  0.00  0.00    +0.004 A 
ATOM     11  C   UNL     1       0.236  -0.807   2.448  0.00  0.00    +0.028 A 
ATOM     12  C   UNL     1       1.102  -1.253   3.429  0.00  0.00    +0.026 A 
ATOM     13  C   UNL     1       2.420  -1.375   3.136  0.00  0.00    -0.007 A 
ATOM     14  S   UNL     1       2.469  -0.856   1.429  0.00  0.00    -0.097 S 
ATOM     15 BR   UNL     1      -1.611  -0.621   2.811  0.00  0.00    -0.049 Br
BRANCH  10  17
ATOM     16  C   UNL     1      -0.019   1.526   0.010  0.00  0.00    +0.009 C 
ATOM     17  C   UNL     1       0.002  -0.004   0.002  0.00  0.00    +0.040 C 
ENDBRANCH  10  17
ENDBRANCH   9  13
ENDBRANCH   5   9
ENDBRANCH   1   5
BRANCH   2  18
ATOM     18  O   UNL     1       4.241  -5.212   0.770  0.00  0.00    -0.449 OA
BRANCH  18  19
ATOM     19  C   UNL     1       3.924  -6.523   0.299  0.00  0.00    +0.246 C 
BRANCH  19  20
ATOM     20  C   UNL     1       4.433  -6.687  -1.135  0.00  0.00    +0.088 C 
ATOM     21  C   UNL     1       5.942  -6.699  -1.152  0.00  0.00    -0.029 A 
ATOM     22  C   UNL     1       6.879  -5.764  -0.767  0.00  0.00    +0.005 A 
ATOM     23  C   UNL     1       8.228  -6.042  -0.896  0.00  0.00    +0.000 A 
ATOM     24  C   UNL     1       8.639  -7.259  -1.410  0.00  0.00    +0.001 A 
ATOM     25  C   UNL     1       7.708  -8.200  -1.797  0.00  0.00    +0.009 A 
ATOM     26  C   UNL     1       6.345  -7.926  -1.671  0.00  0.00    -0.014 A 
ATOM     27  C   UNL     1       5.150  -8.740  -2.003  0.00  0.00    -0.014 A 
ATOM     28  C   UNL     1       3.999  -8.021  -1.691  0.00  0.00    -0.029 A 
ATOM     29  C   UNL     1       2.754  -8.571  -1.912  0.00  0.00    +0.005 A 
ATOM     30  C   UNL     1       2.644  -9.843  -2.446  0.00  0.00    +0.000 A 
ATOM     31  C   UNL     1       3.781 -10.565  -2.758  0.00  0.00    +0.001 A 
ATOM     32  C   UNL     1       5.031 -10.023  -2.540  0.00  0.00    +0.009 A 
ENDBRANCH  19  20
ENDBRANCH  18  19
ENDBRANCH   2  18
TORSDOF 8
