REMARK  Name = ZINC20650435
REMARK  5 active torsions:
REMARK  status: ('A' for Active; 'I' for Inactive)
REMARK    1  A    between atoms: C_8  and  C_12
REMARK    2  A    between atoms: C_12  and  C_13
REMARK    3  A    between atoms: C_13  and  N_14
REMARK    4  A    between atoms: C_15  and  C_17
REMARK    5  A    between atoms: C_27  and  N_30
REMARK                            x       y       z     vdW  Elec       q    Type
REMARK                         _______ _______ _______ _____ _____    ______ ____
ROOT
ATOM      1  N   UNL     1       4.446   0.915   1.400  0.00  0.00    -0.315 N 
ATOM      2  C   UNL     1       5.130   0.801   2.555  0.00  0.00    +0.218 C 
ATOM      3  O   UNL     1       4.591   1.067   3.608  0.00  0.00    -0.275 OA
ATOM      4  H   UNL     1       4.935   0.674   0.445  0.00  0.00    +0.149 HD
ENDROOT
BRANCH   2   5
ATOM      5  C   UNL     1       6.566   0.343   2.538  0.00  0.00    +0.092 C 
ATOM      6  C   UNL     1       7.404   1.319   1.709  0.00  0.00    +0.016 C 
ATOM      7  C   UNL     1       8.871   0.881   1.747  0.00  0.00    +0.020 C 
ATOM      8  C   UNL     1       9.344   0.824   3.202  0.00  0.00    +0.106 C 
ATOM      9  N   UNL     1       8.511  -0.125   3.952  0.00  0.00    -0.314 N 
ATOM     10  C   UNL     1       7.106   0.301   3.970  0.00  0.00    +0.119 C 
ATOM     11  C   UNL     1       8.995  -0.299   5.243  0.00  0.00    +0.121 A 
ATOM     12  C   UNL     1      10.311  -0.709   5.437  0.00  0.00    +0.046 A 
ATOM     13  C   UNL     1      10.780  -0.874   6.727  0.00  0.00    +0.037 A 
ATOM     14  C   UNL     1       9.913  -0.633   7.784  0.00  0.00    +0.144 A 
ATOM     15  C   UNL     1       8.618  -0.234   7.519  0.00  0.00    +0.145 A 
ATOM     16  N   UNL     1       8.198  -0.080   6.278  0.00  0.00    -0.238 NA
BRANCH  14  17
ATOM     17  N   UNL     1      10.371  -0.804   9.181  0.00  0.00    +0.058 N 
ATOM     18  O   UNL     1       9.605  -0.592  10.104  0.00  0.00    -0.126 OA
ATOM     19  O   UNL     1      11.515  -1.156   9.408  0.00  0.00    -0.126 OA
ENDBRANCH  14  17
ENDBRANCH   2   5
BRANCH   1  20
ATOM     20  C   UNL     1       3.050   1.360   1.416  0.00  0.00    +0.109 C 
BRANCH  20  21
ATOM     21  C   UNL     1       2.512   1.403  -0.015  0.00  0.00    +0.056 C 
BRANCH  21  29
ATOM     22  C   UNL     1      -0.899   5.575   0.041  0.00  0.00    +0.022 A 
ATOM     23  C   UNL     1      -1.542   4.357   0.041  0.00  0.00    +0.027 A 
ATOM     24  C   UNL     1      -0.801   3.180   0.027  0.00  0.00    +0.047 A 
ATOM     25  C   UNL     1       0.604   3.248   0.014  0.00  0.00    +0.004 A 
ATOM     26  C   UNL     1       1.242   4.490   0.014  0.00  0.00    +0.030 A 
ATOM     27  C   UNL     1       0.489   5.643   0.028  0.00  0.00    +0.042 A 
ATOM     28 CL   UNL     1       1.277   7.189   0.029  0.00  0.00    -0.084 Cl
ATOM     29  C   UNL     1       1.076   1.861   0.002  0.00  0.00    -0.021 A 
ATOM     30  C   UNL     1      -0.013   1.076   0.008  0.00  0.00    +0.087 A 
ATOM     31  N   UNL     1      -1.143   1.846   0.017  0.00  0.00    -0.360 N 
ATOM     32  H   UNL     1      -2.203   1.550   0.017  0.00  0.00    +0.165 HD
ENDBRANCH  21  29
ENDBRANCH  20  21
ENDBRANCH   1  20
TORSDOF 5
