REMARK  Name = ZINC35747109
REMARK  18 active torsions:
REMARK  status: ('A' for Active; 'I' for Inactive)
REMARK    1  A    between atoms: C_1  and  C_2
REMARK    2  A    between atoms: C_8  and  C_19
REMARK    3  A    between atoms: C_12  and  C_13
REMARK    4  A    between atoms: C_13  and  O_15
REMARK    5  A    between atoms: O_15  and  C_16
REMARK    6  A    between atoms: C_16  and  C_17
REMARK    7  A    between atoms: C_16  and  C_18
REMARK    8  A    between atoms: C_19  and  N_20
REMARK    9  A    between atoms: N_20  and  C_21
REMARK   10  A    between atoms: N_20  and  C_24
REMARK   11  A    between atoms: C_21  and  C_22
REMARK   12  A    between atoms: C_24  and  C_25
REMARK   13  A    between atoms: C_25  and  C_27
REMARK   14  A    between atoms: C_25  and  O_37
REMARK   15  A    between atoms: C_27  and  O_28
REMARK   16  A    between atoms: O_28  and  C_29
REMARK   17  A    between atoms: C_32  and  O_35
REMARK   18  A    between atoms: O_35  and  C_36
REMARK                            x       y       z     vdW  Elec       q    Type
REMARK                         _______ _______ _______ _____ _____    ______ ____
ROOT
ATOM      1  C   UNL     1       0.262  -3.563  -4.773  0.00  0.00    -0.003 C 
ENDROOT
BRANCH   1   9
ATOM      2  C   UNL     1       1.486   1.645  -0.818  0.00  0.00    +0.046 C 
ATOM      3  C   UNL     1       1.222   0.172  -0.642  0.00  0.00    -0.015 A 
ATOM      4  C   UNL     1       1.000  -0.637  -1.758  0.00  0.00    +0.076 A 
ATOM      5  C   UNL     1       0.978  -0.268  -3.192  0.00  0.00    +0.260 A 
ATOM      6  O   UNL     1       1.171   0.882  -3.544  0.00  0.00    -0.267 OA
ATOM      7  N   UNL     1       0.740  -1.237  -4.097  0.00  0.00    -0.312 N 
ATOM      8  H   UNL     1       0.722  -1.012  -5.040  0.00  0.00    +0.170 HD
ATOM      9  C   UNL     1       0.524  -2.521  -3.716  0.00  0.00    +0.094 A 
ATOM     10  N   UNL     1       0.536  -2.880  -2.461  0.00  0.00    -0.229 NA
ATOM     11  C   UNL     1       0.761  -2.005  -1.490  0.00  0.00    +0.116 A 
ATOM     12  S   UNL     1       0.856  -2.096   0.281  0.00  0.00    -0.062 S 
ATOM     13  C   UNL     1       1.205  -0.376   0.608  0.00  0.00    +0.102 A 
BRANCH  13  14
ATOM     14  C   UNL     1       1.417   0.284   1.898  0.00  0.00    +0.346 C 
ATOM     15  O   UNL     1       1.644   1.478   1.940  0.00  0.00    -0.244 OA
BRANCH  14  16
ATOM     16  O   UNL     1       1.361  -0.433   3.040  0.00  0.00    -0.458 OA
BRANCH  16  17
ATOM     17  C   UNL     1       1.577   0.275   4.262  0.00  0.00    +0.171 C 
ATOM     18  C   UNL     1       0.792  -0.400   5.388  0.00  0.00    +0.052 C 
ATOM     19  C   UNL     1       3.069   0.263   4.601  0.00  0.00    +0.052 C 
ENDBRANCH  16  17
ENDBRANCH  14  16
ENDBRANCH  13  14
ENDBRANCH   1   9
BRANCH   1  20
ATOM     20  N   UNL     1       0.058  -4.869  -4.132  0.00  0.00    +0.388 N 
ATOM     21  H   UNL     1       0.850  -5.082  -3.545  0.00  0.00    -0.081 HD
BRANCH  20  22
ATOM     22  C   UNL     1      -1.162  -4.829  -3.315  0.00  0.00    -0.051 C 
BRANCH  22  23
ATOM     23  C   UNL     1      -2.334  -4.444  -4.181  0.00  0.00    -0.053 C 
ATOM     24  C   UNL     1      -3.381  -5.228  -4.252  0.00  0.00    +0.002 C 
ENDBRANCH  22  23
ENDBRANCH  20  22
BRANCH  20  25
ATOM     25  C   UNL     1      -0.078  -5.905  -5.165  0.00  0.00    -0.043 C 
BRANCH  25  26
ATOM     26  C   UNL     1      -0.127  -7.283  -4.502  0.00  0.00    +0.135 C 
BRANCH  26  27
ATOM     27  O   UNL     1       1.116  -7.539  -3.845  0.00  0.00    -0.390 OA
ATOM     28  H   UNL     1       1.881  -7.534  -4.436  0.00  0.00    +0.210 HD
ENDBRANCH  26  27
BRANCH  26  29
ATOM     29  C   UNL     1      -0.371  -8.353  -5.568  0.00  0.00    +0.258 C 
BRANCH  29  30
ATOM     30  O   UNL     1      -0.533  -9.625  -4.937  0.00  0.00    -0.489 OA
BRANCH  30  31
ATOM     31  C   UNL     1      -0.759 -10.692  -5.748  0.00  0.00    +0.121 A 
ATOM     32  C   UNL     1      -0.819 -10.518  -7.123  0.00  0.00    +0.049 A 
ATOM     33  C   UNL     1      -1.048 -11.602  -7.948  0.00  0.00    +0.049 A 
ATOM     34  C   UNL     1      -1.220 -12.865  -7.401  0.00  0.00    +0.120 A 
ATOM     35  C   UNL     1      -1.159 -13.040  -6.026  0.00  0.00    +0.049 A 
ATOM     36  C   UNL     1      -0.925 -11.956  -5.202  0.00  0.00    +0.049 A 
BRANCH  34  37
ATOM     37  O   UNL     1      -1.447 -13.932  -8.213  0.00  0.00    -0.495 OA
ATOM     38  C   UNL     1      -1.614 -15.203  -7.581  0.00  0.00    +0.277 C 
ENDBRANCH  34  37
ENDBRANCH  30  31
ENDBRANCH  29  30
ENDBRANCH  26  29
ENDBRANCH  25  26
ENDBRANCH  20  25
ENDBRANCH   1  20
TORSDOF 14
