REMARK  Name = ZINC20456010
REMARK  10 active torsions:
REMARK  status: ('A' for Active; 'I' for Inactive)
REMARK    1  A    between atoms: C_1  and  N_2
REMARK    2  A    between atoms: N_2  and  C_3
REMARK    3  A    between atoms: C_3  and  C_4
REMARK    4  A    between atoms: C_12  and  C_25
REMARK    5  A    between atoms: C_15  and  C_17
REMARK    6  A    between atoms: C_22  and  O_23
REMARK    7  A    between atoms: O_23  and  C_24
REMARK    8  A    between atoms: N_27  and  C_28
REMARK    9  A    between atoms: C_28  and  C_29
REMARK   10  A    between atoms: C_29  and  N_35
REMARK                            x       y       z     vdW  Elec       q    Type
REMARK                         _______ _______ _______ _____ _____    ______ ____
ROOT
ATOM      1  C   UNL     1       4.588  -2.404   1.738  0.00  0.00    +0.131 C 
ATOM      2  N   UNL     1       4.543  -1.716   0.441  0.00  0.00    -0.315 N 
ATOM      3  C   UNL     1       3.262  -1.282   0.154  0.00  0.00    +0.134 A 
ATOM      4  C   UNL     1       2.985   0.096   0.112  0.00  0.00    +0.077 A 
ATOM      5  C   UNL     1       1.681   0.518  -0.180  0.00  0.00    +0.018 A 
ATOM      6  C   UNL     1       0.716  -0.441  -0.416  0.00  0.00    +0.029 A 
ATOM      7  C   UNL     1       1.064  -1.791  -0.357  0.00  0.00    +0.077 A 
ATOM      8  N   UNL     1       2.307  -2.166  -0.078  0.00  0.00    -0.231 NA
ENDROOT
BRANCH   7   9
ATOM      9  C   UNL     1       0.031  -2.821  -0.610  0.00  0.00    +0.042 A 
ATOM     10  C   UNL     1      -1.299  -2.448  -0.803  0.00  0.00    +0.013 A 
ATOM     11  C   UNL     1      -2.257  -3.412  -1.038  0.00  0.00    +0.001 A 
ATOM     12  C   UNL     1      -1.904  -4.750  -1.083  0.00  0.00    +0.004 A 
ATOM     13  C   UNL     1      -0.591  -5.132  -0.893  0.00  0.00    +0.046 A 
ATOM     14  C   UNL     1       0.385  -4.174  -0.661  0.00  0.00    +0.129 A 
BRANCH  14  15
ATOM     15  O   UNL     1       1.677  -4.548  -0.479  0.00  0.00    -0.494 OA
ATOM     16  C   UNL     1       1.982  -5.934  -0.651  0.00  0.00    +0.277 C 
ENDBRANCH  14  15
ENDBRANCH   7   9
BRANCH   4  17
ATOM     17  C   UNL     1       4.049   1.081   0.370  0.00  0.00    +0.247 C 
ATOM     18  O   UNL     1       5.185   0.706   0.589  0.00  0.00    -0.270 OA
ATOM     19  N   UNL     1       3.764   2.398   0.363  0.00  0.00    -0.313 N 
ATOM     20  H   UNL     1       2.736   2.738   0.165  0.00  0.00    +0.149 HD
BRANCH  19  21
ATOM     21  C   UNL     1       4.822   3.378   0.620  0.00  0.00    +0.092 C 
BRANCH  21  22
ATOM     22  C   UNL     1       4.208   4.775   0.735  0.00  0.00    -0.050 C 
ATOM     23  C   UNL     1       3.351   5.058  -0.501  0.00  0.00    -0.010 C 
ATOM     24  C   UNL     1       4.225   4.987  -1.755  0.00  0.00    -0.001 C 
ATOM     25  C   UNL     1       5.341   6.029  -1.658  0.00  0.00    -0.000 C 
ATOM     26  C   UNL     1       6.197   5.746  -0.423  0.00  0.00    -0.001 C 
ATOM     27  C   UNL     1       5.324   5.817   0.831  0.00  0.00    -0.010 C 
BRANCH  22  28
ATOM     28  N   UNL     1       3.369   4.843   1.939  0.00  0.00    +0.384 N 
ATOM     29  C   UNL     1       4.157   4.567   3.146  0.00  0.00    -0.078 C 
ATOM     30  C   UNL     1       3.289   4.789   4.386  0.00  0.00    -0.019 C 
ATOM     31  C   UNL     1       2.073   3.860   4.325  0.00  0.00    -0.004 C 
ATOM     32  C   UNL     1       1.295   4.135   3.034  0.00  0.00    -0.019 C 
ATOM     33  C   UNL     1       2.222   3.932   1.833  0.00  0.00    -0.078 C 
ATOM     34  H   UNL     1       2.976   5.867   2.022  0.00  0.00    -0.081 HD
ENDBRANCH  22  28
ENDBRANCH  21  22
ENDBRANCH  19  21
ENDBRANCH   4  17
BRANCH   2  35
ATOM     35  C   UNL     1       5.059  -2.578  -0.630  0.00  0.00    +0.140 C 
BRANCH  35  36
ATOM     36  C   UNL     1       5.229  -1.756  -1.910  0.00  0.00    +0.161 C 
ATOM     37  C   UNL     1       5.628  -2.681  -3.063  0.00  0.00    +0.193 C 
ATOM     38  O   UNL     1       5.893  -1.892  -4.227  0.00  0.00    -0.375 OA
ATOM     39  C   UNL     1       6.918  -0.913  -4.034  0.00  0.00    +0.188 C 
ATOM     40  C   UNL     1       6.519   0.012  -2.880  0.00  0.00    +0.188 C 
ATOM     41  O   UNL     1       6.254  -0.777  -1.716  0.00  0.00    -0.370 OA
ENDBRANCH  35  36
ENDBRANCH   2  35
TORSDOF 8
