REMARK  Name = ZINC09245337
REMARK  7 active torsions:
REMARK  status: ('A' for Active; 'I' for Inactive)
REMARK    1  A    between atoms: N_9  and  C_22
REMARK    2  A    between atoms: C_10  and  S_12
REMARK    3  A    between atoms: S_12  and  C_13
REMARK    4  A    between atoms: C_13  and  C_14
REMARK    5  A    between atoms: C_22  and  C_23
REMARK    6  A    between atoms: C_23  and  C_24
REMARK    7  A    between atoms: C_24  and  O_25
REMARK                            x       y       z     vdW  Elec       q    Type
REMARK                         _______ _______ _______ _____ _____    ______ ____
ROOT
ATOM      1  C   UNL     1       0.831  -2.106   5.928  0.00  0.00    +0.001 A 
ATOM      2  C   UNL     1       1.833  -1.280   6.421  0.00  0.00    +0.002 A 
ATOM      3  C   UNL     1       2.122  -0.088   5.818  0.00  0.00    +0.028 A 
ATOM      4  C   UNL     1       1.401   0.308   4.688  0.00  0.00    +0.079 A 
ATOM      5  C   UNL     1       0.383  -0.535   4.189  0.00  0.00    +0.065 A 
ATOM      6  C   UNL     1       0.108  -1.745   4.824  0.00  0.00    +0.015 A 
ATOM      7  C   UNL     1      -0.364  -0.094   3.003  0.00  0.00    +0.262 A 
ATOM      8  O   UNL     1      -1.256  -0.774   2.529  0.00  0.00    -0.267 OA
ATOM      9  N   UNL     1      -0.020   1.094   2.454  0.00  0.00    -0.287 N 
ATOM     10  C   UNL     1       0.979   1.846   3.002  0.00  0.00    +0.172 A 
ATOM     11  N   UNL     1       1.654   1.475   4.062  0.00  0.00    -0.223 NA
ENDROOT
BRANCH  10  12
ATOM     12  S   UNL     1       1.378   3.389   2.249  0.00  0.00    -0.083 S 
BRANCH  12  13
ATOM     13  C   UNL     1       2.714   3.935   3.342  0.00  0.00    +0.115 C 
BRANCH  13  14
ATOM     14  C   UNL     1       3.227   5.274   2.878  0.00  0.00    -0.002 A 
ATOM     15  C   UNL     1       2.663   6.437   3.367  0.00  0.00    +0.008 A 
ATOM     16  C   UNL     1       3.133   7.666   2.942  0.00  0.00    +0.016 A 
ATOM     17  C   UNL     1       4.169   7.732   2.027  0.00  0.00    +0.021 A 
ATOM     18  C   UNL     1       4.734   6.570   1.537  0.00  0.00    +0.054 A 
ATOM     19  C   UNL     1       4.266   5.339   1.966  0.00  0.00    +0.128 A 
ATOM     20  F   UNL     1       4.821   4.202   1.491  0.00  0.00    -0.205 F 
ATOM     21 BR   UNL     1       4.811   9.414   1.447  0.00  0.00    -0.050 Br
ENDBRANCH  13  14
ENDBRANCH  12  13
ENDBRANCH  10  12
BRANCH   9  22
ATOM     22  C   UNL     1      -0.729   1.579   1.267  0.00  0.00    +0.129 C 
BRANCH  22  23
ATOM     23  C   UNL     1      -0.013   1.086   0.008  0.00  0.00    +0.049 C 
BRANCH  23  24
ATOM     24  C   UNL     1      -0.753   1.593  -1.232  0.00  0.00    +0.157 C 
BRANCH  24  25
ATOM     25  O   UNL     1      -0.084   1.132  -2.407  0.00  0.00    -0.395 OA
ATOM     26  H   UNL     1      -0.499   1.416  -3.233  0.00  0.00    +0.209 HD
ENDBRANCH  24  25
ENDBRANCH  23  24
ENDBRANCH  22  23
ENDBRANCH   9  22
TORSDOF 7
