REMARK  Name = ZINC00626495
REMARK  2 active torsions:
REMARK  status: ('A' for Active; 'I' for Inactive)
REMARK    1  A    between atoms: C_4  and  C_7
REMARK    2  A    between atoms: C_9  and  C_18
REMARK                            x       y       z     vdW  Elec       q    Type
REMARK                         _______ _______ _______ _____ _____    ______ ____
ROOT
ATOM      1  C   UNL     1       3.691  -0.679  -0.037  0.00  0.00    +0.055 C 
ATOM      2  C   UNL     1       3.681  -2.182  -0.051  0.00  0.00    +0.087 C 
ATOM      3  C   UNL     1       4.864  -2.736  -0.854  0.00  0.00    +0.147 C 
ATOM      4  N   UNL     1       6.050  -1.950  -0.515  0.00  0.00    -0.221 N 
ATOM      5  C   UNL     1       5.982  -0.636  -0.143  0.00  0.00    +0.228 A 
ATOM      6  N   UNL     1       7.207  -0.222   0.075  0.00  0.00    -0.296 N 
ATOM      7  C   UNL     1       8.065  -1.227  -0.135  0.00  0.00    +0.211 A 
ATOM      8  N   UNL     1       7.395  -2.303  -0.496  0.00  0.00    -0.134 NA
ATOM      9  N   UNL     1       9.451  -1.147   0.005  0.00  0.00    -0.328 N 
ATOM     10  N   UNL     1       4.795   0.018  -0.045  0.00  0.00    -0.217 NA
ATOM     11  H   UNL     1       9.864  -0.312   0.275  0.00  0.00    +0.145 HD
ATOM     12  H   UNL     1      10.001  -1.927  -0.169  0.00  0.00    +0.145 HD
ATOM     13  H   UNL     1       7.453   0.676   0.347  0.00  0.00    +0.172 HD
ENDROOT
BRANCH   3  14
ATOM     14  C   UNL     1       4.578  -2.619  -2.329  0.00  0.00    -0.023 A 
ATOM     15  C   UNL     1       4.356  -1.377  -2.893  0.00  0.00    +0.007 A 
ATOM     16  C   UNL     1       4.094  -1.268  -4.246  0.00  0.00    +0.015 A 
ATOM     17  C   UNL     1       4.054  -2.404  -5.035  0.00  0.00    +0.018 A 
ATOM     18  C   UNL     1       4.276  -3.647  -4.470  0.00  0.00    +0.015 A 
ATOM     19  C   UNL     1       4.543  -3.753  -3.118  0.00  0.00    +0.007 A 
ATOM     20 BR   UNL     1       3.696  -2.257  -6.886  0.00  0.00    -0.050 Br
ENDBRANCH   3  14
BRANCH   1  24
ATOM     21  C   UNL     1      -0.017   1.380   0.010  0.00  0.00    +0.000 A 
ATOM     22  C   UNL     1       1.168   2.095   0.002  0.00  0.00    +0.001 A 
ATOM     23  C   UNL     1       2.377   1.433  -0.013  0.00  0.00    +0.010 A 
ATOM     24  C   UNL     1       2.405   0.035  -0.021  0.00  0.00    -0.004 A 
ATOM     25  C   UNL     1       1.203  -0.681  -0.013  0.00  0.00    +0.010 A 
ATOM     26  C   UNL     1       0.002  -0.004   0.002  0.00  0.00    +0.001 A 
ENDBRANCH   1  24
TORSDOF 2
