REMARK  Name = ZINC49918351
REMARK  4 active torsions:
REMARK  status: ('A' for Active; 'I' for Inactive)
REMARK    1  A    between atoms: C_1  and  N_2
REMARK    2  A    between atoms: C_11  and  C_14
REMARK    3  A    between atoms: C_23  and  O_25
REMARK    4  A    between atoms: O_25  and  C_26
REMARK                            x       y       z     vdW  Elec       q    Type
REMARK                         _______ _______ _______ _____ _____    ______ ____
ROOT
ATOM      1  C   UNL     1       4.807  -6.202   0.278  0.00  0.00    +0.002 A 
ATOM      2  C   UNL     1       5.260  -6.860   1.426  0.00  0.00    +0.020 A 
ATOM      3  C   UNL     1       6.078  -7.965   1.276  0.00  0.00    +0.033 A 
ATOM      4  C   UNL     1       6.424  -8.383  -0.003  0.00  0.00    +0.125 A 
ATOM      5  N   UNL     1       5.973  -7.736  -1.072  0.00  0.00    -0.240 NA
ATOM      6  C   UNL     1       5.188  -6.684  -0.970  0.00  0.00    +0.121 A 
ATOM      7  N   UNL     1       7.254  -9.487  -0.188  0.00  0.00    -0.329 N 
ATOM      8  C   UNL     1       7.508 -10.384   0.947  0.00  0.00    +0.107 C 
ATOM      9  C   UNL     1       7.807  -9.517   2.176  0.00  0.00    +0.068 C 
ATOM     10  C   UNL     1       6.568  -8.684   2.504  0.00  0.00    +0.209 C 
ATOM     11  H   UNL     1       7.658  -9.660  -1.052  0.00  0.00    +0.147 HD
ENDROOT
BRANCH   1  22
ATOM     12  C   UNL     1       0.888   2.342   1.633  0.00  0.00    -0.096 C 
ATOM     13  N   UNL     1       0.711   0.917   1.322  0.00  0.00    +0.380 N 
ATOM     14  C   UNL     1       1.430   0.595   0.083  0.00  0.00    -0.060 C 
ATOM     15  C   UNL     1       1.152  -0.861  -0.305  0.00  0.00    +0.088 C 
ATOM     16  N   UNL     1       1.496  -1.721   0.838  0.00  0.00    -0.319 N 
ATOM     17  C   UNL     1       0.947  -1.373   2.158  0.00  0.00    +0.088 C 
ATOM     18  C   UNL     1       1.234   0.107   2.429  0.00  0.00    -0.060 C 
ATOM     19  C   UNL     1       2.317  -2.831   0.676  0.00  0.00    +0.121 A 
ATOM     20  C   UNL     1       2.637  -3.267  -0.607  0.00  0.00    +0.044 A 
ATOM     21  C   UNL     1       3.453  -4.370  -0.760  0.00  0.00    +0.013 A 
ATOM     22  C   UNL     1       3.928  -5.012   0.390  0.00  0.00    +0.002 A 
ATOM     23  C   UNL     1       3.564  -4.518   1.639  0.00  0.00    +0.121 A 
ATOM     24  N   UNL     1       2.787  -3.458   1.743  0.00  0.00    -0.240 NA
ATOM     25  H   UNL     1      -0.271   0.721   1.198  0.00  0.00    -0.082 HD
ENDBRANCH   1  22
BRANCH  10  26
ATOM     26  O   UNL     1       6.895  -7.726   3.513  0.00  0.00    -0.480 OA
BRANCH  26  27
ATOM     27  C   UNL     1       6.746  -8.117   4.807  0.00  0.00    +0.177 A 
ATOM     28  C   UNL     1       5.498  -8.051   5.414  0.00  0.00    +0.166 A 
ATOM     29  C   UNL     1       5.348  -8.449   6.729  0.00  0.00    +0.045 A 
ATOM     30  C   UNL     1       6.439  -8.913   7.442  0.00  0.00    +0.043 A 
ATOM     31  C   UNL     1       7.683  -8.980   6.840  0.00  0.00    +0.145 A 
ATOM     32  C   UNL     1       7.838  -8.588   5.521  0.00  0.00    +0.120 A 
ATOM     33 CL   UNL     1       9.397  -8.679   4.764  0.00  0.00    -0.077 Cl
ATOM     34  F   UNL     1       8.747  -9.433   7.538  0.00  0.00    -0.204 F 
ATOM     35  F   UNL     1       4.432  -7.597   4.719  0.00  0.00    -0.202 F 
ENDBRANCH  26  27
ENDBRANCH  10  26
TORSDOF 3
