REMARK  Name = ZINC63817338
REMARK  8 active torsions:
REMARK  status: ('A' for Active; 'I' for Inactive)
REMARK    1  A    between atoms: C_1  and  C_2
REMARK    2  A    between atoms: C_6  and  S_8
REMARK    3  A    between atoms: S_8  and  N_11
REMARK    4  A    between atoms: N_11  and  C_12
REMARK    5  A    between atoms: C_12  and  C_14
REMARK    6  A    between atoms: C_12  and  C_24
REMARK    7  A    between atoms: C_14  and  C_15
REMARK    8  A    between atoms: C_29  and  C_32
REMARK                            x       y       z     vdW  Elec       q    Type
REMARK                         _______ _______ _______ _____ _____    ______ ____
ROOT
ATOM      1  C   UNL     1       2.489  -2.047   3.444  0.00  0.00    +0.166 C 
ENDROOT
BRANCH   1   2
ATOM      2  C   UNL     1       3.893  -2.303   2.959  0.00  0.00    +0.235 C 
ATOM      3  O   UNL     1       4.161  -3.345   2.401  0.00  0.00    -0.274 OA
ATOM      4  N   UNL     1       4.850  -1.373   3.146  0.00  0.00    -0.296 N 
ATOM      5  C   UNL     1       6.230  -1.589   2.679  0.00  0.00    +0.113 C 
ATOM      6  C   UNL     1       6.550  -0.515   1.637  0.00  0.00    +0.054 C 
ATOM      7  C   UNL     1       6.099   0.832   2.119  0.00  0.00    -0.041 C 
ATOM      8  C   UNL     1       5.221   1.021   3.074  0.00  0.00    -0.004 C 
ATOM      9  C   UNL     1       4.558  -0.099   3.819  0.00  0.00    +0.135 C 
BRANCH   7  10
ATOM     10  C   UNL     1       6.686   2.027   1.476  0.00  0.00    -0.022 A 
ATOM     11  C   UNL     1       6.434   2.292   0.129  0.00  0.00    +0.008 A 
ATOM     12  C   UNL     1       6.984   3.409  -0.465  0.00  0.00    +0.001 A 
ATOM     13  C   UNL     1       7.783   4.265   0.271  0.00  0.00    +0.000 A 
ATOM     14  C   UNL     1       8.037   4.008   1.606  0.00  0.00    +0.001 A 
ATOM     15  C   UNL     1       7.489   2.897   2.214  0.00  0.00    +0.008 A 
ENDBRANCH   7  10
ENDBRANCH   1   2
BRANCH   1  16
ATOM     16  N   UNL     1       1.644  -3.200   3.123  0.00  0.00    -0.178 NA
ATOM     17  H   UNL     1       2.014  -4.096   3.154  0.00  0.00    +0.149 HD
BRANCH  16  18
ATOM     18  S   UNL     1       0.057  -2.973   2.709  0.00  0.00    +0.059 S 
ATOM     19  O   UNL     1      -0.500  -2.110   3.691  0.00  0.00    -0.153 OA
ATOM     20  O   UNL     1      -0.479  -4.260   2.433  0.00  0.00    -0.153 OA
BRANCH  18  26
ATOM     21  C   UNL     1      -0.018   1.503   0.010  0.00  0.00    +0.044 C 
ATOM     22  C   UNL     1       0.002  -0.004   0.002  0.00  0.00    -0.049 A 
ATOM     23  C   UNL     1       0.006  -0.689  -1.199  0.00  0.00    +0.003 A 
ATOM     24  C   UNL     1       0.025  -2.071  -1.207  0.00  0.00    +0.002 A 
ATOM     25  C   UNL     1       0.040  -2.768  -0.013  0.00  0.00    +0.028 A 
ATOM     26  C   UNL     1       0.037  -2.084   1.188  0.00  0.00    +0.106 A 
ATOM     27  C   UNL     1       0.023  -0.702   1.195  0.00  0.00    +0.032 A 
ENDBRANCH  18  26
ENDBRANCH  16  18
ENDBRANCH   1  16
BRANCH   1  28
ATOM     28  C   UNL     1       2.504  -1.831   4.959  0.00  0.00    +0.063 C 
BRANCH  28  29
ATOM     29  C   UNL     1       1.121  -1.454   5.426  0.00  0.00    -0.040 C 
ATOM     30  C   UNL     1       0.176  -2.285   5.922  0.00  0.00    -0.001 A 
ATOM     31  C   UNL     1       0.153  -3.733   6.165  0.00  0.00    +0.010 A 
ATOM     32  C   UNL     1      -0.964  -4.293   6.683  0.00  0.00    +0.001 A 
ATOM     33  C   UNL     1      -2.097  -3.528   6.992  0.00  0.00    +0.002 A 
ATOM     34  C   UNL     1      -2.151  -2.193   6.796  0.00  0.00    +0.026 A 
ATOM     35  C   UNL     1      -1.033  -1.500   6.258  0.00  0.00    +0.043 A 
ATOM     36  N   UNL     1      -0.843  -0.233   5.979  0.00  0.00    -0.380 N 
ATOM     37  C   UNL     1       0.512  -0.070   5.441  0.00  0.00    +0.144 C 
ATOM     38  H   UNL     1      -1.489   0.479   6.111  0.00  0.00    +0.160 HD
ENDBRANCH  28  29
ENDBRANCH   1  28
TORSDOF 7
