REMARK  Name = ZINC05123671
REMARK  6 active torsions:
REMARK  status: ('A' for Active; 'I' for Inactive)
REMARK    1  A    between atoms: C_1  and  C_2
REMARK    2  A    between atoms: C_5  and  N_9
REMARK    3  A    between atoms: C_7  and  C_8
REMARK    4  A    between atoms: C_11  and  N_16
REMARK    5  A    between atoms: N_19  and  C_20
REMARK    6  A    between atoms: N_19  and  C_21
REMARK                            x       y       z     vdW  Elec       q    Type
REMARK                         _______ _______ _______ _____ _____    ______ ____
ROOT
ATOM      1  N   UNL     1       5.314   0.790  -0.806  0.00  0.00    -0.270 N 
ATOM      2  C   UNL     1       4.740   1.340   0.428  0.00  0.00    +0.136 C 
ATOM      3  C   UNL     1       3.567   2.237  -0.027  0.00  0.00    +0.101 C 
ATOM      4  C   UNL     1       3.999   2.616  -1.462  0.00  0.00    +0.120 C 
ATOM      5  C   UNL     1       4.919   1.491  -1.883  0.00  0.00    +0.222 C 
ATOM      6  O   UNL     1       5.253   1.256  -3.025  0.00  0.00    -0.275 OA
ENDROOT
BRANCH   1  11
ATOM      7  C   UNL     1       8.756  -3.715  -1.005  0.00  0.00    +0.044 C 
ATOM      8  C   UNL     1       7.842  -2.518  -0.952  0.00  0.00    -0.047 A 
ATOM      9  C   UNL     1       7.398  -1.937  -2.126  0.00  0.00    +0.005 A 
ATOM     10  C   UNL     1       6.555  -0.844  -2.080  0.00  0.00    +0.024 A 
ATOM     11  C   UNL     1       6.163  -0.321  -0.855  0.00  0.00    +0.037 A 
ATOM     12  C   UNL     1       6.611  -0.907   0.322  0.00  0.00    +0.027 A 
ATOM     13  C   UNL     1       7.449  -2.004   0.270  0.00  0.00    -0.046 A 
ATOM     14  C   UNL     1       7.936  -2.640   1.546  0.00  0.00    +0.044 C 
ENDBRANCH   1  11
BRANCH   3  15
ATOM     15  N   UNL     1       2.308   1.488  -0.039  0.00  0.00    -0.294 N 
ATOM     16  C   UNL     1       1.132   2.146  -0.032  0.00  0.00    +0.302 C 
ATOM     17  O   UNL     1       1.116   3.361  -0.015  0.00  0.00    -0.253 OA
ATOM     18  N   UNL     1      -0.026   1.457  -0.043  0.00  0.00    -0.286 N 
ATOM     19  C   UNL     1      -0.007  -0.008  -0.063  0.00  0.00    +0.134 C 
ATOM     20  H   UNL     1       2.321   0.518  -0.052  0.00  0.00    +0.151 HD
BRANCH  18  21
ATOM     21  C   UNL     1      -1.304   2.172  -0.041  0.00  0.00    +0.077 C 
ATOM     22  C   UNL     1      -2.109   1.775   1.198  0.00  0.00    +0.022 C 
ATOM     23  C   UNL     1      -3.444   2.523   1.200  0.00  0.00    +0.002 C 
ATOM     24  C   UNL     1      -4.234   2.160  -0.059  0.00  0.00    +0.000 C 
ATOM     25  C   UNL     1      -3.429   2.557  -1.298  0.00  0.00    +0.002 C 
ATOM     26  C   UNL     1      -2.094   1.810  -1.300  0.00  0.00    +0.022 C 
ENDBRANCH  18  21
ENDBRANCH   3  15
TORSDOF 3
