REMARK  Name = ZINC62083066
REMARK  6 active torsions:
REMARK  status: ('A' for Active; 'I' for Inactive)
REMARK    1  A    between atoms: C_1  and  C_2
REMARK    2  A    between atoms: C_4  and  O_23
REMARK    3  A    between atoms: C_7  and  S_8
REMARK    4  A    between atoms: S_8  and  N_11
REMARK    5  A    between atoms: N_11  and  C_12
REMARK    6  A    between atoms: O_23  and  C_24
REMARK                            x       y       z     vdW  Elec       q    Type
REMARK                         _______ _______ _______ _____ _____    ______ ____
ROOT
ATOM      1  S   UNL     1       0.368   0.165   2.891  0.00  0.00    +0.073 S 
ATOM      2  O   UNL     1       0.502  -0.816   3.910  0.00  0.00    -0.150 OA
ATOM      3  O   UNL     1       1.195   1.319   2.830  0.00  0.00    -0.150 OA
ENDROOT
BRANCH   1  10
ATOM      4  C   UNL     1       0.145   1.498   0.187  0.00  0.00    +0.046 C 
ATOM      5  C   UNL     1       0.443   0.021   0.167  0.00  0.00    -0.020 A 
ATOM      6  C   UNL     1       0.601  -0.634  -1.039  0.00  0.00    +0.051 A 
ATOM      7  C   UNL     1       0.876  -1.994  -1.057  0.00  0.00    +0.121 A 
ATOM      8  C   UNL     1       0.992  -2.692   0.136  0.00  0.00    +0.047 A 
ATOM      9  C   UNL     1       0.832  -2.032   1.339  0.00  0.00    +0.032 A 
ATOM     10  C   UNL     1       0.563  -0.675   1.354  0.00  0.00    +0.112 A 
BRANCH   7  11
ATOM     11  O   UNL     1       1.032  -2.641  -2.242  0.00  0.00    -0.489 OA
BRANCH  11  12
ATOM     12  C   UNL     1       1.195  -4.060  -2.190  0.00  0.00    +0.173 C 
ATOM     13  C   UNL     1       2.684  -4.414  -2.001  0.00  0.00    +0.044 C 
ATOM     14  C   UNL     1       2.884  -5.687  -2.860  0.00  0.00    +0.004 C 
ATOM     15  C   UNL     1       1.999  -5.405  -4.100  0.00  0.00    +0.004 C 
ATOM     16  C   UNL     1       0.759  -4.690  -3.524  0.00  0.00    +0.044 C 
ENDBRANCH  11  12
ENDBRANCH   7  11
ENDBRANCH   1  10
BRANCH   1  17
ATOM     17  N   UNL     1      -1.196   0.706   2.957  0.00  0.00    -0.216 N 
ATOM     18  H   UNL     1      -1.381   1.658   2.940  0.00  0.00    +0.174 HD
BRANCH  17  19
ATOM     19  C   UNL     1      -2.250  -0.210   3.038  0.00  0.00    +0.052 A 
ATOM     20  C   UNL     1      -2.260  -1.330   2.216  0.00  0.00    +0.027 A 
ATOM     21  C   UNL     1      -3.299  -2.237   2.293  0.00  0.00    +0.031 A 
ATOM     22  C   UNL     1      -4.333  -2.029   3.192  0.00  0.00    +0.087 A 
ATOM     23  C   UNL     1      -4.327  -0.906   4.019  0.00  0.00    +0.159 A 
ATOM     24  C   UNL     1      -3.281  -0.000   3.943  0.00  0.00    +0.073 A 
ATOM     25  O   UNL     1      -5.445  -0.962   4.783  0.00  0.00    -0.408 OA
ATOM     26  C   UNL     1      -6.141  -2.066   4.467  0.00  0.00    +0.419 A 
ATOM     27  O   UNL     1      -7.193  -2.402   4.976  0.00  0.00    -0.223 OA
ATOM     28  N   UNL     1      -5.494  -2.743   3.499  0.00  0.00    -0.288 N 
ATOM     29  H   UNL     1      -5.781  -3.575   3.090  0.00  0.00    +0.172 HD
ENDBRANCH  17  19
ENDBRANCH   1  17
TORSDOF 5
