REMARK  Name = ZINC02151076
REMARK  7 active torsions:
REMARK  status: ('A' for Active; 'I' for Inactive)
REMARK    1  A    between atoms: C_1  and  C_2
REMARK    2  A    between atoms: C_5  and  N_9
REMARK    3  A    between atoms: C_12  and  C_25
REMARK    4  A    between atoms: C_14  and  C_17
REMARK    5  A    between atoms: C_15  and  N_16
REMARK    6  A    between atoms: C_17  and  C_19
REMARK    7  A    between atoms: C_28  and  N_31
REMARK                            x       y       z     vdW  Elec       q    Type
REMARK                         _______ _______ _______ _____ _____    ______ ____
ROOT
ATOM      1  N   UNL     1      -2.016   4.116  -0.367  0.00  0.00    -0.261 N 
ATOM      2  C   UNL     1      -3.096   3.934   0.458  0.00  0.00    +0.024 C 
ATOM      3  C   UNL     1      -3.494   2.694   0.811  0.00  0.00    +0.024 C 
ATOM      4  C   UNL     1      -2.772   1.470   0.300  0.00  0.00    +0.091 C 
ATOM      5  C   UNL     1      -1.405   1.823  -0.209  0.00  0.00    +0.048 C 
ATOM      6  C   UNL     1      -1.084   3.121  -0.527  0.00  0.00    +0.100 C 
ATOM      7  C   UNL     1      -4.601   2.501   1.657  0.00  0.00    +0.162 C 
ATOM      8  O   UNL     1      -4.922   1.372   1.971  0.00  0.00    -0.292 OA
ATOM      9  C   UNL     1      -5.396   3.667   2.180  0.00  0.00    +0.080 C 
ATOM     10  C   UNL     1      -5.300   4.823   1.179  0.00  0.00    +0.014 C 
ATOM     11  C   UNL     1      -3.822   5.156   0.964  0.00  0.00    +0.052 C 
ENDROOT
BRANCH   1  16
ATOM     12  C   UNL     1      -1.397   9.026  -3.143  0.00  0.00    +0.045 C 
ATOM     13  C   UNL     1      -1.561   7.722  -2.406  0.00  0.00    -0.032 A 
ATOM     14  C   UNL     1      -2.350   6.721  -2.942  0.00  0.00    +0.006 A 
ATOM     15  C   UNL     1      -2.502   5.525  -2.269  0.00  0.00    +0.024 A 
ATOM     16  C   UNL     1      -1.863   5.327  -1.052  0.00  0.00    +0.041 A 
ATOM     17  C   UNL     1      -1.076   6.336  -0.512  0.00  0.00    +0.044 A 
ATOM     18  C   UNL     1      -0.923   7.530  -1.193  0.00  0.00    +0.046 A 
ATOM     19 CL   UNL     1       0.065   8.790  -0.523  0.00  0.00    -0.083 Cl
ENDBRANCH   1  16
BRANCH   4  20
ATOM     20  C   UNL     1      -3.570   0.850  -0.817  0.00  0.00    -0.035 A 
ATOM     21  C   UNL     1      -3.919   1.606  -1.921  0.00  0.00    +0.007 A 
ATOM     22  C   UNL     1      -4.646   1.035  -2.948  0.00  0.00    +0.033 A 
ATOM     23  C   UNL     1      -5.036  -0.289  -2.867  0.00  0.00    +0.126 A 
ATOM     24  C   UNL     1      -4.692  -1.044  -1.761  0.00  0.00    +0.033 A 
ATOM     25  C   UNL     1      -3.959  -0.474  -0.736  0.00  0.00    +0.007 A 
BRANCH  23  26
ATOM     26  N   UNL     1      -5.820  -0.899  -3.964  0.00  0.00    +0.056 N 
ATOM     27  O   UNL     1      -6.163  -2.065  -3.892  0.00  0.00    -0.126 OA
ATOM     28  O   UNL     1      -6.123  -0.234  -4.938  0.00  0.00    -0.126 OA
ENDBRANCH  23  26
ENDBRANCH   4  20
BRANCH   6  29
ATOM     29  N   UNL     1       0.165   3.421  -1.004  0.00  0.00    -0.346 N 
ATOM     30  H   UNL     1       0.790   2.708  -1.210  0.00  0.00    +0.143 HD
ATOM     31  H   UNL     1       0.424   4.346  -1.136  0.00  0.00    +0.143 HD
ENDBRANCH   6  29
BRANCH   5  32
ATOM     32  C   UNL     1      -0.445   0.814  -0.368  0.00  0.00    +0.193 C 
ATOM     33  O   UNL     1      -0.011   0.554  -1.478  0.00  0.00    -0.287 OA
BRANCH  32  34
ATOM     34  C   UNL     1       0.038   0.059   0.811  0.00  0.00    +0.022 A 
ATOM     35  C   UNL     1      -0.383   0.417   2.092  0.00  0.00    +0.012 A 
ATOM     36  C   UNL     1       0.066  -0.295   3.186  0.00  0.00    +0.001 A 
ATOM     37  C   UNL     1       0.941  -1.353   3.015  0.00  0.00    +0.000 A 
ATOM     38  C   UNL     1       1.366  -1.709   1.748  0.00  0.00    +0.001 A 
ATOM     39  C   UNL     1       0.920  -1.009   0.646  0.00  0.00    +0.012 A 
ENDBRANCH  32  34
ENDBRANCH   5  32
TORSDOF 6
