REMARK  Name = ZINC35252120
REMARK  7 active torsions:
REMARK  status: ('A' for Active; 'I' for Inactive)
REMARK    1  A    between atoms: C_1  and  C_2
REMARK    2  A    between atoms: C_4  and  C_8
REMARK    3  A    between atoms: C_5  and  C_7
REMARK    4  A    between atoms: C_8  and  C_10
REMARK    5  A    between atoms: C_8  and  N_11
REMARK    6  A    between atoms: N_11  and  C_12
REMARK    7  A    between atoms: C_17  and  N_18
REMARK                            x       y       z     vdW  Elec       q    Type
REMARK                         _______ _______ _______ _____ _____    ______ ____
ROOT
ATOM      1  N   UNL     1      -3.152  -2.632   0.495  0.00  0.00    -0.335 N 
ATOM      2  H   UNL     1      -3.317  -1.684   0.373  0.00  0.00    +0.147 HD
ENDROOT
BRANCH   1   3
ATOM      3  C   UNL     1      -4.058  -3.412   1.219  0.00  0.00    +0.058 A 
ATOM      4  C   UNL     1      -3.803  -4.761   1.429  0.00  0.00    +0.026 A 
ATOM      5  C   UNL     1      -4.699  -5.529   2.145  0.00  0.00    +0.022 A 
ATOM      6  C   UNL     1      -5.851  -4.955   2.654  0.00  0.00    +0.043 A 
ATOM      7  C   UNL     1      -6.108  -3.612   2.447  0.00  0.00    +0.054 A 
ATOM      8  C   UNL     1      -5.212  -2.837   1.736  0.00  0.00    +0.148 A 
ATOM      9 CL   UNL     1      -6.976  -5.924   3.554  0.00  0.00    -0.083 Cl
BRANCH   8  10
ATOM     10  N   UNL     1      -5.484  -1.399   1.521  0.00  0.00    +0.058 N 
ATOM     11  O   UNL     1      -4.576  -0.601   1.550  0.00  0.00    -0.126 OA
ATOM     12  O   UNL     1      -6.614  -1.021   1.317  0.00  0.00    -0.126 OA
ENDBRANCH   8  10
ENDBRANCH   1   3
BRANCH   1  13
ATOM     13  C   UNL     1      -1.954  -3.247  -0.082  0.00  0.00    +0.098 C 
ATOM     14  C   UNL     1      -2.296  -3.850  -1.445  0.00  0.00    +0.033 C 
BRANCH  13  18
ATOM     15  C   UNL     1      -0.347   1.529  -0.816  0.00  0.00    +0.051 C 
ATOM     16  C   UNL     1      -0.236   0.043  -0.593  0.00  0.00    -0.013 A 
ATOM     17  C   UNL     1      -1.223  -0.874  -0.446  0.00  0.00    +0.016 A 
ATOM     18  C   UNL     1      -0.883  -2.200  -0.250  0.00  0.00    -0.017 A 
ATOM     19  C   UNL     1       0.427  -2.543  -0.211  0.00  0.00    -0.008 A 
ATOM     20  S   UNL     1       1.230  -0.968  -0.462  0.00  0.00    -0.098 S 
ATOM     21  C   UNL     1       1.046  -3.903  -0.013  0.00  0.00    +0.052 C 
ENDBRANCH  13  18
ENDBRANCH   1  13
TORSDOF 4
