REMARK  Name = ZINC38547487
REMARK  6 active torsions:
REMARK  status: ('A' for Active; 'I' for Inactive)
REMARK    1  A    between atoms: C_1  and  C_2
REMARK    2  A    between atoms: N_8  and  C_9
REMARK    3  A    between atoms: C_9  and  C_11
REMARK    4  A    between atoms: C_9  and  C_20
REMARK    5  A    between atoms: C_24  and  N_25
REMARK    6  A    between atoms: C_26  and  C_28
REMARK                            x       y       z     vdW  Elec       q    Type
REMARK                         _______ _______ _______ _____ _____    ______ ____
ROOT
ATOM      1  C   UNL     1       0.065  -2.134   3.629  0.00  0.00    +0.135 C 
ENDROOT
BRANCH   1   9
ATOM      2  C   UNL     1       1.000   1.040  -0.284  0.00  0.00    +0.044 C 
ATOM      3  C   UNL     1       0.812  -0.448  -0.140  0.00  0.00    -0.046 A 
ATOM      4  C   UNL     1       0.882  -1.284  -1.247  0.00  0.00    +0.021 A 
ATOM      5  C   UNL     1       0.706  -2.643  -1.081  0.00  0.00    +0.084 A 
ATOM      6  N   UNL     1       0.472  -3.154   0.113  0.00  0.00    -0.350 N 
ATOM      7  C   UNL     1       0.397  -2.391   1.192  0.00  0.00    +0.097 A 
ATOM      8  C   UNL     1       0.571  -1.014   1.099  0.00  0.00    +0.045 A 
ATOM      9  N   UNL     1       0.148  -2.972   2.430  0.00  0.00    -0.320 N 
ATOM     10  H   UNL     1       0.031  -3.932   2.501  0.00  0.00    +0.148 HD
ATOM     11  H   UNL     1       0.351  -4.112   0.202  0.00  0.00    +0.166 HD
ENDBRANCH   1   9
BRANCH   1  12
ATOM     12  C   UNL     1       1.454  -1.763   4.081  0.00  0.00    -0.019 A 
ATOM     13  C   UNL     1       2.510  -2.620   3.835  0.00  0.00    +0.009 A 
ATOM     14  C   UNL     1       3.787  -2.284   4.248  0.00  0.00    +0.050 A 
ATOM     15  C   UNL     1       4.009  -1.088   4.910  0.00  0.00    +0.166 A 
ATOM     16  C   UNL     1       2.944  -0.225   5.158  0.00  0.00    +0.167 A 
ATOM     17  C   UNL     1       1.669  -0.565   4.736  0.00  0.00    +0.055 A 
ATOM     18  O   UNL     1       3.417   0.873   5.816  0.00  0.00    -0.453 OA
ATOM     19  C   UNL     1       4.707   0.489   6.329  0.00  0.00    +0.466 C 
ATOM     20  O   UNL     1       5.149  -0.530   5.412  0.00  0.00    -0.453 OA
ENDBRANCH   1  12
BRANCH   1  21
ATOM     21  C   UNL     1      -0.635  -2.894   4.726  0.00  0.00    +0.009 A 
ATOM     22  C   UNL     1      -1.647  -2.282   5.466  0.00  0.00    -0.030 A 
ATOM     23  C   UNL     1      -2.230  -3.033   6.439  0.00  0.00    -0.005 A 
ATOM     24  S   UNL     1      -1.387  -4.589   6.339  0.00  0.00    -0.078 S 
ATOM     25  C   UNL     1      -0.285  -4.181   4.993  0.00  0.00    +0.078 A 
ATOM     26  C   UNL     1      -3.325  -2.626   7.370  0.00  0.00    +0.043 C 
ATOM     27  C   UNL     1      -3.461  -1.096   7.317  0.00  0.00    +0.005 C 
ATOM     28  C   UNL     1      -3.485  -0.656   5.851  0.00  0.00    +0.005 C 
ATOM     29  C   UNL     1      -2.103  -0.846   5.224  0.00  0.00    +0.036 C 
BRANCH  25  30
ATOM     30  N   UNL     1       0.684  -4.975   4.377  0.00  0.00    -0.276 N 
ATOM     31  C   UNL     1       0.958  -6.202   4.862  0.00  0.00    +0.249 C 
ATOM     32  O   UNL     1       0.361  -6.617   5.837  0.00  0.00    -0.270 OA
ATOM     33  H   UNL     1       1.160  -4.644   3.599  0.00  0.00    +0.156 HD
BRANCH  31  34
ATOM     34  C   UNL     1       1.984  -7.043   4.210  0.00  0.00    +0.037 A 
ATOM     35  C   UNL     1       2.675  -6.567   3.094  0.00  0.00    +0.013 A 
ATOM     36  C   UNL     1       3.631  -7.357   2.491  0.00  0.00    +0.001 A 
ATOM     37  C   UNL     1       3.906  -8.619   2.989  0.00  0.00    +0.000 A 
ATOM     38  C   UNL     1       3.224  -9.097   4.094  0.00  0.00    +0.001 A 
ATOM     39  C   UNL     1       2.270  -8.315   4.711  0.00  0.00    +0.013 A 
ENDBRANCH  31  34
ENDBRANCH  25  30
ENDBRANCH   1  21
TORSDOF 5
