REMARK  Name = ZINC11910187
REMARK  7 active torsions:
REMARK  status: ('A' for Active; 'I' for Inactive)
REMARK    1  A    between atoms: C_1  and  C_2
REMARK    2  A    between atoms: N_4  and  C_5
REMARK    3  A    between atoms: C_14  and  O_16
REMARK    4  A    between atoms: O_16  and  C_17
REMARK    5  A    between atoms: C_17  and  C_18
REMARK    6  A    between atoms: C_29  and  C_31
REMARK    7  A    between atoms: C_32  and  C_33
REMARK                            x       y       z     vdW  Elec       q    Type
REMARK                         _______ _______ _______ _____ _____    ______ ____
ROOT
ATOM      1  C   UNL     1       6.666   6.141   0.623  0.00  0.00    +0.133 C 
ATOM      2  C   UNL     1       6.573   6.322   2.123  0.00  0.00    -0.021 A 
ATOM      3  C   UNL     1       7.523   6.751   3.035  0.00  0.00    +0.006 A 
ATOM      4  C   UNL     1       7.208   6.841   4.377  0.00  0.00    +0.000 A 
ATOM      5  C   UNL     1       5.941   6.501   4.812  0.00  0.00    +0.000 A 
ATOM      6  C   UNL     1       4.993   6.071   3.905  0.00  0.00    +0.004 A 
ATOM      7  C   UNL     1       5.305   5.981   2.558  0.00  0.00    -0.034 A 
ATOM      8  C   UNL     1       4.465   5.548   1.381  0.00  0.00    +0.027 C 
ATOM      9  C   UNL     1       5.203   6.069   0.133  0.00  0.00    +0.154 C 
ATOM     10  C   UNL     1       3.076   6.174   1.462  0.00  0.00    +0.033 C 
ATOM     11  C   UNL     1       2.265   5.774   0.225  0.00  0.00    +0.109 C 
ATOM     12  N   UNL     1       2.276   4.309   0.105  0.00  0.00    -0.298 N 
ATOM     13  C   UNL     1       3.567   3.609   0.097  0.00  0.00    +0.109 C 
ATOM     14  C   UNL     1       4.367   4.026   1.330  0.00  0.00    +0.033 C 
ATOM     15  C   UNL     1       1.121   3.620   0.011  0.00  0.00    +0.239 C 
ATOM     16  O   UNL     1       0.062   4.215  -0.070  0.00  0.00    -0.271 OA
ENDROOT
BRANCH   1  20
ATOM     17  C   UNL     1       9.436   3.618  -0.162  0.00  0.00    +0.109 C 
ATOM     18  C   UNL     1       8.711   4.898   0.166  0.00  0.00    +0.210 C 
ATOM     19  O   UNL     1       9.334   5.929   0.305  0.00  0.00    -0.276 OA
ATOM     20  N   UNL     1       7.370   4.896   0.305  0.00  0.00    -0.306 N 
ATOM     21  H   UNL     1       6.872   4.072   0.193  0.00  0.00    +0.149 HD
ENDBRANCH   1  20
BRANCH  15  22
ATOM     22  C   UNL     1       1.141   2.157   0.005  0.00  0.00    +0.068 C 
ATOM     23  C   UNL     1      -0.018   1.467   0.017  0.00  0.00    +0.016 C 
BRANCH  23  24
ATOM     24  C   UNL     1       0.002  -0.004   0.012  0.00  0.00    +0.010 A 
ATOM     25  C   UNL     1       1.220  -0.691  -0.012  0.00  0.00    +0.011 A 
ATOM     26  C   UNL     1       1.230  -2.069  -0.011  0.00  0.00    +0.001 A 
ATOM     27  C   UNL     1       0.039  -2.776   0.001  0.00  0.00    +0.003 A 
ATOM     28  C   UNL     1      -1.171  -2.107   0.019  0.00  0.00    +0.039 A 
ATOM     29  C   UNL     1      -1.200  -0.725   0.025  0.00  0.00    +0.131 A 
ATOM     30  F   UNL     1      -2.382  -0.071   0.041  0.00  0.00    -0.205 F 
ENDBRANCH  23  24
ENDBRANCH  15  22
BRANCH   9  31
ATOM     31  O   UNL     1       4.723   7.362  -0.239  0.00  0.00    -0.369 OA
BRANCH  31  32
ATOM     32  C   UNL     1       4.801   7.630  -1.640  0.00  0.00    +0.195 C 
BRANCH  32  33
ATOM     33  C   UNL     1       4.271   9.013  -1.918  0.00  0.00    -0.022 A 
ATOM     34  C   UNL     1       2.930   9.196  -2.198  0.00  0.00    +0.006 A 
ATOM     35  C   UNL     1       2.443  10.465  -2.449  0.00  0.00    +0.000 A 
ATOM     36  C   UNL     1       3.299  11.551  -2.427  0.00  0.00    +0.000 A 
ATOM     37  C   UNL     1       4.642  11.367  -2.151  0.00  0.00    +0.000 A 
ATOM     38  C   UNL     1       5.128  10.098  -1.897  0.00  0.00    +0.006 A 
ENDBRANCH  32  33
ENDBRANCH  31  32
ENDBRANCH   9  31
TORSDOF 6
