REMARK  Name = ZINC39491757
REMARK  15 active torsions:
REMARK  status: ('A' for Active; 'I' for Inactive)
REMARK    1  A    between atoms: C_1  and  C_2
REMARK    2  A    between atoms: C_2  and  N_3
REMARK    3  A    between atoms: N_3  and  C_4
REMARK    4  A    between atoms: C_4  and  C_5
REMARK    5  A    between atoms: N_7  and  C_18
REMARK    6  A    between atoms: C_11  and  C_14
REMARK    7  A    between atoms: C_14  and  O_16
REMARK    8  A    between atoms: O_16  and  C_17
REMARK    9  A    between atoms: C_18  and  C_19
REMARK   10  A    between atoms: C_19  and  C_21
REMARK   11  A    between atoms: C_19  and  S_28
REMARK   12  A    between atoms: C_26  and  O_27
REMARK   13  A    between atoms: S_28  and  C_31
REMARK   14  A    between atoms: C_31  and  C_32
REMARK   15  A    between atoms: C_31  and  C_33
REMARK                            x       y       z     vdW  Elec       q    Type
REMARK                         _______ _______ _______ _____ _____    ______ ____
ROOT
ATOM      1  C   UNL     1       2.048  -2.071   2.712  0.00  0.00    -0.039 A 
ATOM      2  C   UNL     1       3.220  -2.708   2.864  0.00  0.00    +0.088 A 
ATOM      3  N   UNL     1       3.358  -3.131   4.158  0.00  0.00    -0.344 N 
ATOM      4  C   UNL     1       2.254  -2.770   4.891  0.00  0.00    +0.049 A 
ATOM      5  C   UNL     1       1.385  -2.083   4.019  0.00  0.00    +0.002 A 
ATOM      6  C   UNL     1       0.172  -1.589   4.492  0.00  0.00    +0.025 A 
ATOM      7  C   UNL     1      -0.167  -1.776   5.830  0.00  0.00    +0.060 A 
ATOM      8  C   UNL     1       0.708  -2.458   6.687  0.00  0.00    +0.017 A 
ATOM      9  C   UNL     1       1.892  -2.950   6.224  0.00  0.00    +0.027 A 
ENDROOT
BRANCH   7  10
ATOM     10  C   UNL     1      -1.448  -1.257   6.345  0.00  0.00    +0.339 C 
ATOM     11  O   UNL     1      -2.207  -0.666   5.602  0.00  0.00    -0.245 OA
BRANCH  10  12
ATOM     12  O   UNL     1      -1.777  -1.438   7.639  0.00  0.00    -0.464 OA
ATOM     13  C   UNL     1      -3.033  -0.909   8.069  0.00  0.00    +0.280 C 
ENDBRANCH  10  12
ENDBRANCH   7  10
BRANCH   1  14
ATOM     14  C   UNL     1       1.519  -1.456   1.443  0.00  0.00    -0.045 C 
BRANCH  14  15
ATOM     15  N   UNL     1       1.755  -0.006   1.466  0.00  0.00    +0.382 N 
ATOM     16  H   UNL     1       2.745   0.172   1.538  0.00  0.00    -0.085 HD
ATOM     17  H   UNL     1       1.281   0.399   2.259  0.00  0.00    -0.085 HD
BRANCH  15  19
ATOM     18  C   UNL     1       1.484   2.103   0.252  0.00  0.00    -0.017 C 
ATOM     19  C   UNL     1       1.238   0.594   0.228  0.00  0.00    -0.086 C 
ENDBRANCH  15  19
ENDBRANCH  14  15
ENDBRANCH   1  14
BRANCH   3  20
ATOM     20  C   UNL     1       4.514  -3.862   4.684  0.00  0.00    +0.153 C 
BRANCH  20  21
ATOM     21  C   UNL     1       4.329  -5.359   4.430  0.00  0.00    +0.184 C 
BRANCH  21  22
ATOM     22  C   UNL     1       5.577  -6.097   4.840  0.00  0.00    +0.020 A 
ATOM     23  C   UNL     1       5.681  -6.627   6.112  0.00  0.00    +0.009 A 
ATOM     24  C   UNL     1       6.826  -7.303   6.489  0.00  0.00    +0.001 A 
ATOM     25  C   UNL     1       7.871  -7.451   5.595  0.00  0.00    +0.004 A 
ATOM     26  C   UNL     1       7.772  -6.923   4.322  0.00  0.00    +0.046 A 
ATOM     27  C   UNL     1       6.621  -6.249   3.940  0.00  0.00    +0.122 A 
BRANCH  27  28
ATOM     28  O   UNL     1       6.519  -5.734   2.686  0.00  0.00    -0.506 OA
ATOM     29  H   UNL     1       6.844  -4.826   2.606  0.00  0.00    +0.292 HD
ENDBRANCH  27  28
ENDBRANCH  21  22
BRANCH  21  30
ATOM     30  S   UNL     1       2.921  -5.968   5.400  0.00  0.00    -0.020 S 
ATOM     31  O   UNL     1       3.167  -5.690   6.771  0.00  0.00    -0.173 OA
ATOM     32  O   UNL     1       1.724  -5.490   4.802  0.00  0.00    -0.173 OA
BRANCH  30  33
ATOM     33  C   UNL     1       3.010  -7.763   5.153  0.00  0.00    +0.125 C 
ATOM     34  C   UNL     1       1.806  -8.430   5.820  0.00  0.00    +0.031 C 
ATOM     35  C   UNL     1       2.999  -8.072   3.654  0.00  0.00    +0.031 C 
ENDBRANCH  30  33
ENDBRANCH  21  30
ENDBRANCH  20  21
ENDBRANCH   3  20
TORSDOF 11
