REMARK  Name = ZINC06894606
REMARK  3 active torsions:
REMARK  status: ('A' for Active; 'I' for Inactive)
REMARK    1  A    between atoms: C_1  and  C_2
REMARK    2  A    between atoms: C_3  and  N_9
REMARK    3  A    between atoms: C_10  and  C_12
REMARK                            x       y       z     vdW  Elec       q    Type
REMARK                         _______ _______ _______ _____ _____    ______ ____
ROOT
ATOM      1  C   UNL     1       2.023   1.906  -1.254  0.00  0.00    +0.076 C 
ATOM      2  C   UNL     1       3.183   1.006  -0.746  0.00  0.00    -0.003 C 
ATOM      3  C   UNL     1       3.417   1.567   0.677  0.00  0.00    -0.066 C 
ATOM      4  C   UNL     1       3.970   0.450   1.576  0.00  0.00    -0.017 C 
ATOM      5  C   UNL     1       2.865   0.191   2.625  0.00  0.00    -0.020 C 
ATOM      6  C   UNL     1       1.589   0.710   1.919  0.00  0.00    -0.077 C 
ATOM      7  C   UNL     1       1.194   2.146   0.017  0.00  0.00    +0.052 C 
ATOM      8  C   UNL     1       0.633   3.543   0.032  0.00  0.00    -0.027 A 
ATOM      9  C   UNL     1       1.212   4.792   0.023  0.00  0.00    +0.004 A 
ATOM     10  C   UNL     1       0.416   5.923   0.041  0.00  0.00    +0.000 A 
ATOM     11  C   UNL     1      -0.961   5.795   0.067  0.00  0.00    +0.002 A 
ATOM     12  C   UNL     1      -1.544   4.545   0.076  0.00  0.00    +0.023 A 
ATOM     13  C   UNL     1      -0.750   3.401   0.059  0.00  0.00    +0.036 A 
ATOM     14  N   UNL     1      -1.097   2.049   0.059  0.00  0.00    -0.286 N 
ATOM     15  C   UNL     1      -0.015   1.247   0.042  0.00  0.00    +0.212 C 
ATOM     16  O   UNL     1      -0.015   0.034   0.042  0.00  0.00    -0.277 OA
ATOM     17  H   UNL     1      -2.010   1.724   0.071  0.00  0.00    +0.155 HD
ATOM     18  N   UNL     1       2.080   1.880   1.168  0.00  0.00    +0.394 N 
ATOM     19  H   UNL     1       2.111   2.703   1.780  0.00  0.00    -0.079 HD
ENDROOT
BRANCH   1  21
ATOM     20  N   UNL     1       1.880   3.862  -2.761  0.00  0.00    -0.285 N 
ATOM     21  C   UNL     1       2.556   3.207  -1.797  0.00  0.00    +0.220 C 
ATOM     22  O   UNL     1       3.594   3.664  -1.366  0.00  0.00    -0.275 OA
ATOM     23  H   UNL     1       1.021   3.528  -3.063  0.00  0.00    +0.155 HD
BRANCH  20  26
ATOM     24  C   UNL     1       1.086   4.564  -5.402  0.00  0.00    +0.047 C 
ATOM     25  C   UNL     1       2.057   5.403  -4.612  0.00  0.00    -0.011 A 
ATOM     26  C   UNL     1       2.417   5.024  -3.326  0.00  0.00    +0.038 A 
ATOM     27  C   UNL     1       3.316   5.798  -2.604  0.00  0.00    +0.023 A 
ATOM     28  C   UNL     1       3.845   6.944  -3.164  0.00  0.00    +0.003 A 
ATOM     29  C   UNL     1       3.481   7.322  -4.443  0.00  0.00    +0.020 A 
ATOM     30  C   UNL     1       2.585   6.554  -5.166  0.00  0.00    +0.046 A 
ATOM     31 CL   UNL     1       2.131   7.033  -6.771  0.00  0.00    -0.083 Cl
ENDBRANCH  20  26
ENDBRANCH   1  21
TORSDOF 2
