REMARK  Name = ZINC14993574
REMARK  7 active torsions:
REMARK  status: ('A' for Active; 'I' for Inactive)
REMARK    1  A    between atoms: C_1  and  C_2
REMARK    2  A    between atoms: C_2  and  O_3
REMARK    3  A    between atoms: O_3  and  C_4
REMARK    4  A    between atoms: C_13  and  C_25
REMARK    5  A    between atoms: C_25  and  N_26
REMARK    6  A    between atoms: N_26  and  C_27
REMARK    7  A    between atoms: C_27  and  C_28
REMARK                            x       y       z     vdW  Elec       q    Type
REMARK                         _______ _______ _______ _____ _____    ______ ____
ROOT
ATOM      1  C   UNL     1      -1.964  -0.788  -0.671  0.00  0.00    +0.403 C 
ATOM      2  O   UNL     1      -1.452  -0.619   0.418  0.00  0.00    -0.226 OA
ATOM      3  N   UNL     1      -3.203  -1.309  -0.759  0.00  0.00    -0.264 N 
ATOM      4  C   UNL     1      -3.832  -1.526  -2.069  0.00  0.00    +0.130 C 
ATOM      5  C   UNL     1      -4.253  -2.997  -2.174  0.00  0.00    +0.125 C 
ATOM      6  N   UNL     1      -5.000  -3.360  -0.961  0.00  0.00    -0.313 N 
ATOM      7  C   UNL     1      -4.371  -3.143   0.349  0.00  0.00    +0.125 C 
ATOM      8  C   UNL     1      -3.948  -1.677   0.454  0.00  0.00    +0.130 C 
ATOM      9  C   UNL     1      -6.276  -3.896  -1.052  0.00  0.00    +0.101 A 
ATOM     10  C   UNL     1      -6.426  -5.275  -1.255  0.00  0.00    -0.026 A 
ATOM     11  C   UNL     1      -7.673  -5.816  -1.346  0.00  0.00    +0.015 A 
ATOM     12  C   UNL     1      -8.784  -4.956  -1.232  0.00  0.00    -0.001 A 
ATOM     13  C   UNL     1     -10.096  -5.443  -1.317  0.00  0.00    +0.014 A 
ATOM     14  C   UNL     1     -11.151  -4.585  -1.203  0.00  0.00    -0.043 A 
ATOM     15  C   UNL     1     -10.940  -3.222  -1.000  0.00  0.00    -0.042 A 
ATOM     16  C   UNL     1      -9.675  -2.718  -0.912  0.00  0.00    +0.030 A 
ATOM     17  C   UNL     1      -8.566  -3.572  -1.026  0.00  0.00    +0.048 A 
ATOM     18  N   UNL     1      -7.318  -3.098  -0.940  0.00  0.00    -0.343 N 
ATOM     19  C   UNL     1     -12.275  -2.511  -0.910  0.00  0.00    +0.036 C 
ATOM     20  C   UNL     1     -13.299  -3.493  -1.516  0.00  0.00    +0.009 C 
ATOM     21  C   UNL     1     -12.639  -4.864  -1.261  0.00  0.00    +0.036 C 
ATOM     22  H   UNL     1      -7.178  -2.150  -0.795  0.00  0.00    +0.167 HD
ENDROOT
BRANCH   1  23
ATOM     23  O   UNL     1      -1.292  -0.456  -1.789  0.00  0.00    -0.451 OA
BRANCH  23  25
ATOM     24  C   UNL     1       0.619   0.405  -2.993  0.00  0.00    +0.048 C 
ATOM     25  C   UNL     1       0.017   0.091  -1.621  0.00  0.00    +0.230 C 
ENDBRANCH  23  25
ENDBRANCH   1  23
BRANCH  10  26
ATOM     26  C   UNL     1      -5.210  -6.158  -1.373  0.00  0.00    -0.043 C 
BRANCH  26  27
ATOM     27  N   UNL     1      -4.688  -6.453  -0.032  0.00  0.00    +0.382 N 
ATOM     28  H   UNL     1      -4.512  -5.589   0.459  0.00  0.00    -0.085 HD
ATOM     29  H   UNL     1      -5.365  -6.999   0.480  0.00  0.00    -0.085 HD
BRANCH  27  30
ATOM     30  C   UNL     1      -3.436  -7.213  -0.150  0.00  0.00    -0.078 C 
BRANCH  30  31
ATOM     31  C   UNL     1      -2.892  -7.521   1.246  0.00  0.00    -0.020 C 
ATOM     32  C   UNL     1      -3.811  -8.532   1.979  0.00  0.00    +0.010 C 
ATOM     33  C   UNL     1      -2.877  -9.765   2.232  0.00  0.00    +0.018 C 
ATOM     34  C   UNL     1      -2.628 -10.309   0.814  0.00  0.00    -0.027 C 
ATOM     35  C   UNL     1      -1.851  -9.456   0.171  0.00  0.00    -0.027 C 
ATOM     36  C   UNL     1      -1.517  -8.268   1.150  0.00  0.00    +0.019 C 
ATOM     37  C   UNL     1      -1.534  -9.042   2.492  0.00  0.00    -0.017 C 
ATOM     38  C   UNL     1      -1.093  -8.487   3.811  0.00  0.00    +0.008 C 
ATOM     39  C   UNL     1      -0.337  -9.652   3.152  0.00  0.00    +0.008 C 
ENDBRANCH  30  31
ENDBRANCH  27  30
ENDBRANCH  26  27
ENDBRANCH  10  26
TORSDOF 6
