REMARK  Name = ZINC09207486
REMARK  9 active torsions:
REMARK  status: ('A' for Active; 'I' for Inactive)
REMARK    1  A    between atoms: C_1  and  C_2
REMARK    2  A    between atoms: C_2  and  C_4
REMARK    3  A    between atoms: C_2  and  N_63
REMARK    4  A    between atoms: C_7  and  S_16
REMARK    5  A    between atoms: N_8  and  C_9
REMARK    6  A    between atoms: S_16  and  C_17
REMARK    7  A    between atoms: C_17  and  C_19
REMARK    8  A    between atoms: C_17  and  C_20
REMARK    9  A    between atoms: N_22  and  C_23
REMARK                            x       y       z     vdW  Elec       q    Type
REMARK                         _______ _______ _______ _____ _____    ______ ____
ROOT
ATOM      1  C   UNL     1      -0.799   1.530   3.635  0.00  0.00    +0.125 A 
ATOM      2  N   UNL     1      -1.139   2.780   3.785  0.00  0.00    -0.135 NA
ATOM      3  N   UNL     1      -1.658   2.960   4.947  0.00  0.00    -0.122 NA
ATOM      4  C   UNL     1      -1.671   1.829   5.612  0.00  0.00    +0.197 A 
ATOM      5  N   UNL     1      -1.122   0.879   4.796  0.00  0.00    -0.275 N 
ENDROOT
BRANCH   5   6
ATOM      6  C   UNL     1      -0.929  -0.481   5.087  0.00  0.00    +0.050 A 
ATOM      7  C   UNL     1      -1.622  -1.449   4.373  0.00  0.00    +0.029 A 
ATOM      8  C   UNL     1      -1.427  -2.786   4.657  0.00  0.00    +0.040 A 
ATOM      9  C   UNL     1      -0.549  -3.161   5.660  0.00  0.00    +0.124 A 
ATOM     10  C   UNL     1       0.139  -2.196   6.377  0.00  0.00    +0.040 A 
ATOM     11  C   UNL     1      -0.050  -0.858   6.092  0.00  0.00    +0.029 A 
ATOM     12  F   UNL     1      -0.364  -4.470   5.940  0.00  0.00    -0.205 F 
ENDBRANCH   5   6
BRANCH   1  14
ATOM     13  C   UNL     1       1.334   1.236   2.406  0.00  0.00    -0.005 C 
ATOM     14  C   UNL     1      -0.163   0.918   2.414  0.00  0.00    -0.002 C 
BRANCH  14  20
ATOM     15  C   UNL     1      -2.178   1.020   1.078  0.00  0.00    -0.078 C 
ATOM     16  C   UNL     1      -2.840   1.730  -0.106  0.00  0.00    -0.019 C 
ATOM     17  C   UNL     1      -2.060   1.413  -1.385  0.00  0.00    -0.004 C 
ATOM     18  C   UNL     1      -0.604   1.850  -1.207  0.00  0.00    -0.019 C 
ATOM     19  C   UNL     1      -0.007   1.137   0.008  0.00  0.00    -0.078 C 
ATOM     20  N   UNL     1      -0.787   1.503   1.210  0.00  0.00    +0.386 N 
ATOM     21  H   UNL     1      -0.797   2.525   1.302  0.00  0.00    -0.081 HD
ENDBRANCH  14  20
ENDBRANCH   1  14
BRANCH   4  22
ATOM     22  S   UNL     1      -2.278   1.581   7.248  0.00  0.00    -0.073 S 
BRANCH  22  23
ATOM     23  C   UNL     1      -2.821   3.263   7.639  0.00  0.00    +0.137 C 
ATOM     24  C   UNL     1      -1.608   4.195   7.679  0.00  0.00    +0.029 C 
BRANCH  23  25
ATOM     25  C   UNL     1      -3.505   3.270   8.982  0.00  0.00    +0.230 C 
ATOM     26  O   UNL     1      -3.240   2.416   9.802  0.00  0.00    -0.274 OA
ATOM     27  N   UNL     1      -4.410   4.225   9.273  0.00  0.00    -0.284 N 
ATOM     28  H   UNL     1      -4.665   4.873   8.597  0.00  0.00    +0.155 HD
BRANCH  27  29
ATOM     29  C   UNL     1      -4.983   4.282  10.550  0.00  0.00    +0.037 A 
ATOM     30  C   UNL     1      -5.252   3.110  11.243  0.00  0.00    +0.027 A 
ATOM     31  C   UNL     1      -5.814   3.164  12.504  0.00  0.00    +0.051 A 
ATOM     32  C   UNL     1      -6.118   4.388  13.077  0.00  0.00    +0.166 A 
ATOM     33  C   UNL     1      -5.855   5.566  12.382  0.00  0.00    +0.168 A 
ATOM     34  C   UNL     1      -5.288   5.511  11.120  0.00  0.00    +0.072 A 
ATOM     35  O   UNL     1      -6.242   6.624  13.153  0.00  0.00    -0.453 OA
ATOM     36  C   UNL     1      -7.118   6.071  14.152  0.00  0.00    +0.466 C 
ATOM     37  O   UNL     1      -6.671   4.709  14.284  0.00  0.00    -0.453 OA
ENDBRANCH  27  29
ENDBRANCH  23  25
ENDBRANCH  22  23
ENDBRANCH   4  22
TORSDOF 7
