REMARK  Name = ZINC13082852
REMARK  5 active torsions:
REMARK  status: ('A' for Active; 'I' for Inactive)
REMARK    1  A    between atoms: C_1  and  C_2
REMARK    2  A    between atoms: C_3  and  C_31
REMARK    3  A    between atoms: C_13  and  O_30
REMARK    4  A    between atoms: C_16  and  N_17
REMARK    5  A    between atoms: N_17  and  C_18
REMARK                            x       y       z     vdW  Elec       q    Type
REMARK                         _______ _______ _______ _____ _____    ______ ____
ROOT
ATOM      1  C   UNL     1      -0.041   1.530   0.059  0.00  0.00    +0.045 C 
ATOM      2  C   UNL     1      -0.029   0.024   0.036  0.00  0.00    -0.021 C 
ATOM      3  C   UNL     1      -0.027  -0.640  -1.176  0.00  0.00    +0.098 C 
ATOM      4  C   UNL     1      -0.016  -2.110  -1.254  0.00  0.00    +0.155 A 
ATOM      5  N   UNL     1      -0.011  -2.916  -2.298  0.00  0.00    -0.227 NA
ATOM      6  C   UNL     1      -0.000  -4.205  -1.884  0.00  0.00    +0.090 A 
ATOM      7  C   UNL     1       0.009  -5.431  -2.559  0.00  0.00    +0.030 A 
ATOM      8  C   UNL     1       0.020  -6.606  -1.843  0.00  0.00    +0.002 A 
ATOM      9  C   UNL     1       0.022  -6.586  -0.456  0.00  0.00    +0.002 A 
ATOM     10  C   UNL     1       0.013  -5.387   0.226  0.00  0.00    +0.028 A 
ATOM     11  C   UNL     1       0.003  -4.192  -0.478  0.00  0.00    +0.072 A 
ATOM     12  N   UNL     1      -0.007  -2.861  -0.107  0.00  0.00    -0.293 N 
ATOM     13  C   UNL     1      -0.010  -2.198   1.200  0.00  0.00    +0.250 C 
ATOM     14  C   UNL     1      -0.016  -0.687   1.244  0.00  0.00    +0.020 C 
ATOM     15  C   UNL     1      -0.013  -0.031   2.431  0.00  0.00    +0.080 C 
ENDROOT
BRANCH  15  16
ATOM     16  N   UNL     1       0.130  -0.729   3.598  0.00  0.00    -0.320 N 
ATOM     17  H   UNL     1       0.309  -1.682   3.574  0.00  0.00    +0.152 HD
BRANCH  16  18
ATOM     18  C   UNL     1       0.019  -0.069   4.825  0.00  0.00    +0.033 A 
ATOM     19  C   UNL     1      -0.243   1.297   4.858  0.00  0.00    +0.025 A 
ATOM     20  C   UNL     1      -0.354   1.954   6.067  0.00  0.00    +0.029 A 
ATOM     21  C   UNL     1      -0.203   1.251   7.253  0.00  0.00    +0.067 A 
ATOM     22  C   UNL     1       0.060  -0.120   7.224  0.00  0.00    +0.069 A 
ATOM     23  C   UNL     1       0.165  -0.778   6.009  0.00  0.00    +0.051 A 
ATOM     24  N   UNL     1       0.157  -0.540   8.548  0.00  0.00    -0.306 N 
ATOM     25  H   UNL     1       0.335  -1.446   8.845  0.00  0.00    +0.170 HD
ATOM     26  C   UNL     1      -0.038   0.526   9.347  0.00  0.00    +0.325 A 
ATOM     27  O   UNL     1      -0.018   0.503  10.564  0.00  0.00    -0.247 OA
ATOM     28  N   UNL     1      -0.258   1.622   8.597  0.00  0.00    -0.306 N 
ATOM     29  H   UNL     1      -0.425   2.516   8.932  0.00  0.00    +0.170 HD
ENDBRANCH  16  18
ENDBRANCH  15  16
BRANCH  13  30
ATOM     30  O   UNL     1      -1.157  -2.660   1.917  0.00  0.00    -0.368 OA
ATOM     31  H   UNL     1      -1.208  -2.337   2.828  0.00  0.00    +0.212 HD
ENDBRANCH  13  30
BRANCH   3  32
ATOM     32  C   UNL     1      -0.036   0.122  -2.388  0.00  0.00    +0.103 C 
ATOM     33  N   UNL     1      -0.043   0.727  -3.350  0.00  0.00    -0.191 NA
ENDBRANCH   3  32
TORSDOF 4
