REMARK  Name = ZINC40215488
REMARK  4 active torsions:
REMARK  status: ('A' for Active; 'I' for Inactive)
REMARK    1  A    between atoms: C_6  and  S_7
REMARK    2  A    between atoms: S_7  and  N_10
REMARK    3  A    between atoms: N_10  and  C_11
REMARK    4  A    between atoms: C_11  and  C_17
REMARK                            x       y       z     vdW  Elec       q    Type
REMARK                         _______ _______ _______ _____ _____    ______ ____
ROOT
ATOM      1  S   UNL     1      -1.502  -0.892   0.007  0.00  0.00    +0.060 S 
ATOM      2  O   UNL     1      -2.578  -0.105   0.501  0.00  0.00    -0.153 OA
ATOM      3  O   UNL     1      -0.148  -0.468   0.090  0.00  0.00    -0.153 OA
ENDROOT
BRANCH   1   9
ATOM      4  C   UNL     1      -0.442  -3.169   1.073  0.00  0.00    +0.031 A 
ATOM      5  C   UNL     1      -0.512  -4.389   1.720  0.00  0.00    +0.043 A 
ATOM      6  C   UNL     1      -1.738  -4.887   2.128  0.00  0.00    +0.159 A 
ATOM      7  C   UNL     1      -2.894  -4.161   1.886  0.00  0.00    +0.160 A 
ATOM      8  C   UNL     1      -2.821  -2.940   1.238  0.00  0.00    +0.069 A 
ATOM      9  C   UNL     1      -1.595  -2.446   0.833  0.00  0.00    +0.108 A 
ATOM     10  F   UNL     1      -4.092  -4.645   2.283  0.00  0.00    -0.202 F 
ATOM     11  F   UNL     1      -1.807  -6.079   2.760  0.00  0.00    -0.202 F 
ENDBRANCH   1   9
BRANCH   1  12
ATOM     12  N   UNL     1      -1.815  -1.169  -1.595  0.00  0.00    -0.170 NA
ATOM     13  H   UNL     1      -2.574  -0.742  -2.022  0.00  0.00    +0.150 HD
BRANCH  12  14
ATOM     14  C   UNL     1      -0.944  -2.058  -2.368  0.00  0.00    +0.126 C 
ATOM     15  C   UNL     1       0.506  -1.588  -2.242  0.00  0.00    +0.039 C 
ATOM     16  C   UNL     1       1.415  -2.517  -3.050  0.00  0.00    +0.003 C 
ATOM     17  C   UNL     1       0.996  -2.489  -4.521  0.00  0.00    +0.000 C 
ATOM     18  C   UNL     1      -0.455  -2.959  -4.646  0.00  0.00    +0.003 C 
ATOM     19  C   UNL     1      -1.364  -2.030  -3.839  0.00  0.00    +0.039 C 
BRANCH  14  20
ATOM     20  C   UNL     1      -1.062  -3.431  -1.850  0.00  0.00    +0.086 C 
ATOM     21  N   UNL     1      -1.152  -4.490  -1.450  0.00  0.00    -0.195 NA
ENDBRANCH  14  20
ENDBRANCH  12  14
ENDBRANCH   1  12
TORSDOF 4
