REMARK  Name = ZINC02745195
REMARK  12 active torsions:
REMARK  status: ('A' for Active; 'I' for Inactive)
REMARK    1  A    between atoms: C_1  and  C_2
REMARK    2  A    between atoms: C_5  and  N_9
REMARK    3  A    between atoms: C_7  and  C_8
REMARK    4  A    between atoms: N_11  and  C_28
REMARK    5  A    between atoms: C_15  and  C_16
REMARK    6  A    between atoms: C_18  and  O_25
REMARK    7  A    between atoms: C_19  and  O_24
REMARK    8  A    between atoms: C_20  and  O_22
REMARK    9  A    between atoms: O_22  and  C_23
REMARK   10  A    between atoms: O_25  and  C_26
REMARK   11  A    between atoms: C_31  and  C_35
REMARK   12  A    between atoms: C_32  and  C_34
REMARK                            x       y       z     vdW  Elec       q    Type
REMARK                         _______ _______ _______ _____ _____    ______ ____
ROOT
ATOM      1  N   UNL     1       9.028   4.440  -0.546  0.00  0.00    -0.225 NA
ATOM      2  C   UNL     1       8.159   3.465  -0.404  0.00  0.00    +0.173 C 
ATOM      3  N   UNL     1       8.392   2.105  -0.373  0.00  0.00    -0.214 N 
ATOM      4  C   UNL     1       7.392   1.255  -0.216  0.00  0.00    +0.263 C 
ATOM      5  O   UNL     1       7.580   0.052  -0.180  0.00  0.00    -0.269 OA
ATOM      6  C   UNL     1       6.039   1.828  -0.090  0.00  0.00    +0.078 C 
ATOM      7  C   UNL     1       4.848   1.196   0.074  0.00  0.00    +0.028 C 
ATOM      8  S   UNL     1       6.388   3.576  -0.204  0.00  0.00    -0.048 S 
ENDROOT
BRANCH   1  13
ATOM      9  C   UNL     1       7.272   9.805  -0.571  0.00  0.00    +0.044 C 
ATOM     10  C   UNL     1       7.741   8.373  -0.564  0.00  0.00    -0.047 A 
ATOM     11  C   UNL     1       7.057   7.421  -1.300  0.00  0.00    +0.006 A 
ATOM     12  C   UNL     1       7.484   6.109  -1.303  0.00  0.00    +0.028 A 
ATOM     13  C   UNL     1       8.603   5.741  -0.552  0.00  0.00    +0.067 A 
ATOM     14  C   UNL     1       9.288   6.707   0.188  0.00  0.00    +0.031 A 
ATOM     15  C   UNL     1       8.853   8.016   0.177  0.00  0.00    -0.046 A 
ATOM     16  C   UNL     1       9.592   9.060   0.975  0.00  0.00    +0.044 C 
ENDBRANCH   1  13
BRANCH   3  17
ATOM     17  C   UNL     1       9.701   1.622  -0.503  0.00  0.00    +0.044 A 
ATOM     18  C   UNL     1      10.072   0.915  -1.640  0.00  0.00    +0.024 A 
ATOM     19  C   UNL     1      11.362   0.440  -1.765  0.00  0.00    +0.005 A 
ATOM     20  C   UNL     1      12.285   0.668  -0.760  0.00  0.00    -0.047 A 
ATOM     21  C   UNL     1      11.919   1.372   0.372  0.00  0.00    -0.046 A 
ATOM     22  C   UNL     1      10.631   1.854   0.501  0.00  0.00    +0.027 A 
ATOM     23  C   UNL     1      12.928   1.618   1.464  0.00  0.00    +0.044 C 
ATOM     24  C   UNL     1      13.693   0.149  -0.901  0.00  0.00    +0.044 C 
ENDBRANCH   3  17
BRANCH   7  25
ATOM     25  C   UNL     1       3.636   1.976   0.354  0.00  0.00    -0.017 A 
ATOM     26  C   UNL     1       3.740   3.301   0.795  0.00  0.00    +0.057 A 
ATOM     27  C   UNL     1       2.597   4.032   1.058  0.00  0.00    +0.166 A 
ATOM     28  C   UNL     1       1.343   3.454   0.879  0.00  0.00    +0.201 A 
ATOM     29  C   UNL     1       1.235   2.134   0.447  0.00  0.00    +0.166 A 
ATOM     30  C   UNL     1       2.373   1.397   0.182  0.00  0.00    +0.057 A 
BRANCH  29  31
ATOM     31  O   UNL     1       0.008   1.573   0.280  0.00  0.00    -0.491 OA
ATOM     32  C   UNL     1      -0.029   0.217  -0.171  0.00  0.00    +0.277 C 
ENDBRANCH  29  31
BRANCH  28  33
ATOM     33  O   UNL     1       0.220   4.178   1.133  0.00  0.00    -0.501 OA
ATOM     34  H   UNL     1      -0.093   4.111   2.046  0.00  0.00    +0.292 HD
ENDBRANCH  28  33
BRANCH  27  35
ATOM     35  O   UNL     1       2.697   5.319   1.485  0.00  0.00    -0.491 OA
ATOM     36  C   UNL     1       4.014   5.851   1.641  0.00  0.00    +0.277 C 
ENDBRANCH  27  35
ENDBRANCH   7  25
TORSDOF 6
