REMARK  Name = ZINC63588645
REMARK  9 active torsions:
REMARK  status: ('A' for Active; 'I' for Inactive)
REMARK    1  A    between atoms: C_1  and  C_2
REMARK    2  A    between atoms: C_5  and  N_9
REMARK    3  A    between atoms: C_6  and  C_8
REMARK    4  A    between atoms: N_11  and  C_12
REMARK    5  A    between atoms: C_12  and  C_13
REMARK    6  A    between atoms: C_13  and  C_14
REMARK    7  A    between atoms: N_23  and  C_24
REMARK    8  A    between atoms: C_24  and  C_26
REMARK    9  A    between atoms: C_31  and  C_32
REMARK                            x       y       z     vdW  Elec       q    Type
REMARK                         _______ _______ _______ _____ _____    ______ ____
ROOT
ATOM      1  N   UNL     1       1.119  -2.662   0.504  0.00  0.00    -0.328 N 
ATOM      2  C   UNL     1       1.947  -3.173  -0.454  0.00  0.00    +0.194 C 
ATOM      3  N   UNL     1       3.038  -3.907  -0.091  0.00  0.00    -0.357 N 
ATOM      4  N   UNL     1       1.690  -2.956  -1.735  0.00  0.00    -0.143 NA
ATOM      5  H   UNL     1       3.626  -4.270  -0.772  0.00  0.00    +0.162 HD
ATOM      6  H   UNL     1       1.217  -1.739   0.788  0.00  0.00    +0.169 HD
ENDROOT
BRANCH   1  11
ATOM      7  C   UNL     1      -2.894  -5.932   2.824  0.00  0.00    +0.044 C 
ATOM      8  C   UNL     1      -1.828  -5.063   2.208  0.00  0.00    -0.050 A 
ATOM      9  C   UNL     1      -1.039  -5.559   1.185  0.00  0.00    +0.005 A 
ATOM     10  C   UNL     1      -0.062  -4.765   0.619  0.00  0.00    +0.026 A 
ATOM     11  C   UNL     1       0.129  -3.468   1.076  0.00  0.00    +0.045 A 
ATOM     12  C   UNL     1      -0.664  -2.973   2.103  0.00  0.00    -0.027 A 
ATOM     13  C   UNL     1      -1.643  -3.770   2.663  0.00  0.00    +0.008 A 
ATOM     14  C   UNL     1      -0.459  -1.566   2.603  0.00  0.00    +0.046 C 
ENDBRANCH   1  11
BRANCH   4  15
ATOM     15  C   UNL     1       0.689  -2.139  -2.088  0.00  0.00    +0.270 C 
ATOM     16  O   UNL     1      -0.061  -1.692  -1.239  0.00  0.00    -0.268 OA
BRANCH  15  17
ATOM     17  C   UNL     1       0.494  -1.780  -3.512  0.00  0.00    +0.042 A 
ATOM     18  C   UNL     1       1.432  -2.170  -4.468  0.00  0.00    +0.013 A 
ATOM     19  C   UNL     1       1.244  -1.834  -5.792  0.00  0.00    +0.001 A 
ATOM     20  C   UNL     1       0.128  -1.111  -6.174  0.00  0.00    +0.000 A 
ATOM     21  C   UNL     1      -0.806  -0.721  -5.231  0.00  0.00    +0.004 A 
ATOM     22  C   UNL     1      -0.632  -1.057  -3.904  0.00  0.00    -0.038 A 
ATOM     23  C   UNL     1      -1.654  -0.637  -2.878  0.00  0.00    +0.044 C 
ENDBRANCH  15  17
ENDBRANCH   4  15
BRANCH   3  24
ATOM     24  C   UNL     1       3.321  -4.147   1.326  0.00  0.00    +0.120 C 
BRANCH  24  25
ATOM     25  C   UNL     1       4.591  -4.990   1.456  0.00  0.00    +0.054 C 
BRANCH  25  26
ATOM     26  C   UNL     1       4.883  -5.237   2.914  0.00  0.00    -0.040 C 
ATOM     27  C   UNL     1       4.528  -6.320   3.642  0.00  0.00    -0.001 A 
ATOM     28  C   UNL     1       3.792  -7.546   3.308  0.00  0.00    +0.010 A 
ATOM     29  C   UNL     1       3.587  -8.471   4.272  0.00  0.00    +0.001 A 
ATOM     30  C   UNL     1       4.059  -8.290   5.580  0.00  0.00    +0.002 A 
ATOM     31  C   UNL     1       4.743  -7.192   5.963  0.00  0.00    +0.026 A 
ATOM     32  C   UNL     1       5.016  -6.154   5.030  0.00  0.00    +0.043 A 
ATOM     33  N   UNL     1       5.648  -5.012   5.155  0.00  0.00    -0.380 N 
ATOM     34  C   UNL     1       5.637  -4.327   3.857  0.00  0.00    +0.144 C 
ATOM     35  H   UNL     1       6.057  -4.677   5.968  0.00  0.00    +0.160 HD
ENDBRANCH  25  26
ENDBRANCH  24  25
ENDBRANCH   3  24
TORSDOF 6
