REMARK  Name = ZINC39725681
REMARK  8 active torsions:
REMARK  status: ('A' for Active; 'I' for Inactive)
REMARK    1  A    between atoms: C_1  and  O_2
REMARK    2  A    between atoms: O_2  and  C_3
REMARK    3  A    between atoms: C_3  and  C_5
REMARK    4  A    between atoms: C_8  and  N_11
REMARK    5  A    between atoms: C_12  and  C_14
REMARK    6  A    between atoms: C_14  and  S_15
REMARK    7  A    between atoms: S_15  and  C_16
REMARK    8  A    between atoms: N_30  and  C_31
REMARK                            x       y       z     vdW  Elec       q    Type
REMARK                         _______ _______ _______ _____ _____    ______ ____
ROOT
ATOM      1  C   UNL     1       2.945 -10.715   3.462  0.00  0.00    +0.259 C 
ATOM      2  N   UNL     1       1.642 -11.347   3.684  0.00  0.00    -0.248 NA
ATOM      3  C   UNL     1       1.067 -12.016   2.743  0.00  0.00    +0.101 C 
ATOM      4  C   UNL     1      -0.207 -12.763   2.620  0.00  0.00    +0.028 A 
ATOM      5  C   UNL     1      -1.261 -13.020   3.475  0.00  0.00    +0.012 A 
ATOM      6  C   UNL     1      -2.338 -13.777   3.035  0.00  0.00    +0.001 A 
ATOM      7  C   UNL     1      -2.358 -14.273   1.744  0.00  0.00    +0.002 A 
ATOM      8  C   UNL     1      -1.312 -14.025   0.877  0.00  0.00    +0.028 A 
ATOM      9  C   UNL     1      -0.216 -13.265   1.300  0.00  0.00    +0.074 A 
ATOM     10  N   UNL     1       0.918 -12.882   0.661  0.00  0.00    -0.240 NA
ATOM     11  C   UNL     1       1.710 -12.165   1.409  0.00  0.00    +0.152 C 
ATOM     12  C   UNL     1       3.024 -11.534   1.169  0.00  0.00    +0.274 C 
ATOM     13  O   UNL     1       3.568 -11.641   0.087  0.00  0.00    -0.268 OA
ATOM     14  N   UNL     1       3.611 -10.837   2.163  0.00  0.00    -0.232 N 
ENDROOT
BRANCH  14  15
ATOM     15  C   UNL     1       4.855 -10.232   1.953  0.00  0.00    +0.075 A 
ATOM     16  C   UNL     1       4.924  -8.922   1.498  0.00  0.00    +0.026 A 
ATOM     17  C   UNL     1       6.154  -8.328   1.292  0.00  0.00    +0.002 A 
ATOM     18  C   UNL     1       7.317  -9.035   1.538  0.00  0.00    +0.003 A 
ATOM     19  C   UNL     1       7.254 -10.339   1.991  0.00  0.00    +0.040 A 
ATOM     20  C   UNL     1       6.026 -10.939   2.206  0.00  0.00    +0.145 A 
ATOM     21  F   UNL     1       5.964 -12.212   2.655  0.00  0.00    -0.204 F 
ENDBRANCH  14  15
BRANCH   1  22
ATOM     22  S   UNL     1       2.750  -8.944   3.803  0.00  0.00    -0.106 S 
BRANCH  22  23
ATOM     23  C   UNL     1       1.584  -8.379   2.534  0.00  0.00    +0.168 C 
BRANCH  23  25
ATOM     24  N   UNL     1       0.595  -6.239   1.784  0.00  0.00    -0.285 N 
ATOM     25  C   UNL     1       1.419  -6.884   2.633  0.00  0.00    +0.227 C 
ATOM     26  O   UNL     1       2.029  -6.262   3.477  0.00  0.00    -0.275 OA
ATOM     27  H   UNL     1       0.052  -6.743   1.158  0.00  0.00    +0.155 HD
BRANCH  24  31
ATOM     28  C   UNL     1       0.378  -2.080   1.848  0.00  0.00    +0.059 A 
ATOM     29  C   UNL     1       1.589  -2.722   2.119  0.00  0.00    +0.017 A 
ATOM     30  C   UNL     1       1.657  -4.097   2.097  0.00  0.00    +0.024 A 
ATOM     31  C   UNL     1       0.522  -4.847   1.806  0.00  0.00    +0.033 A 
ATOM     32  C   UNL     1      -0.685  -4.211   1.535  0.00  0.00    +0.024 A 
ATOM     33  C   UNL     1      -0.762  -2.837   1.561  0.00  0.00    +0.017 A 
BRANCH  28  34
ATOM     34  C   UNL     1       0.301  -0.607   1.871  0.00  0.00    +0.339 C 
ATOM     35  O   UNL     1      -0.754  -0.051   1.641  0.00  0.00    -0.245 OA
BRANCH  34  37
ATOM     36  C   UNL     1       1.253   1.542   2.153  0.00  0.00    +0.280 C 
ATOM     37  O   UNL     1       1.400   0.120   2.148  0.00  0.00    -0.464 OA
ENDBRANCH  34  37
ENDBRANCH  28  34
ENDBRANCH  24  31
ENDBRANCH  23  25
ENDBRANCH  22  23
ENDBRANCH   1  22
TORSDOF 7
