REMARK  Name = ZINC15314300
REMARK  7 active torsions:
REMARK  status: ('A' for Active; 'I' for Inactive)
REMARK    1  A    between atoms: C_1  and  C_2
REMARK    2  A    between atoms: C_2  and  C_4
REMARK    3  A    between atoms: C_2  and  N_14
REMARK    4  A    between atoms: C_15  and  C_17
REMARK    5  A    between atoms: C_17  and  N_18
REMARK    6  A    between atoms: C_21  and  C_25
REMARK    7  A    between atoms: C_21  and  C_26
REMARK                            x       y       z     vdW  Elec       q    Type
REMARK                         _______ _______ _______ _____ _____    ______ ____
ROOT
ATOM      1  N   UNL     1      -0.721   1.571  -1.179  0.00  0.00    -0.215 N 
ATOM      2  C   UNL     1      -0.456   2.741  -1.793  0.00  0.00    +0.251 C 
ATOM      3  O   UNL     1       0.382   3.559  -1.480  0.00  0.00    -0.272 OA
ATOM      4  C   UNL     1      -1.423   2.820  -2.958  0.00  0.00    +0.135 C 
ATOM      5  N   UNL     1      -2.193   1.569  -2.855  0.00  0.00    -0.281 N 
ATOM      6  C   UNL     1      -1.708   0.905  -1.790  0.00  0.00    +0.310 C 
ATOM      7  O   UNL     1      -2.121  -0.177  -1.422  0.00  0.00    -0.252 OA
ATOM      8  C   UNL     1      -2.345   4.033  -2.811  0.00  0.00    +0.047 C 
ATOM      9  H   UNL     1      -2.908   1.278  -3.442  0.00  0.00    +0.152 HD
ENDROOT
BRANCH   4  10
ATOM     10  C   UNL     1      -0.675   2.881  -4.265  0.00  0.00    -0.015 A 
ATOM     11  C   UNL     1       0.587   3.470  -4.307  0.00  0.00    +0.007 A 
ATOM     12  C   UNL     1       1.289   3.540  -5.471  0.00  0.00    +0.009 A 
ATOM     13  C   UNL     1       0.736   3.012  -6.649  0.00  0.00    -0.018 A 
ATOM     14  C   UNL     1       1.431   3.065  -7.870  0.00  0.00    +0.008 A 
ATOM     15  C   UNL     1       0.865   2.542  -8.991  0.00  0.00    +0.001 A 
ATOM     16  C   UNL     1      -0.398   1.953  -8.949  0.00  0.00    +0.001 A 
ATOM     17  C   UNL     1      -1.100   1.883  -7.785  0.00  0.00    +0.008 A 
ATOM     18  C   UNL     1      -0.547   2.412  -6.607  0.00  0.00    -0.018 A 
ATOM     19  C   UNL     1      -1.240   2.353  -5.385  0.00  0.00    +0.014 A 
ENDBRANCH   4  10
BRANCH   1  20
ATOM     20  C   UNL     1      -0.013   1.086   0.008  0.00  0.00    +0.213 C 
BRANCH  20  22
ATOM     21  N   UNL     1      -0.242   1.246   2.466  0.00  0.00    -0.311 N 
ATOM     22  C   UNL     1      -0.718   1.572   1.248  0.00  0.00    +0.231 C 
ATOM     23  O   UNL     1      -1.714   2.256   1.150  0.00  0.00    -0.274 OA
ATOM     24  H   UNL     1       0.555   0.699   2.544  0.00  0.00    +0.149 HD
BRANCH  21  26
ATOM     25  C   UNL     1      -2.065   0.757   4.021  0.00  0.00    +0.028 C 
ATOM     26  C   UNL     1      -0.927   1.718   3.671  0.00  0.00    +0.076 C 
BRANCH  26  27
ATOM     27  C   UNL     1       0.066   1.777   4.833  0.00  0.00    -0.010 C 
ATOM     28  C   UNL     1       0.638   0.381   5.086  0.00  0.00    +0.012 C 
ATOM     29  C   UNL     1       1.632   0.439   6.248  0.00  0.00    -0.010 C 
ATOM     30  C   UNL     1       0.915   0.933   7.507  0.00  0.00    +0.007 C 
ATOM     31  C   UNL     1       0.344   2.329   7.254  0.00  0.00    -0.010 C 
ATOM     32  C   UNL     1      -0.650   2.270   6.092  0.00  0.00    +0.012 C 
ATOM     33  C   UNL     1       1.481   3.290   6.905  0.00  0.00    +0.007 C 
ATOM     34  C   UNL     1       2.197   2.797   5.646  0.00  0.00    -0.010 C 
ATOM     35  C   UNL     1       2.769   1.401   5.899  0.00  0.00    +0.007 C 
ATOM     36  C   UNL     1       1.204   2.739   4.484  0.00  0.00    +0.012 C 
ENDBRANCH  26  27
ENDBRANCH  21  26
ENDBRANCH  20  22
ENDBRANCH   1  20
TORSDOF 5
