REMARK  Name = ZINC39678323
REMARK  8 active torsions:
REMARK  status: ('A' for Active; 'I' for Inactive)
REMARK    1  A    between atoms: C_1  and  C_2
REMARK    2  A    between atoms: C_2  and  C_3
REMARK    3  A    between atoms: C_3  and  C_5
REMARK    4  A    between atoms: C_3  and  C_11
REMARK    5  A    between atoms: C_15  and  C_24
REMARK    6  A    between atoms: N_26  and  C_27
REMARK    7  A    between atoms: C_27  and  C_28
REMARK    8  A    between atoms: C_33  and  N_34
REMARK                            x       y       z     vdW  Elec       q    Type
REMARK                         _______ _______ _______ _____ _____    ______ ____
ROOT
ATOM      1  C   UNL     1       2.455   0.073  -1.355  0.00  0.00    +0.223 C 
ATOM      2  O   UNL     1       3.414  -0.667  -1.400  0.00  0.00    -0.275 OA
ATOM      3  N   UNL     1       2.626   1.383  -1.090  0.00  0.00    -0.300 N 
ATOM      4  C   UNL     1       1.598   2.451  -1.082  0.00  0.00    +0.121 C 
ATOM      5  C   UNL     1       1.972   3.344   0.121  0.00  0.00    +0.100 C 
ATOM      6  C   UNL     1       3.474   3.100   0.340  0.00  0.00    -0.004 C 
ATOM      7  C   UNL     1       3.884   2.082  -0.734  0.00  0.00    +0.115 C 
ATOM      8  C   UNL     1       3.718   2.519   1.730  0.00  0.00    -0.010 C 
ATOM      9  C   UNL     1       5.224   2.338   1.944  0.00  0.00    -0.082 C 
ATOM     10  N   UNL     1       5.899   3.635   1.808  0.00  0.00    +0.379 N 
ATOM     11  C   UNL     1       5.736   4.143   0.441  0.00  0.00    -0.082 C 
ATOM     12  C   UNL     1       4.253   4.399   0.162  0.00  0.00    -0.010 C 
ATOM     13  H   UNL     1       5.496   4.292   2.459  0.00  0.00    -0.086 HD
ATOM     14  H   UNL     1       6.881   3.524   2.010  0.00  0.00    -0.086 HD
ENDROOT
BRANCH   5  15
ATOM     15  C   UNL     1       1.715   4.794  -0.201  0.00  0.00    +0.218 C 
ATOM     16  O   UNL     1       2.035   5.240  -1.282  0.00  0.00    -0.275 OA
ATOM     17  N   UNL     1       1.129   5.594   0.712  0.00  0.00    -0.311 N 
ATOM     18  H   UNL     1       0.873   5.237   1.576  0.00  0.00    +0.149 HD
BRANCH  17  19
ATOM     19  C   UNL     1       0.880   7.003   0.398  0.00  0.00    +0.141 C 
BRANCH  19  20
ATOM     20  C   UNL     1       0.221   7.671   1.577  0.00  0.00    -0.009 A 
ATOM     21  C   UNL     1      -1.146   7.868   1.585  0.00  0.00    +0.007 A 
ATOM     22  C   UNL     1      -1.752   8.482   2.666  0.00  0.00    +0.000 A 
ATOM     23  C   UNL     1      -0.991   8.899   3.743  0.00  0.00    +0.002 A 
ATOM     24  C   UNL     1       0.376   8.705   3.742  0.00  0.00    +0.023 A 
ATOM     25  C   UNL     1       0.987   8.084   2.659  0.00  0.00    +0.034 A 
BRANCH  25  26
ATOM     26  N   UNL     1       2.368   7.881   2.657  0.00  0.00    -0.330 N 
ATOM     27  C   UNL     1       3.274   8.902   2.115  0.00  0.00    +0.105 C 
ATOM     28  C   UNL     1       4.328   9.240   3.174  0.00  0.00    +0.019 C 
ATOM     29  C   UNL     1       5.027   7.954   3.621  0.00  0.00    +0.003 C 
ATOM     30  C   UNL     1       4.001   7.004   4.245  0.00  0.00    +0.019 C 
ATOM     31  C   UNL     1       2.944   6.644   3.203  0.00  0.00    +0.105 C 
ENDBRANCH  25  26
ENDBRANCH  19  20
ENDBRANCH  17  19
ENDBRANCH   5  15
BRANCH   1  32
ATOM     32  C   UNL     1       1.071  -0.472  -1.597  0.00  0.00    +0.105 C 
BRANCH  32  33
ATOM     33  C   UNL     1       0.785  -0.480  -3.077  0.00  0.00    -0.036 A 
ATOM     34  C   UNL     1       1.584  -1.218  -3.931  0.00  0.00    +0.004 A 
ATOM     35  C   UNL     1       1.322  -1.226  -5.288  0.00  0.00    +0.000 A 
ATOM     36  C   UNL     1       0.262  -0.496  -5.792  0.00  0.00    +0.000 A 
ATOM     37  C   UNL     1      -0.537   0.242  -4.938  0.00  0.00    +0.000 A 
ATOM     38  C   UNL     1      -0.278   0.246  -3.580  0.00  0.00    +0.004 A 
ENDBRANCH  32  33
BRANCH  32  40
ATOM     39  C   UNL     1       1.151  -1.877   0.468  0.00  0.00    +0.005 C 
ATOM     40  C   UNL     1       0.983  -1.899  -1.053  0.00  0.00    +0.014 C 
ENDBRANCH  32  40
ENDBRANCH   1  32
TORSDOF 7
