REMARK  Name = ZINC32752964
REMARK  10 active torsions:
REMARK  status: ('A' for Active; 'I' for Inactive)
REMARK    1  A    between atoms: C_1  and  C_2
REMARK    2  A    between atoms: C_3  and  C_25
REMARK    3  A    between atoms: C_4  and  S_11
REMARK    4  A    between atoms: C_6  and  C_8
REMARK    5  A    between atoms: S_11  and  C_12
REMARK    6  A    between atoms: C_12  and  C_13
REMARK    7  A    between atoms: N_15  and  C_16
REMARK    8  A    between atoms: C_22  and  C_24
REMARK    9  A    between atoms: C_25  and  O_27
REMARK   10  A    between atoms: O_27  and  C_28
REMARK                            x       y       z     vdW  Elec       q    Type
REMARK                         _______ _______ _______ _____ _____    ______ ____
ROOT
ATOM      1  C   UNL     1       0.505   0.739   6.517  0.00  0.00    +0.066 C 
ATOM      2  C   UNL     1       0.751   0.568   5.040  0.00  0.00    +0.057 A 
ATOM      3  C   UNL     1      -0.103   1.160   4.105  0.00  0.00    +0.112 A 
ATOM      4  C   UNL     1       0.174   0.961   2.735  0.00  0.00    +0.115 A 
ATOM      5  N   UNL     1       1.235   0.232   2.397  0.00  0.00    -0.225 NA
ATOM      6  C   UNL     1       2.010  -0.299   3.319  0.00  0.00    +0.134 A 
ATOM      7  N   UNL     1       1.781  -0.140   4.609  0.00  0.00    -0.236 NA
ENDROOT
BRANCH   6   8
ATOM      8  C   UNL     1       3.200  -1.117   2.887  0.00  0.00    +0.057 C 
ATOM      9  C   UNL     1       3.554  -1.116   1.398  0.00  0.00    +0.012 C 
ATOM     10  C   UNL     1       2.931  -2.360   2.036  0.00  0.00    +0.012 C 
ENDBRANCH   6   8
BRANCH   3  11
ATOM     11  C   UNL     1      -1.260   1.962   4.536  0.00  0.00    +0.343 C 
ATOM     12  O   UNL     1      -2.336   1.428   4.719  0.00  0.00    -0.245 OA
BRANCH  11  13
ATOM     13  O   UNL     1      -1.126   3.289   4.728  0.00  0.00    -0.464 OA
ATOM     14  C   UNL     1      -2.308   4.017   5.153  0.00  0.00    +0.280 C 
ENDBRANCH  11  13
ENDBRANCH   3  11
BRANCH   4  15
ATOM     15  S   UNL     1      -0.860   1.669   1.497  0.00  0.00    -0.096 S 
BRANCH  15  16
ATOM     16  C   UNL     1      -0.013   1.086   0.008  0.00  0.00    +0.171 C 
BRANCH  16  17
ATOM     17  C   UNL     1      -0.742   1.585  -1.213  0.00  0.00    +0.223 C 
ATOM     18  O   UNL     1      -1.736   2.268  -1.088  0.00  0.00    -0.275 OA
ATOM     19  N   UNL     1      -0.288   1.272  -2.443  0.00  0.00    -0.312 N 
ATOM     20  H   UNL     1       0.614   0.653  -2.556  0.00  0.00    +0.149 HD
BRANCH  19  21
ATOM     21  C   UNL     1      -0.997   1.758  -3.630  0.00  0.00    +0.076 C 
ATOM     22  C   UNL     1      -0.514   3.169  -3.971  0.00  0.00    +0.022 C 
ATOM     23  C   UNL     1      -1.254   3.676  -5.210  0.00  0.00    +0.002 C 
ATOM     24  C   UNL     1      -0.973   2.742  -6.389  0.00  0.00    +0.000 C 
ATOM     25  C   UNL     1      -1.456   1.331  -6.048  0.00  0.00    +0.005 C 
ATOM     26  C   UNL     1      -0.716   0.824  -4.809  0.00  0.00    +0.006 C 
ATOM     27  C   UNL     1      -1.199  -0.587  -4.468  0.00  0.00    +0.009 C 
ENDBRANCH  19  21
ENDBRANCH  16  17
ENDBRANCH  15  16
ENDBRANCH   4  15
TORSDOF 7
