REMARK  Name = ZINC35025744
REMARK  7 active torsions:
REMARK  status: ('A' for Active; 'I' for Inactive)
REMARK    1  A    between atoms: C_1  and  C_2
REMARK    2  A    between atoms: C_2  and  C_3
REMARK    3  A    between atoms: C_2  and  C_4
REMARK    4  A    between atoms: C_4  and  C_6
REMARK    5  A    between atoms: C_4  and  C_15
REMARK    6  A    between atoms: C_9  and  N_12
REMARK    7  A    between atoms: N_17  and  C_18
REMARK                            x       y       z     vdW  Elec       q    Type
REMARK                         _______ _______ _______ _____ _____    ______ ____
ROOT
ATOM      1  C   UNL     1      -1.644  -0.341   0.730  0.00  0.00    +0.108 C 
ENDROOT
BRANCH   1   2
ATOM      2  C   UNL     1      -3.008   0.247   0.985  0.00  0.00    -0.035 A 
ATOM      3  C   UNL     1      -4.074  -0.103   0.177  0.00  0.00    +0.006 A 
ATOM      4  C   UNL     1      -5.325   0.436   0.411  0.00  0.00    +0.033 A 
ATOM      5  C   UNL     1      -5.511   1.324   1.454  0.00  0.00    +0.126 A 
ATOM      6  C   UNL     1      -4.446   1.672   2.264  0.00  0.00    +0.033 A 
ATOM      7  C   UNL     1      -3.195   1.130   2.032  0.00  0.00    +0.006 A 
BRANCH   5   8
ATOM      8  N   UNL     1      -6.850   1.901   1.705  0.00  0.00    +0.056 N 
ATOM      9  O   UNL     1      -7.782   1.597   0.997  0.00  0.00    -0.126 OA
ATOM     10  O   UNL     1      -7.013   2.678   2.617  0.00  0.00    -0.126 OA
ENDBRANCH   5   8
ENDBRANCH   1   2
BRANCH   1  11
ATOM     11  C   UNL     1      -1.715  -1.842   0.840  0.00  0.00    +0.225 C 
ATOM     12  O   UNL     1      -2.716  -2.429   0.490  0.00  0.00    -0.275 OA
ATOM     13  N   UNL     1      -0.665  -2.532   1.329  0.00  0.00    -0.285 N 
ATOM     14  H   UNL     1       0.161  -2.071   1.544  0.00  0.00    +0.155 HD
BRANCH  13  15
ATOM     15  C   UNL     1      -0.766  -3.914   1.525  0.00  0.00    +0.033 A 
ATOM     16  C   UNL     1      -1.496  -4.691   0.635  0.00  0.00    +0.024 A 
ATOM     17  C   UNL     1      -1.594  -6.055   0.831  0.00  0.00    +0.016 A 
ATOM     18  C   UNL     1      -0.966  -6.646   1.913  0.00  0.00    +0.013 A 
ATOM     19  C   UNL     1      -0.239  -5.875   2.801  0.00  0.00    +0.016 A 
ATOM     20  C   UNL     1      -0.133  -4.511   2.607  0.00  0.00    +0.024 A 
ATOM     21  I   UNL     1      -1.119  -8.715   2.207  0.00  0.00    -0.044 I 
ENDBRANCH  13  15
ENDBRANCH   1  11
BRANCH   1  23
ATOM     22  C   UNL     1      -1.184   1.570  -0.813  0.00  0.00    +0.008 C 
ATOM     23  C   UNL     1      -1.177   0.046  -0.675  0.00  0.00    -0.001 C 
ATOM     24  C   UNL     1       0.241  -0.481  -0.904  0.00  0.00    +0.008 C 
ENDBRANCH   1  23
TORSDOF 5
