REMARK  Name = ZINC13235462
REMARK  9 active torsions:
REMARK  status: ('A' for Active; 'I' for Inactive)
REMARK    1  A    between atoms: C_1  and  C_2
REMARK    2  A    between atoms: C_2  and  C_4
REMARK    3  A    between atoms: C_2  and  N_11
REMARK    4  A    between atoms: C_12  and  C_14
REMARK    5  A    between atoms: C_14  and  N_15
REMARK    6  A    between atoms: N_18  and  CA_19
REMARK    7  A    between atoms: CA_19  and  CB_21
REMARK    8  A    between atoms: CA_19  and  C_32
REMARK    9  A    between atoms: CB_21  and  CG_22
REMARK                            x       y       z     vdW  Elec       q    Type
REMARK                         _______ _______ _______ _____ _____    ______ ____
ROOT
ATOM      1  N   UNK A   0       4.574   0.566  -1.500  0.00  0.00    -0.291 N 
ATOM      2  C   UNK A   0       5.886   0.836  -1.653  0.00  0.00    +0.301 C 
ATOM      3  O   UNK A   0       6.370   1.817  -1.122  0.00  0.00    -0.253 OA
ATOM      4  N   TRP A   1       6.661   0.019  -2.393  0.00  0.00    -0.286 N 
ATOM      5  H   UNK A   0       4.188  -0.216  -1.924  0.00  0.00    +0.151 HD
ATOM      6  H   TRP A   1       6.274  -0.763  -2.817  0.00  0.00    +0.151 HD
ENDROOT
BRANCH   1   7
ATOM      7  C   UNK A   0       3.732   1.454  -0.695  0.00  0.00    +0.201 C 
BRANCH   7   9
ATOM      8  N   UNK A   0       1.362   1.593  -0.002  0.00  0.00    -0.307 N 
ATOM      9  C   UNK A   0       2.318   0.933  -0.685  0.00  0.00    +0.231 C 
ATOM     10  O   UNK A   0       2.042  -0.081  -1.290  0.00  0.00    -0.274 OA
ATOM     11  H   UNK A   0       1.583   2.404   0.482  0.00  0.00    +0.149 HD
BRANCH   8  13
ATOM     12  C   UNK A   0      -0.753   1.593  -1.232  0.00  0.00    +0.033 C 
ATOM     13  C   UNK A   0      -0.013   1.086   0.008  0.00  0.00    +0.102 C 
BRANCH  13  14
ATOM     14  C   UNK A   0      -0.718   1.572   1.248  0.00  0.00    -0.009 A 
ATOM     15  C   UNK A   0      -0.292   2.726   1.878  0.00  0.00    +0.007 A 
ATOM     16  C   UNK A   0      -0.942   3.174   3.013  0.00  0.00    +0.000 A 
ATOM     17  C   UNK A   0      -2.012   2.463   3.524  0.00  0.00    +0.001 A 
ATOM     18  C   UNK A   0      -2.435   1.306   2.898  0.00  0.00    +0.020 A 
ATOM     19  C   UNK A   0      -1.788   0.860   1.759  0.00  0.00    +0.046 A 
ATOM     20 CL   UNK A   0      -2.320  -0.594   0.972  0.00  0.00    -0.083 Cl
ENDBRANCH  13  14
ENDBRANCH   8  13
ENDBRANCH   7   9
ENDBRANCH   1   7
BRANCH   4  21
ATOM     21  CA  TRP A   1       8.086   0.313  -2.559  0.00  0.00    +0.192 C 
BRANCH  21  22
ATOM     22  C   TRP A   1       8.855  -0.253  -1.393  0.00  0.00    +0.376 C 
ATOM     23  O   TRP A   1       8.271  -0.842  -0.513  0.00  0.00    -0.244 OA
ATOM     24  OXT TRP A   1      10.187  -0.104  -1.331  0.00  0.00    -0.244 OA
ENDBRANCH  21  22
BRANCH  21  25
ATOM     25  CB  TRP A   1       8.590  -0.321  -3.857  0.00  0.00    +0.071 C 
BRANCH  25  26
ATOM     26  CG  TRP A   1       7.909   0.333  -5.032  0.00  0.00    -0.020 A 
ATOM     27  CD1 TRP A   1       6.812  -0.110  -5.667  0.00  0.00    +0.087 A 
ATOM     28  NE1 TRP A   1       6.485   0.746  -6.684  0.00  0.00    -0.360 N 
ATOM     29  HE1 TRP A   1       5.729   0.636  -7.282  0.00  0.00    +0.165 HD
ATOM     30  CE2 TRP A   1       7.391   1.781  -6.735  0.00  0.00    +0.047 A 
ATOM     31  CD2 TRP A   1       8.323   1.568  -5.703  0.00  0.00    +0.003 A 
ATOM     32  CE3 TRP A   1       9.370   2.471  -5.512  0.00  0.00    +0.010 A 
ATOM     33  CZ3 TRP A   1       9.484   3.560  -6.331  0.00  0.00    +0.001 A 
ATOM     34  CH2 TRP A   1       8.568   3.774  -7.351  0.00  0.00    +0.002 A 
ATOM     35  CZ2 TRP A   1       7.527   2.895  -7.556  0.00  0.00    +0.026 A 
ENDBRANCH  25  26
ENDBRANCH  21  25
ENDBRANCH   4  21
TORSDOF 8
