REMARK  Name = ZINC09970852
REMARK  6 active torsions:
REMARK  status: ('A' for Active; 'I' for Inactive)
REMARK    1  A    between atoms: C_3  and  N_30
REMARK    2  A    between atoms: C_6  and  C_7
REMARK    3  A    between atoms: C_10  and  C_23
REMARK    4  A    between atoms: N_12  and  C_13
REMARK    5  A    between atoms: C_16  and  S_19
REMARK    6  A    between atoms: S_19  and  N_22
REMARK                            x       y       z     vdW  Elec       q    Type
REMARK                         _______ _______ _______ _____ _____    ______ ____
ROOT
ATOM      1  C   UNL     1       3.672   2.182  -0.024  0.00  0.00    +0.134 C 
ATOM      2  C   UNL     1       3.996   2.714   1.386  0.00  0.00    +0.087 C 
ATOM      3  C   UNL     1       4.013   4.216   1.214  0.00  0.00    +0.069 C 
ATOM      4  N   UNL     1       3.758   4.511  -0.014  0.00  0.00    -0.183 NA
ATOM      5  N   UNL     1       3.542   3.402  -0.836  0.00  0.00    -0.216 N 
ENDROOT
BRANCH   3   6
ATOM      6  C   UNL     1       4.280   5.193   2.286  0.00  0.00    -0.002 A 
ATOM      7  C   UNL     1       4.540   4.753   3.586  0.00  0.00    +0.012 A 
ATOM      8  C   UNL     1       4.794   5.671   4.583  0.00  0.00    +0.039 A 
ATOM      9  C   UNL     1       4.782   7.027   4.300  0.00  0.00    +0.123 A 
ATOM     10  C   UNL     1       4.519   7.470   3.013  0.00  0.00    +0.039 A 
ATOM     11  C   UNL     1       4.269   6.561   2.006  0.00  0.00    +0.012 A 
ATOM     12  F   UNL     1       5.026   7.922   5.282  0.00  0.00    -0.205 F 
ENDBRANCH   3   6
BRANCH   1  18
ATOM     13  C   UNL     1       1.171   2.086   0.002  0.00  0.00    +0.008 A 
ATOM     14  C   UNL     1      -0.017   1.378   0.010  0.00  0.00    +0.033 A 
ATOM     15  C   UNL     1       0.002  -0.004   0.002  0.00  0.00    +0.126 A 
ATOM     16  C   UNL     1       1.208  -0.679  -0.013  0.00  0.00    +0.033 A 
ATOM     17  C   UNL     1       2.396   0.029  -0.021  0.00  0.00    +0.008 A 
ATOM     18  C   UNL     1       2.377   1.411  -0.015  0.00  0.00    -0.025 A 
BRANCH  15  19
ATOM     19  N   UNL     1      -1.270  -0.761   0.011  0.00  0.00    +0.056 N 
ATOM     20  O   UNL     1      -2.333  -0.167   0.024  0.00  0.00    -0.126 OA
ATOM     21  O   UNL     1      -1.253  -1.979   0.004  0.00  0.00    -0.126 OA
ENDBRANCH  15  19
ENDBRANCH   1  18
BRANCH   5  22
ATOM     22  C   UNL     1       3.252   3.442  -2.200  0.00  0.00    +0.052 A 
ATOM     23  C   UNL     1       3.063   2.261  -2.907  0.00  0.00    +0.027 A 
ATOM     24  C   UNL     1       2.771   2.304  -4.256  0.00  0.00    +0.030 A 
ATOM     25  C   UNL     1       2.676   3.522  -4.905  0.00  0.00    +0.105 A 
ATOM     26  C   UNL     1       2.868   4.699  -4.206  0.00  0.00    +0.030 A 
ATOM     27  C   UNL     1       3.155   4.664  -2.856  0.00  0.00    +0.027 A 
BRANCH  25  28
ATOM     28  S   UNL     1       2.308   3.572  -6.628  0.00  0.00    +0.056 S 
ATOM     29  O   UNL     1       1.635   2.359  -6.935  0.00  0.00    -0.153 OA
ATOM     30  O   UNL     1       1.736   4.847  -6.884  0.00  0.00    -0.153 OA
BRANCH  28  31
ATOM     31  N   UNL     1       3.752   3.531  -7.438  0.00  0.00    -0.204 NA
ATOM     32  H   UNL     1       4.585   3.487  -6.943  0.00  0.00    +0.144 HD
ATOM     33  H   UNL     1       3.765   3.550  -8.408  0.00  0.00    +0.144 HD
ENDBRANCH  28  31
ENDBRANCH  25  28
ENDBRANCH   5  22
TORSDOF 6
