REMARK  Name = ZINC56945508
REMARK  8 active torsions:
REMARK  status: ('A' for Active; 'I' for Inactive)
REMARK    1  A    between atoms: C_1  and  C_2
REMARK    2  A    between atoms: C_5  and  C_30
REMARK    3  A    between atoms: N_8  and  C_10
REMARK    4  A    between atoms: C_10  and  C_11
REMARK    5  A    between atoms: C_11  and  C_13
REMARK    6  A    between atoms: C_11  and  N_14
REMARK    7  A    between atoms: N_20  and  C_23
REMARK    8  A    between atoms: C_28  and  O_29
REMARK                            x       y       z     vdW  Elec       q    Type
REMARK                         _______ _______ _______ _____ _____    ______ ____
ROOT
ATOM      1  N   UNL     1       3.511  -2.495   0.951  0.00  0.00    -0.298 N 
ATOM      2  C   UNL     1       4.540  -1.852   0.365  0.00  0.00    +0.302 C 
ATOM      3  O   UNL     1       4.979  -0.831   0.859  0.00  0.00    -0.253 OA
ATOM      4  N   UNL     1       5.082  -2.339  -0.769  0.00  0.00    -0.283 N 
ATOM      5  C   UNL     1       6.276  -1.716  -1.356  0.00  0.00    +0.128 C 
ATOM      6  C   UNL     1       7.358  -2.789  -1.521  0.00  0.00    +0.124 C 
ATOM      7  N   UNL     1       6.765  -3.954  -2.193  0.00  0.00    -0.324 N 
ATOM      8  C   UNL     1       5.571  -4.578  -1.606  0.00  0.00    +0.124 C 
ATOM      9  C   UNL     1       4.492  -3.507  -1.438  0.00  0.00    +0.128 C 
ATOM     10  H   UNL     1       3.113  -3.267   0.519  0.00  0.00    +0.150 HD
ENDROOT
BRANCH   7  11
ATOM     11  C   UNL     1       7.328  -4.461  -3.370  0.00  0.00    +0.072 A 
ATOM     12  C   UNL     1       8.302  -5.446  -3.308  0.00  0.00    +0.027 A 
ATOM     13  C   UNL     1       8.856  -5.944  -4.472  0.00  0.00    +0.002 A 
ATOM     14  C   UNL     1       8.441  -5.464  -5.700  0.00  0.00    +0.004 A 
ATOM     15  C   UNL     1       7.469  -4.482  -5.770  0.00  0.00    +0.047 A 
ATOM     16  C   UNL     1       6.906  -3.981  -4.608  0.00  0.00    +0.138 A 
BRANCH  16  17
ATOM     17  O   UNL     1       5.947  -3.018  -4.676  0.00  0.00    -0.505 OA
ATOM     18  H   UNL     1       6.294  -2.116  -4.666  0.00  0.00    +0.292 HD
ENDBRANCH  16  17
ENDBRANCH   7  11
BRANCH   1  19
ATOM     19  C   UNL     1       2.995  -2.030   2.241  0.00  0.00    +0.055 C 
ATOM     20  C   UNL     1       3.828  -2.635   3.372  0.00  0.00    +0.026 C 
BRANCH  19  21
ATOM     21  C   UNL     1       1.536  -2.463   2.393  0.00  0.00    -0.057 C 
BRANCH  21  27
ATOM     22  C   UNL     1      -0.021   1.524   0.017  0.00  0.00    +0.005 C 
ATOM     23  C   UNL     1       0.001  -0.006   0.007  0.00  0.00    -0.031 C 
ATOM     24  C   UNL     1      -1.435  -0.537   0.022  0.00  0.00    +0.003 C 
ATOM     25  C   UNL     1      -1.402  -2.067   0.091  0.00  0.00    -0.031 C 
ATOM     26  C   UNL     1      -0.612  -2.499   1.329  0.00  0.00    -0.076 C 
ATOM     27  N   UNL     1       0.759  -1.982   1.242  0.00  0.00    +0.381 N 
ATOM     28  C   UNL     1       0.740  -0.514   1.247  0.00  0.00    -0.076 C 
ATOM     29  C   UNL     1      -0.729  -2.621  -1.165  0.00  0.00    +0.005 C 
ATOM     30  H   UNL     1       1.188  -2.308   0.390  0.00  0.00    -0.082 HD
ENDBRANCH  21  27
ENDBRANCH  19  21
ENDBRANCH   1  19
TORSDOF 5
