REMARK  Name = ZINC13803137
REMARK  9 active torsions:
REMARK  status: ('A' for Active; 'I' for Inactive)
REMARK    1  A    between atoms: C_5  and  C_6
REMARK    2  A    between atoms: C_8  and  C_12
REMARK    3  A    between atoms: C_12  and  C_14
REMARK    4  A    between atoms: C_12  and  N_17
REMARK    5  A    between atoms: C_14  and  C_15
REMARK    6  A    between atoms: C_18  and  C_20
REMARK    7  A    between atoms: C_27  and  C_29
REMARK    8  A    between atoms: C_29  and  C_30
REMARK    9  A    between atoms: C_30  and  C_31
REMARK                            x       y       z     vdW  Elec       q    Type
REMARK                         _______ _______ _______ _____ _____    ______ ____
ROOT
ATOM      1  N   UNL     1      -0.856  -0.846 -10.516  0.00  0.00    -0.308 N 
ATOM      2  C   UNL     1      -0.149  -0.171  -9.588  0.00  0.00    +0.218 C 
ATOM      3  O   UNL     1       1.018   0.093  -9.789  0.00  0.00    -0.275 OA
ATOM      4  H   UNL     1      -1.767  -1.121 -10.326  0.00  0.00    +0.149 HD
ENDROOT
BRANCH   2   5
ATOM      5  C   UNL     1      -0.808   0.256  -8.302  0.00  0.00    +0.092 C 
ATOM      6  C   UNL     1      -1.986   1.181  -8.615  0.00  0.00    +0.016 C 
ATOM      7  C   UNL     1      -2.677   1.589  -7.311  0.00  0.00    +0.020 C 
ATOM      8  C   UNL     1      -1.683   2.352  -6.429  0.00  0.00    +0.108 C 
ATOM      9  N   UNL     1      -0.483   1.525  -6.243  0.00  0.00    -0.301 N 
ATOM     10  C   UNL     1       0.209   1.009  -7.431  0.00  0.00    +0.120 C 
ATOM     11  C   UNL     1      -0.024   1.250  -5.006  0.00  0.00    +0.216 C 
ATOM     12  O   UNL     1       0.968   0.565  -4.866  0.00  0.00    -0.276 OA
BRANCH  11  13
ATOM     13  C   UNL     1      -0.742   1.792  -3.798  0.00  0.00    +0.096 C 
BRANCH  13  14
ATOM     14  C   UNL     1      -0.021   1.335  -2.528  0.00  0.00    +0.012 C 
BRANCH  14  15
ATOM     15  C   UNL     1      -0.750   1.886  -1.301  0.00  0.00    -0.014 C 
ATOM     16  C   UNL     1      -0.104   1.329  -0.029  0.00  0.00    -0.016 C 
ATOM     17  C   UNL     1      -0.797   1.930   1.195  0.00  0.00    -0.082 C 
ATOM     18  C   UNL     1      -1.327   3.955  -0.028  0.00  0.00    -0.082 C 
ATOM     19  C   UNL     1      -0.649   3.414  -1.288  0.00  0.00    -0.016 C 
ATOM     20  N   UNL     1      -0.667   3.400   1.170  0.00  0.00    +0.379 N 
ATOM     21  H   UNL     1       0.329   3.651   1.154  0.00  0.00    -0.086 HD
ATOM     22  H   UNL     1      -1.106   3.793   2.010  0.00  0.00    -0.086 HD
ENDBRANCH  14  15
ENDBRANCH  13  14
ENDBRANCH  11  13
ENDBRANCH   2   5
BRANCH   1  23
ATOM     23  C   UNL     1      -0.249  -1.165 -11.810  0.00  0.00    +0.115 C 
BRANCH  23  26
ATOM     24  C   UNL     1       2.419  -3.815 -12.202  0.00  0.00    +0.001 A 
ATOM     25  C   UNL     1       1.741  -2.600 -12.336  0.00  0.00    +0.017 A 
ATOM     26  C   UNL     1       0.520  -2.457 -11.700  0.00  0.00    -0.008 A 
ATOM     27  C   UNL     1       0.011  -3.513 -10.967  0.00  0.00    +0.116 A 
ATOM     28  N   UNL     1       0.672  -4.649 -10.863  0.00  0.00    -0.262 NA
ATOM     29  C   UNL     1       1.839  -4.831 -11.446  0.00  0.00    +0.119 A 
BRANCH  24  34
ATOM     30  C   UNL     1       4.410  -5.230 -12.734  0.00  0.00    +0.016 A 
ATOM     31  C   UNL     1       5.606  -5.380 -13.348  0.00  0.00    +0.046 A 
ATOM     32  S   UNL     1       5.826  -3.796 -14.139  0.00  0.00    -0.104 S 
ATOM     33  C   UNL     1       4.304  -3.029 -13.607  0.00  0.00    +0.053 A 
ATOM     34  C   UNL     1       3.733  -4.021 -12.860  0.00  0.00    -0.009 A 
ENDBRANCH  24  34
ENDBRANCH  23  26
BRANCH  23  35
ATOM     35  C   UNL     1      -1.347  -1.314 -12.866  0.00  0.00    +0.152 C 
BRANCH  35  36
ATOM     36  C   UNL     1      -2.025   0.015 -13.075  0.00  0.00    +0.358 C 
ATOM     37  O   UNL     1      -1.722   0.963 -12.390  0.00  0.00    -0.246 OA
ATOM     38  O   UNL     1      -2.966   0.147 -14.024  0.00  0.00    -0.246 OA
ENDBRANCH  35  36
ENDBRANCH  23  35
ENDBRANCH   1  23
TORSDOF 9
