REMARK  Name = ZINC20733052
REMARK  5 active torsions:
REMARK  status: ('A' for Active; 'I' for Inactive)
REMARK    1  A    between atoms: C_1  and  O_2
REMARK    2  A    between atoms: O_2  and  C_3
REMARK    3  A    between atoms: C_3  and  C_5
REMARK    4  A    between atoms: C_8  and  N_11
REMARK    5  A    between atoms: C_23  and  C_25
REMARK                            x       y       z     vdW  Elec       q    Type
REMARK                         _______ _______ _______ _____ _____    ______ ____
ROOT
ATOM      1  N   UNL     1       0.582  -7.189  -0.676  0.00  0.00    -0.269 N 
ATOM      2  C   UNL     1       1.087  -7.379  -1.911  0.00  0.00    +0.307 C 
ATOM      3  O   UNL     1       1.330  -6.422  -2.621  0.00  0.00    -0.252 OA
ATOM      4  N   UNL     1       1.323  -8.628  -2.358  0.00  0.00    -0.272 N 
ATOM      5  C   UNL     1       0.961  -9.799  -1.547  0.00  0.00    +0.116 C 
ATOM      6  C   UNL     1       2.237 -10.557  -1.161  0.00  0.00    +0.074 C 
ATOM      7  C   UNL     1       3.117 -10.677  -2.377  0.00  0.00    +0.040 A 
ATOM      8  C   UNL     1       3.000  -9.924  -3.492  0.00  0.00    +0.062 A 
ATOM      9  N   UNL     1       3.947 -10.305  -4.352  0.00  0.00    -0.348 N 
ATOM     10  C   UNL     1       4.648 -11.271  -3.817  0.00  0.00    +0.171 A 
ATOM     11  N   UNL     1       4.158 -11.532  -2.583  0.00  0.00    -0.349 N 
ATOM     12  H   UNL     1       4.486 -12.201  -1.962  0.00  0.00    +0.166 HD
ATOM     13  C   UNL     1       1.946  -8.853  -3.675  0.00  0.00    +0.159 C 
ATOM     14  H   UNL     1       0.404  -7.952  -0.103  0.00  0.00    +0.156 HD
ATOM     15  H   UNL     1       4.091  -9.926  -5.233  0.00  0.00    +0.167 HD
ENDROOT
BRANCH  13  16
ATOM     16  C   UNL     1       0.905  -9.315  -4.662  0.00  0.00    +0.014 A 
ATOM     17  C   UNL     1       0.643 -10.665  -4.809  0.00  0.00    +0.010 A 
ATOM     18  C   UNL     1      -0.311 -11.090  -5.713  0.00  0.00    +0.016 A 
ATOM     19  C   UNL     1      -1.005 -10.166  -6.473  0.00  0.00    +0.021 A 
ATOM     20  C   UNL     1      -0.744  -8.816  -6.329  0.00  0.00    +0.054 A 
ATOM     21  C   UNL     1       0.207  -8.389  -5.418  0.00  0.00    +0.130 A 
ATOM     22  F   UNL     1       0.460  -7.070  -5.272  0.00  0.00    -0.205 F 
ATOM     23 BR   UNL     1      -2.311 -10.749  -7.711  0.00  0.00    -0.050 Br
ENDBRANCH  13  16
BRANCH   1  27
ATOM     24  C   UNL     1      -0.216  -3.333   0.680  0.00  0.00    +0.059 A 
ATOM     25  C   UNL     1      -1.012  -4.402   1.101  0.00  0.00    +0.017 A 
ATOM     26  C   UNL     1      -0.746  -5.675   0.651  0.00  0.00    +0.024 A 
ATOM     27  C   UNL     1       0.315  -5.899  -0.222  0.00  0.00    +0.035 A 
ATOM     28  C   UNL     1       1.109  -4.837  -0.643  0.00  0.00    +0.024 A 
ATOM     29  C   UNL     1       0.845  -3.560  -0.201  0.00  0.00    +0.017 A 
BRANCH  24  30
ATOM     30  C   UNL     1      -0.499  -1.967   1.160  0.00  0.00    +0.339 C 
ATOM     31  O   UNL     1       0.191  -1.038   0.789  0.00  0.00    -0.245 OA
BRANCH  30  33
ATOM     32  C   UNL     1      -1.739  -0.403   2.433  0.00  0.00    +0.280 C 
ATOM     33  O   UNL     1      -1.522  -1.750   2.009  0.00  0.00    -0.464 OA
ENDBRANCH  30  33
ENDBRANCH  24  30
ENDBRANCH   1  27
TORSDOF 4
