REMARK  Name = ZINC48656894
REMARK  5 active torsions:
REMARK  status: ('A' for Active; 'I' for Inactive)
REMARK    1  A    between atoms: C_1  and  C_2
REMARK    2  A    between atoms: C_2  and  C_7
REMARK    3  A    between atoms: N_9  and  C_10
REMARK    4  A    between atoms: C_10  and  C_11
REMARK    5  A    between atoms: C_14  and  N_17
REMARK                            x       y       z     vdW  Elec       q    Type
REMARK                         _______ _______ _______ _____ _____    ______ ____
ROOT
ATOM      1  C   UNL     1      -1.220  -0.667  -0.579  0.00  0.00    +0.222 C 
ATOM      2  O   UNL     1      -1.615  -1.719  -0.121  0.00  0.00    -0.275 OA
ATOM      3  N   UNL     1      -1.874  -0.093  -1.607  0.00  0.00    -0.311 N 
ATOM      4  H   UNL     1      -1.558   0.748  -1.974  0.00  0.00    +0.149 HD
ENDROOT
BRANCH   1   6
ATOM      5  C   UNL     1      -0.019   1.526   0.010  0.00  0.00    +0.024 C 
ATOM      6  C   UNL     1       0.002  -0.004   0.002  0.00  0.00    +0.079 C 
ATOM      7  C   UNL     1       1.351  -0.691  -0.218  0.00  0.00    +0.058 C 
ATOM      8  C   UNL     1       0.701  -0.708   1.167  0.00  0.00    +0.133 C 
ATOM      9 CL   UNL     1       1.438   0.330   2.445  0.00  0.00    -0.100 Cl
ATOM     10 CL   UNL     1       0.001  -2.267   1.739  0.00  0.00    -0.100 Cl
ENDBRANCH   1   6
BRANCH   3  11
ATOM     11  C   UNL     1      -3.062  -0.738  -2.172  0.00  0.00    +0.139 C 
BRANCH  11  12
ATOM     12  C   UNL     1      -3.601   0.102  -3.302  0.00  0.00    -0.030 A 
ATOM     13  C   UNL     1      -4.535   1.088  -3.045  0.00  0.00    +0.007 A 
ATOM     14  C   UNL     1      -5.029   1.859  -4.082  0.00  0.00    +0.033 A 
ATOM     15  C   UNL     1      -4.588   1.643  -5.374  0.00  0.00    +0.126 A 
ATOM     16  C   UNL     1      -3.653   0.658  -5.630  0.00  0.00    +0.033 A 
ATOM     17  C   UNL     1      -3.156  -0.109  -4.593  0.00  0.00    +0.007 A 
BRANCH  15  18
ATOM     18  N   UNL     1      -5.118   2.468  -6.483  0.00  0.00    +0.056 N 
ATOM     19  O   UNL     1      -5.936   3.329  -6.259  0.00  0.00    -0.126 OA
ATOM     20  O   UNL     1      -4.732   2.279  -7.614  0.00  0.00    -0.126 OA
ENDBRANCH  15  18
ENDBRANCH  11  12
ENDBRANCH   3  11
TORSDOF 4
