REMARK  Name = ZINC20181077
REMARK  8 active torsions:
REMARK  status: ('A' for Active; 'I' for Inactive)
REMARK    1  A    between atoms: C_1  and  C_2
REMARK    2  A    between atoms: N_8  and  C_9
REMARK    3  A    between atoms: C_9  and  C_10
REMARK    4  A    between atoms: C_10  and  C_11
REMARK    5  A    between atoms: C_11  and  N_12
REMARK    6  A    between atoms: C_13  and  C_15
REMARK    7  A    between atoms: C_15  and  N_16
REMARK    8  A    between atoms: C_25  and  C_26
REMARK                            x       y       z     vdW  Elec       q    Type
REMARK                         _______ _______ _______ _____ _____    ______ ____
ROOT
ATOM      1  N   UNL     1     -10.453   3.289   4.646  0.00  0.00    -0.257 N 
ATOM      2  C   UNL     1     -11.088   3.968   3.614  0.00  0.00    +0.051 A 
ATOM      3  C   UNL     1     -10.301   4.655   2.688  0.00  0.00    +0.024 A 
ATOM      4  C   UNL     1     -10.887   5.339   1.643  0.00  0.00    +0.002 A 
ATOM      5  C   UNL     1     -12.263   5.348   1.494  0.00  0.00    +0.001 A 
ATOM      6  C   UNL     1     -13.056   4.669   2.399  0.00  0.00    +0.017 A 
ATOM      7  C   UNL     1     -12.473   3.982   3.451  0.00  0.00    +0.034 A 
ATOM      8  S   UNL     1     -13.489   3.115   4.610  0.00  0.00    -0.082 S 
ATOM      9  C   UNL     1     -12.368   1.871   5.196  0.00  0.00    +0.076 C 
ATOM     10  C   UNL     1     -12.776   0.606   5.462  0.00  0.00    +0.028 C 
ATOM     11  C   UNL     1     -10.962   2.294   5.377  0.00  0.00    +0.258 C 
ATOM     12  O   UNL     1     -10.263   1.732   6.199  0.00  0.00    -0.269 OA
ENDROOT
BRANCH  10  13
ATOM     13  C   UNL     1     -11.786  -0.439   5.760  0.00  0.00    -0.022 A 
ATOM     14  C   UNL     1     -10.599  -0.514   5.022  0.00  0.00    +0.008 A 
ATOM     15  C   UNL     1      -9.675  -1.496   5.308  0.00  0.00    +0.002 A 
ATOM     16  C   UNL     1      -9.917  -2.406   6.322  0.00  0.00    +0.020 A 
ATOM     17  C   UNL     1     -11.089  -2.338   7.058  0.00  0.00    +0.042 A 
ATOM     18  C   UNL     1     -12.022  -1.358   6.787  0.00  0.00    +0.028 A 
ATOM     19 CL   UNL     1     -11.381  -3.485   8.328  0.00  0.00    -0.084 Cl
ENDBRANCH  10  13
BRANCH   1  20
ATOM     20  C   UNL     1      -9.088   3.712   4.969  0.00  0.00    +0.209 C 
BRANCH  20  22
ATOM     21  N   UNL     1      -6.784   3.130   4.282  0.00  0.00    -0.314 N 
ATOM     22  C   UNL     1      -8.107   2.912   4.150  0.00  0.00    +0.231 C 
ATOM     23  O   UNL     1      -8.509   2.071   3.374  0.00  0.00    -0.274 OA
ATOM     24  H   UNL     1      -6.420   3.893   4.986  0.00  0.00    +0.149 HD
BRANCH  21  25
ATOM     25  C   UNL     1      -5.831   2.353   3.486  0.00  0.00    +0.102 C 
BRANCH  25  26
ATOM     26  C   UNL     1      -4.405   2.794   3.824  0.00  0.00    +0.000 C 
BRANCH  26  27
ATOM     27  C   UNL     1      -3.410   1.982   2.993  0.00  0.00    -0.077 C 
BRANCH  27  34
ATOM     28  C   UNL     1      -1.543   2.351   0.920  0.00  0.00    -0.013 C 
ATOM     29  C   UNL     1      -1.087   1.915   2.314  0.00  0.00    -0.072 C 
ATOM     30  C   UNL     1       0.300   2.494   2.602  0.00  0.00    -0.016 C 
ATOM     31  C   UNL     1       0.743   2.071   4.005  0.00  0.00    -0.003 C 
ATOM     32  C   UNL     1      -0.291   2.553   5.026  0.00  0.00    -0.019 C 
ATOM     33  C   UNL     1      -1.662   1.972   4.668  0.00  0.00    -0.078 C 
ATOM     34  N   UNL     1      -2.041   2.405   3.317  0.00  0.00    +0.381 N 
ATOM     35  H   UNL     1      -2.012   3.505   3.297  0.00  0.00    -0.081 HD
ENDBRANCH  27  34
ENDBRANCH  26  27
ENDBRANCH  25  26
ENDBRANCH  21  25
ENDBRANCH  20  22
ENDBRANCH   1  20
TORSDOF 7
