REMARK  Name = ZINC40004535
REMARK  7 active torsions:
REMARK  status: ('A' for Active; 'I' for Inactive)
REMARK    1  A    between atoms: C_4  and  O_7
REMARK    2  A    between atoms: O_7  and  C_8
REMARK    3  A    between atoms: C_9  and  C_19
REMARK    4  A    between atoms: C_20  and  C_21
REMARK    5  A    between atoms: C_20  and  C_23
REMARK    6  A    between atoms: N_25  and  C_26
REMARK    7  A    between atoms: C_27  and  C_35
REMARK                            x       y       z     vdW  Elec       q    Type
REMARK                         _______ _______ _______ _____ _____    ______ ____
ROOT
ATOM      1  C   UNL     1       5.945  -1.921  -0.210  0.00  0.00    +0.042 C 
ATOM      2  C   UNL     1       7.118  -2.663  -0.221  0.00  0.00    +0.114 C 
ENDROOT
BRANCH   1   4
ATOM      3  C   UNL     1       4.367  -3.499  -1.235  0.00  0.00    +0.235 A 
ATOM      4  C   UNL     1       4.700  -2.576  -0.214  0.00  0.00    +0.103 A 
ATOM      5  C   UNL     1       3.744  -2.329   0.806  0.00  0.00    +0.269 A 
ATOM      6  O   UNL     1       3.985  -1.542   1.704  0.00  0.00    -0.266 OA
ATOM      7  N   UNL     1       2.561  -2.980   0.761  0.00  0.00    -0.268 N 
ATOM      8  C   UNL     1       1.637  -2.750   1.736  0.00  0.00    +0.096 A 
ATOM      9  C   UNL     1       0.443  -3.385   1.722  0.00  0.00    +0.018 A 
ATOM     10  C   UNL     1       0.143  -4.294   0.698  0.00  0.00    +0.005 A 
ATOM     11  C   UNL     1       1.063  -4.531  -0.281  0.00  0.00    +0.047 A 
ATOM     12  C   UNL     1       2.298  -3.860  -0.250  0.00  0.00    +0.144 A 
ATOM     13  N   UNL     1       3.188  -4.096  -1.216  0.00  0.00    -0.194 NA
BRANCH   3  14
ATOM     14  O   UNL     1       5.248  -3.764  -2.226  0.00  0.00    -0.437 OA
BRANCH  14  18
ATOM     15  C   UNL     1       4.008  -6.192  -5.323  0.00  0.00    +0.000 A 
ATOM     16  C   UNL     1       3.500  -4.912  -5.204  0.00  0.00    +0.004 A 
ATOM     17  C   UNL     1       3.913  -4.097  -4.168  0.00  0.00    +0.046 A 
ATOM     18  C   UNL     1       4.839  -4.564  -3.246  0.00  0.00    +0.130 A 
ATOM     19  C   UNL     1       5.348  -5.850  -3.368  0.00  0.00    +0.046 A 
ATOM     20  C   UNL     1       4.931  -6.660  -4.406  0.00  0.00    +0.004 A 
ENDBRANCH  14  18
ENDBRANCH   3  14
ENDBRANCH   1   4
BRANCH   2  21
ATOM     21  C   UNL     1       8.412  -1.984  -0.343  0.00  0.00    +0.259 C 
ATOM     22  O   UNL     1       8.458  -0.771  -0.436  0.00  0.00    -0.269 OA
ATOM     23  N   UNL     1       9.552  -2.704  -0.354  0.00  0.00    -0.274 N 
ATOM     24  H   UNL     1       9.516  -3.670  -0.280  0.00  0.00    +0.156 HD
BRANCH  23  25
ATOM     25  C   UNL     1      10.776  -2.062  -0.470  0.00  0.00    +0.090 A 
ATOM     26  C   UNL     1      12.038  -2.634  -0.503  0.00  0.00    +0.084 A 
ATOM     27  C   UNL     1      13.171  -1.736  -0.632  0.00  0.00    -0.018 A 
ATOM     28  C   UNL     1      12.835  -0.429  -0.703  0.00  0.00    -0.004 A 
ATOM     29  S   UNL     1      11.069  -0.414  -0.608  0.00  0.00    -0.077 S 
ATOM     30  C   UNL     1      13.769   0.734  -0.836  0.00  0.00    +0.043 C 
ATOM     31  C   UNL     1      15.189   0.253  -0.502  0.00  0.00    +0.005 C 
ATOM     32  C   UNL     1      15.466  -1.044  -1.268  0.00  0.00    +0.005 C 
ATOM     33  C   UNL     1      14.625  -2.182  -0.686  0.00  0.00    +0.037 C 
BRANCH  26  34
ATOM     34  C   UNL     1      12.216  -4.052  -0.415  0.00  0.00    +0.102 C 
ATOM     35  N   UNL     1      12.358  -5.177  -0.344  0.00  0.00    -0.191 NA
ENDBRANCH  26  34
ENDBRANCH  23  25
ENDBRANCH   2  21
BRANCH   2  36
ATOM     36  C   UNL     1       7.065  -4.090  -0.113  0.00  0.00    +0.104 C 
ATOM     37  N   UNL     1       7.023  -5.221  -0.026  0.00  0.00    -0.191 NA
ENDBRANCH   2  36
TORSDOF 7
