REMARK  Name = ZINC38902519
REMARK  9 active torsions:
REMARK  status: ('A' for Active; 'I' for Inactive)
REMARK    1  A    between atoms: C_1  and  C_2
REMARK    2  A    between atoms: C_2  and  C_3
REMARK    3  A    between atoms: C_2  and  C_4
REMARK    4  A    between atoms: C_2  and  C_5
REMARK    5  A    between atoms: C_8  and  C_11
REMARK    6  A    between atoms: C_13  and  C_16
REMARK    7  A    between atoms: C_16  and  N_17
REMARK    8  A    between atoms: C_21  and  C_24
REMARK    9  A    between atoms: N_29  and  C_32
REMARK                            x       y       z     vdW  Elec       q    Type
REMARK                         _______ _______ _______ _____ _____    ______ ____
ROOT
ATOM      1  N   UNL     1       6.442  -3.244  -6.438  0.00  0.00    +0.386 N 
ATOM      2  C   UNL     1       6.739  -3.073  -5.011  0.00  0.00    -0.078 C 
ATOM      3  C   UNL     1       7.564  -4.261  -4.512  0.00  0.00    -0.018 C 
ATOM      4  C   UNL     1       8.873  -4.334  -5.302  0.00  0.00    +0.009 C 
ATOM      5  C   UNL     1       8.552  -4.437  -6.796  0.00  0.00    +0.059 C 
ATOM      6  C   UNL     1       7.690  -3.242  -7.210  0.00  0.00    -0.065 C 
ATOM      7  H   UNL     1       5.962  -4.120  -6.577  0.00  0.00    -0.081 HD
ENDROOT
BRANCH   5   8
ATOM      8  C   UNL     1       9.834  -4.432  -7.588  0.00  0.00    +0.217 C 
ATOM      9  O   UNL     1      10.778  -3.772  -7.210  0.00  0.00    -0.275 OA
ATOM     10  N   UNL     1       9.930  -5.162  -8.717  0.00  0.00    -0.298 N 
ATOM     11  C   UNL     1       8.758  -5.866  -9.256  0.00  0.00    +0.126 C 
ATOM     12  C   UNL     1       8.545  -5.424 -10.709  0.00  0.00    +0.124 C 
ATOM     13  N   UNL     1       9.825  -5.529 -11.424  0.00  0.00    -0.325 N 
ATOM     14  C   UNL     1      10.997  -4.825 -10.886  0.00  0.00    +0.124 C 
ATOM     15  C   UNL     1      11.209  -5.263  -9.436  0.00  0.00    +0.126 C 
BRANCH  13  16
ATOM     16  C   UNL     1       9.925  -6.286 -12.595  0.00  0.00    +0.065 A 
ATOM     17  C   UNL     1       9.697  -5.692 -13.829  0.00  0.00    +0.026 A 
ATOM     18  C   UNL     1       9.797  -6.443 -14.985  0.00  0.00    +0.002 A 
ATOM     19  C   UNL     1      10.124  -7.784 -14.915  0.00  0.00    +0.003 A 
ATOM     20  C   UNL     1      10.353  -8.381 -13.688  0.00  0.00    +0.040 A 
ATOM     21  C   UNL     1      10.260  -7.635 -12.528  0.00  0.00    +0.144 A 
ATOM     22  F   UNL     1      10.489  -8.215 -11.329  0.00  0.00    -0.204 F 
ENDBRANCH  13  16
ENDBRANCH   5   8
BRANCH   1  23
ATOM     23  C   UNL     1       5.585  -2.141  -6.893  0.00  0.00    +0.022 C 
BRANCH  23  26
ATOM     24  C   UNL     1       2.686  -1.913  -4.721  0.00  0.00    +0.202 A 
ATOM     25  N   UNL     1       3.959  -1.639  -5.058  0.00  0.00    -0.193 NA
ATOM     26  C   UNL     1       4.254  -2.215  -6.189  0.00  0.00    +0.211 A 
ATOM     27  O   UNL     1       3.176  -2.882  -6.620  0.00  0.00    -0.340 OA
ATOM     28  N   UNL     1       2.163  -2.679  -5.647  0.00  0.00    -0.056 NA
BRANCH  24  32
ATOM     29  C   UNL     1       0.697  -0.541  -1.222  0.00  0.00    -0.042 A 
ATOM     30  C   UNL     1       0.026  -1.347  -2.124  0.00  0.00    +0.005 A 
ATOM     31  C   UNL     1       0.667  -1.795  -3.261  0.00  0.00    +0.012 A 
ATOM     32  C   UNL     1       1.992  -1.434  -3.500  0.00  0.00    +0.022 A 
ATOM     33  C   UNL     1       2.662  -0.622  -2.587  0.00  0.00    +0.012 A 
ATOM     34  C   UNL     1       2.010  -0.175  -1.456  0.00  0.00    +0.005 A 
BRANCH  29  36
ATOM     35  C   UNL     1      -0.043   1.474   0.019  0.00  0.00    +0.015 C 
ATOM     36  C   UNL     1      -0.008  -0.055   0.019  0.00  0.00    -0.013 C 
ATOM     37  C   UNL     1       0.742  -0.548   1.258  0.00  0.00    +0.015 C 
ATOM     38  C   UNL     1      -1.438  -0.598   0.038  0.00  0.00    +0.015 C 
ENDBRANCH  29  36
ENDBRANCH  24  32
ENDBRANCH  23  26
ENDBRANCH   1  23
TORSDOF 6
