REMARK  Name = ZINC03112655
REMARK  12 active torsions:
REMARK  status: ('A' for Active; 'I' for Inactive)
REMARK    1  A    between atoms: C_1  and  C_2
REMARK    2  A    between atoms: C_5  and  S_8
REMARK    3  A    between atoms: S_8  and  N_11
REMARK    4  A    between atoms: N_11  and  C_12
REMARK    5  A    between atoms: C_12  and  C_14
REMARK    6  A    between atoms: C_12  and  C_21
REMARK    7  A    between atoms: C_14  and  C_15
REMARK    8  A    between atoms: N_23  and  N_24
REMARK    9  A    between atoms: C_25  and  C_26
REMARK   10  A    between atoms: C_31  and  O_32
REMARK   11  A    between atoms: O_32  and  C_33
REMARK   12  A    between atoms: C_33  and  C_34
REMARK                            x       y       z     vdW  Elec       q    Type
REMARK                         _______ _______ _______ _____ _____    ______ ____
ROOT
ATOM      1  C   UNL     1       1.110   0.747  -5.983  0.00  0.00    +0.168 C 
ENDROOT
BRANCH   1   2
ATOM      2  C   UNL     1       1.917   0.295  -4.793  0.00  0.00    +0.251 C 
ATOM      3  O   UNL     1       1.518   0.519  -3.669  0.00  0.00    -0.272 OA
ATOM      4  N   UNL     1       3.082  -0.356  -4.977  0.00  0.00    -0.206 N 
ATOM      5  H   UNL     1       3.401  -0.535  -5.875  0.00  0.00    +0.177 HD
BRANCH   4   6
ATOM      6  N   UNL     1       3.832  -0.776  -3.871  0.00  0.00    -0.188 NA
ATOM      7  C   UNL     1       4.955  -1.403  -4.048  0.00  0.00    +0.142 C 
BRANCH   7   8
ATOM      8  C   UNL     1       5.744  -1.845  -2.884  0.00  0.00    +0.036 A 
ATOM      9  C   UNL     1       6.952  -2.520  -3.071  0.00  0.00    +0.013 A 
ATOM     10  C   UNL     1       7.686  -2.930  -1.977  0.00  0.00    +0.001 A 
ATOM     11  C   UNL     1       7.231  -2.674  -0.695  0.00  0.00    +0.004 A 
ATOM     12  C   UNL     1       6.039  -2.003  -0.498  0.00  0.00    +0.046 A 
ATOM     13  C   UNL     1       5.287  -1.589  -1.585  0.00  0.00    +0.130 A 
BRANCH  13  14
ATOM     14  O   UNL     1       4.113  -0.932  -1.391  0.00  0.00    -0.487 OA
BRANCH  14  15
ATOM     15  C   UNL     1       3.711  -0.707  -0.039  0.00  0.00    +0.264 C 
BRANCH  15  16
ATOM     16  C   UNL     1       2.396   0.029  -0.022  0.00  0.00    -0.010 A 
ATOM     17  C   UNL     1       1.208  -0.679  -0.014  0.00  0.00    +0.007 A 
ATOM     18  C   UNL     1       0.002  -0.004   0.002  0.00  0.00    +0.000 A 
ATOM     19  C   UNL     1      -0.017   1.378   0.010  0.00  0.00    +0.000 A 
ATOM     20  C   UNL     1       1.171   2.086   0.002  0.00  0.00    +0.000 A 
ATOM     21  C   UNL     1       2.377   1.411  -0.014  0.00  0.00    +0.007 A 
ENDBRANCH  15  16
ENDBRANCH  14  15
ENDBRANCH  13  14
ENDBRANCH   7   8
ENDBRANCH   4   6
ENDBRANCH   1   2
BRANCH   1  22
ATOM     22  N   UNL     1      -0.104   1.425  -5.521  0.00  0.00    -0.178 NA
ATOM     23  H   UNL     1      -0.081   1.965  -4.715  0.00  0.00    +0.149 HD
BRANCH  22  24
ATOM     24  S   UNL     1      -1.514   1.272  -6.375  0.00  0.00    +0.059 S 
ATOM     25  O   UNL     1      -2.499   2.014  -5.668  0.00  0.00    -0.153 OA
ATOM     26  O   UNL     1      -1.196   1.530  -7.735  0.00  0.00    -0.153 OA
BRANCH  24  31
ATOM     27  C   UNL     1      -3.167  -4.523  -6.062  0.00  0.00    +0.044 C 
ATOM     28  C   UNL     1      -2.755  -3.075  -6.140  0.00  0.00    -0.050 A 
ATOM     29  C   UNL     1      -3.191  -2.179  -5.182  0.00  0.00    +0.005 A 
ATOM     30  C   UNL     1      -2.812  -0.852  -5.254  0.00  0.00    +0.029 A 
ATOM     31  C   UNL     1      -1.997  -0.420  -6.283  0.00  0.00    +0.105 A 
ATOM     32  C   UNL     1      -1.564  -1.315  -7.244  0.00  0.00    +0.029 A 
ATOM     33  C   UNL     1      -1.939  -2.644  -7.170  0.00  0.00    +0.005 A 
ENDBRANCH  24  31
ENDBRANCH  22  24
ENDBRANCH   1  22
BRANCH   1  34
ATOM     34  C   UNL     1       1.943   1.712  -6.828  0.00  0.00    +0.065 C 
BRANCH  34  35
ATOM     35  C   UNL     1       1.184   2.067  -8.081  0.00  0.00    -0.045 A 
ATOM     36  C   UNL     1       1.340   1.305  -9.223  0.00  0.00    +0.004 A 
ATOM     37  C   UNL     1       0.640   1.628 -10.370  0.00  0.00    +0.000 A 
ATOM     38  C   UNL     1      -0.208   2.719 -10.378  0.00  0.00    +0.000 A 
ATOM     39  C   UNL     1      -0.360   3.485  -9.237  0.00  0.00    +0.000 A 
ATOM     40  C   UNL     1       0.336   3.158  -8.088  0.00  0.00    +0.004 A 
ENDBRANCH  34  35
ENDBRANCH   1  34
TORSDOF 11
