REMARK  Name = ZINC20136802
REMARK  13 active torsions:
REMARK  status: ('A' for Active; 'I' for Inactive)
REMARK    1  A    between atoms: C_1  and  C_2
REMARK    2  A    between atoms: C_2  and  O_3
REMARK    3  A    between atoms: O_3  and  C_4
REMARK    4  A    between atoms: C_4  and  C_6
REMARK    5  A    between atoms: C_7  and  C_33
REMARK    6  A    between atoms: C_9  and  S_20
REMARK    7  A    between atoms: C_10  and  C_18
REMARK    8  A    between atoms: C_11  and  C_13
REMARK    9  A    between atoms: S_20  and  C_21
REMARK   10  A    between atoms: C_21  and  C_22
REMARK   11  A    between atoms: N_24  and  C_25
REMARK   12  A    between atoms: C_27  and  C_32
REMARK   13  A    between atoms: C_30  and  C_31
REMARK                            x       y       z     vdW  Elec       q    Type
REMARK                         _______ _______ _______ _____ _____    ______ ____
ROOT
ATOM      1  C   UNL     1      -0.962   1.885  -1.817  0.00  0.00    +0.074 C 
ATOM      2  C   UNL     1      -0.825   3.210  -2.083  0.00  0.00    +0.050 C 
ATOM      3  N   UNL     1       0.123   3.964  -1.428  0.00  0.00    -0.308 N 
ATOM      4  C   UNL     1       1.167   3.346  -0.777  0.00  0.00    +0.080 C 
ATOM      5  C   UNL     1       1.104   2.025  -0.463  0.00  0.00    +0.072 C 
ATOM      6  C   UNL     1      -0.101   1.194  -0.799  0.00  0.00    +0.136 C 
ATOM      7  H   UNL     1       0.046   5.061  -1.423  0.00  0.00    +0.153 HD
ENDROOT
BRANCH   2   8
ATOM      8  C   UNL     1      -1.701   3.849  -3.085  0.00  0.00    -0.003 A 
ATOM      9  C   UNL     1      -1.163   4.336  -4.278  0.00  0.00    +0.010 A 
ATOM     10  C   UNL     1      -1.988   4.926  -5.213  0.00  0.00    +0.001 A 
ATOM     11  C   UNL     1      -3.344   5.046  -4.965  0.00  0.00    +0.000 A 
ATOM     12  C   UNL     1      -3.883   4.571  -3.783  0.00  0.00    +0.001 A 
ATOM     13  C   UNL     1      -3.071   3.973  -2.842  0.00  0.00    +0.010 A 
ENDBRANCH   2   8
BRANCH   6  14
ATOM     14  C   UNL     1      -0.906   0.959   0.453  0.00  0.00    +0.118 A 
ATOM     15  C   UNL     1      -1.182  -0.240   0.998  0.00  0.00    +0.045 A 
ATOM     16  C   UNL     1      -1.957   0.005   2.154  0.00  0.00    +0.041 A 
ATOM     17  C   UNL     1      -2.108   1.338   2.247  0.00  0.00    +0.195 A 
ATOM     18  O   UNL     1      -1.465   1.911   1.217  0.00  0.00    -0.467 OA
ENDBRANCH   6  14
BRANCH   1  19
ATOM     19  C   UNL     1      -1.935   1.142  -2.512  0.00  0.00    +0.338 C 
ATOM     20  O   UNL     1      -2.555   1.655  -3.426  0.00  0.00    -0.245 OA
BRANCH  19  21
ATOM     21  O   UNL     1      -2.182  -0.140  -2.165  0.00  0.00    -0.462 OA
BRANCH  21  23
ATOM     22  C   UNL     1      -3.319  -2.261  -2.379  0.00  0.00    +0.048 C 
ATOM     23  C   UNL     1      -3.182  -0.834  -2.913  0.00  0.00    +0.229 C 
ENDBRANCH  21  23
ENDBRANCH  19  21
ENDBRANCH   1  19
BRANCH   5  24
ATOM     24  C   UNL     1       2.212   1.412   0.206  0.00  0.00    +0.098 C 
ATOM     25  N   UNL     1       3.091   0.926   0.736  0.00  0.00    -0.191 NA
ENDBRANCH   5  24
BRANCH   4  26
ATOM     26  S   UNL     1       2.600   4.277  -0.348  0.00  0.00    -0.100 S 
BRANCH  26  27
ATOM     27  C   UNL     1       2.125   5.900  -0.994  0.00  0.00    +0.171 C 
BRANCH  27  28
ATOM     28  C   UNL     1       3.232   6.888  -0.733  0.00  0.00    +0.227 C 
ATOM     29  O   UNL     1       4.243   6.530  -0.166  0.00  0.00    -0.275 OA
ATOM     30  N   UNL     1       3.099   8.170  -1.129  0.00  0.00    -0.285 N 
ATOM     31  H   UNL     1       2.223   8.475  -1.718  0.00  0.00    +0.155 HD
BRANCH  30  32
ATOM     32  C   UNL     1       4.077   9.112  -0.789  0.00  0.00    +0.037 A 
ATOM     33  C   UNL     1       4.897   8.898   0.311  0.00  0.00    +0.027 A 
ATOM     34  C   UNL     1       5.865   9.827   0.640  0.00  0.00    -0.049 A 
ATOM     35  C   UNL     1       6.010  10.974  -0.119  0.00  0.00    +0.004 A 
ATOM     36  C   UNL     1       5.191  11.193  -1.211  0.00  0.00    +0.005 A 
ATOM     37  C   UNL     1       4.225  10.265  -1.549  0.00  0.00    -0.029 A 
ATOM     38  C   UNL     1       3.334  10.503  -2.740  0.00  0.00    +0.045 C 
ATOM     39  C   UNL     1       6.760   9.592   1.829  0.00  0.00    +0.044 C 
ENDBRANCH  30  32
ENDBRANCH  27  28
ENDBRANCH  26  27
ENDBRANCH   4  26
TORSDOF 10
