REMARK  Name = ZINC59278588
REMARK  12 active torsions:
REMARK  status: ('A' for Active; 'I' for Inactive)
REMARK    1  A    between atoms: C_1  and  C_2
REMARK    2  A    between atoms: C_2  and  O_3
REMARK    3  A    between atoms: O_3  and  C_4
REMARK    4  A    between atoms: C_9  and  C_10
REMARK    5  A    between atoms: C_10  and  N_11
REMARK    6  A    between atoms: N_11  and  C_12
REMARK    7  A    between atoms: C_14  and  C_20
REMARK    8  A    between atoms: C_14  and  C_21
REMARK    9  A    between atoms: C_16  and  C_18
REMARK   10  A    between atoms: C_16  and  C_19
REMARK   11  A    between atoms: N_24  and  C_25
REMARK   12  A    between atoms: C_25  and  C_26
REMARK                            x       y       z     vdW  Elec       q    Type
REMARK                         _______ _______ _______ _____ _____    ______ ____
ROOT
ATOM      1  N   UNL     1      -3.954  -0.196  -1.204  0.00  0.00    -0.278 N 
ATOM      2  C   UNL     1      -3.313   0.925  -1.591  0.00  0.00    +0.303 C 
ATOM      3  O   UNL     1      -2.599   1.519  -0.806  0.00  0.00    -0.253 OA
ATOM      4  N   UNL     1      -3.463   1.387  -2.848  0.00  0.00    -0.295 N 
ATOM      5  H   UNL     1      -4.086   0.953  -3.453  0.00  0.00    +0.151 HD
ENDROOT
BRANCH   1   6
ATOM      6  C   UNL     1      -4.904  -0.849  -2.113  0.00  0.00    +0.075 C 
ATOM      7  C   UNL     1      -4.514  -2.320  -2.275  0.00  0.00    +0.009 C 
ATOM      8  C   UNL     1      -5.502  -3.018  -3.210  0.00  0.00    -0.072 C 
ATOM      9  N   UNL     1      -6.880  -2.851  -2.774  0.00  0.00    +0.386 N 
ATOM     10  C   UNL     1      -7.311  -1.516  -2.392  0.00  0.00    -0.072 C 
ATOM     11  C   UNL     1      -6.306  -0.789  -1.506  0.00  0.00    +0.009 C 
ATOM     12  C   UNL     1      -7.645  -0.657  -3.615  0.00  0.00    -0.010 C 
ATOM     13  C   UNL     1      -8.618  -1.665  -1.576  0.00  0.00    -0.010 C 
ATOM     14  C   UNL     1      -5.179  -4.529  -3.171  0.00  0.00    -0.010 C 
ATOM     15  C   UNL     1      -5.292  -2.546  -4.648  0.00  0.00    -0.010 C 
ATOM     16  H   UNL     1      -7.496  -3.188  -3.518  0.00  0.00    -0.084 HD
ATOM     17  H   UNL     1      -7.045  -3.480  -1.984  0.00  0.00    -0.084 HD
ENDBRANCH   1   6
BRANCH   1  18
ATOM     18  C   UNL     1      -3.703  -0.762   0.124  0.00  0.00    +0.148 C 
BRANCH  18  24
ATOM     19  C   UNL     1      -1.321  -1.471  -0.207  0.00  0.00    +0.125 A 
ATOM     20  C   UNL     1      -0.345  -2.454  -0.293  0.00  0.00    +0.046 A 
ATOM     21  C   UNL     1      -0.692  -3.784  -0.156  0.00  0.00    +0.004 A 
ATOM     22  C   UNL     1      -2.011  -4.136   0.068  0.00  0.00    +0.001 A 
ATOM     23  C   UNL     1      -2.985  -3.159   0.154  0.00  0.00    +0.009 A 
ATOM     24  C   UNL     1      -2.642  -1.827   0.023  0.00  0.00    +0.012 A 
BRANCH  19  25
ATOM     25  O   UNL     1      -0.982  -0.162  -0.341  0.00  0.00    -0.492 OA
BRANCH  25  27
ATOM     26  C   UNL     1       0.584   1.644  -0.699  0.00  0.00    +0.048 C 
ATOM     27  C   UNL     1       0.397   0.130  -0.576  0.00  0.00    +0.225 C 
ENDBRANCH  25  27
ENDBRANCH  19  25
ENDBRANCH  18  24
ENDBRANCH   1  18
BRANCH   4  28
ATOM     28  C   UNL     1      -2.687   2.544  -3.301  0.00  0.00    +0.141 C 
BRANCH  28  29
ATOM     29  C   UNL     1      -3.038   2.855  -4.733  0.00  0.00    -0.027 A 
ATOM     30  C   UNL     1      -2.330   2.261  -5.762  0.00  0.00    +0.009 A 
ATOM     31  C   UNL     1      -2.649   2.543  -7.077  0.00  0.00    +0.050 A 
ATOM     32  C   UNL     1      -3.680   3.423  -7.367  0.00  0.00    +0.166 A 
ATOM     33  C   UNL     1      -4.393   4.021  -6.331  0.00  0.00    +0.167 A 
ATOM     34  C   UNL     1      -4.071   3.729  -5.016  0.00  0.00    +0.054 A 
ATOM     35  O   UNL     1      -5.345   4.836  -6.871  0.00  0.00    -0.453 OA
ATOM     36  C   UNL     1      -4.942   5.046  -8.237  0.00  0.00    +0.466 C 
ATOM     37  O   UNL     1      -4.186   3.864  -8.556  0.00  0.00    -0.453 OA
ENDBRANCH  28  29
ENDBRANCH   4  28
TORSDOF 7
