REMARK  Name = ZINC00445362
REMARK  3 active torsions:
REMARK  status: ('A' for Active; 'I' for Inactive)
REMARK    1  A    between atoms: C_6  and  C_7
REMARK    2  A    between atoms: C_8  and  C_9
REMARK    3  A    between atoms: N_11  and  C_12
REMARK                            x       y       z     vdW  Elec       q    Type
REMARK                         _______ _______ _______ _____ _____    ______ ____
ROOT
ATOM      1  C   UNL     1      -1.915   4.597   0.045  0.00  0.00    +0.013 C 
ATOM      2  C   UNL     1      -1.660   5.923   0.050  0.00  0.00    +0.068 C 
ENDROOT
BRANCH   1   8
ATOM      3  C   UNL     1       0.520   4.092   0.019  0.00  0.00    +0.012 A 
ATOM      4  C   UNL     1       1.560   3.188   0.004  0.00  0.00    +0.050 A 
ATOM      5  C   UNL     1       1.301   1.824  -0.001  0.00  0.00    +0.166 A 
ATOM      6  C   UNL     1      -0.016   1.361   0.009  0.00  0.00    +0.167 A 
ATOM      7  C   UNL     1      -1.064   2.260   0.019  0.00  0.00    +0.057 A 
ATOM      8  C   UNL     1      -0.803   3.635   0.029  0.00  0.00    -0.021 A 
ATOM      9  O   UNL     1       0.002  -0.004   0.002  0.00  0.00    -0.453 OA
ATOM     10  C   UNL     1       1.336  -0.372   0.400  0.00  0.00    +0.466 C 
ATOM     11  O   UNL     1       2.139   0.748  -0.015  0.00  0.00    -0.453 OA
ENDBRANCH   1   8
BRANCH   2  12
ATOM     12  C   UNL     1      -2.767   6.879   0.066  0.00  0.00    +0.237 C 
ATOM     13  O   UNL     1      -3.916   6.480   0.074  0.00  0.00    -0.271 OA
ATOM     14  N   UNL     1      -2.513   8.203   0.071  0.00  0.00    -0.309 N 
ATOM     15  H   UNL     1      -1.596   8.521   0.064  0.00  0.00    +0.149 HD
BRANCH  14  16
ATOM     16  C   UNL     1      -3.621   9.161   0.086  0.00  0.00    +0.077 C 
ATOM     17  C   UNL     1      -4.101   9.454  -1.354  0.00  0.00    +0.026 C 
ATOM     18  C   UNL     1      -3.863  10.983  -1.545  0.00  0.00    -0.009 C 
ATOM     19  C   UNL     1      -4.927  11.661  -0.629  0.00  0.00    +0.004 C 
ATOM     20  C   UNL     1      -4.447  11.369   0.811  0.00  0.00    +0.005 C 
ATOM     21  C   UNL     1      -3.138  10.541   0.629  0.00  0.00    +0.010 C 
ATOM     22  C   UNL     1      -2.567  11.185  -0.683  0.00  0.00    +0.009 C 
ENDBRANCH  14  16
ENDBRANCH   2  12
TORSDOF 3
