REMARK  Name = ZINC12244897
REMARK  9 active torsions:
REMARK  status: ('A' for Active; 'I' for Inactive)
REMARK    1  A    between atoms: C_1  and  C_2
REMARK    2  A    between atoms: C_6  and  C_8
REMARK    3  A    between atoms: C_8  and  N_64
REMARK    4  A    between atoms: C_10  and  N_19
REMARK    5  A    between atoms: C_13  and  C_15
REMARK    6  A    between atoms: C_15  and  O_17
REMARK    7  A    between atoms: O_17  and  C_18
REMARK    8  A    between atoms: C_20  and  C_22
REMARK    9  A    between atoms: C_23  and  C_33
REMARK                            x       y       z     vdW  Elec       q    Type
REMARK                         _______ _______ _______ _____ _____    ______ ____
ROOT
ATOM      1  N   UNL     1      -3.314  -0.487   3.590  0.00  0.00    -0.309 N 
ATOM      2  C   UNL     1      -2.881   0.443   2.714  0.00  0.00    +0.261 C 
ATOM      3  O   UNL     1      -1.744   0.869   2.792  0.00  0.00    -0.269 OA
ATOM      4  H   UNL     1      -4.220  -0.827   3.527  0.00  0.00    +0.149 HD
ENDROOT
BRANCH   2   5
ATOM      5  C   UNL     1      -3.781   0.940   1.668  0.00  0.00    +0.111 A 
ATOM      6  C   UNL     1      -3.457   1.888   0.715  0.00  0.00    +0.020 A 
ATOM      7  C   UNL     1      -4.657   2.075  -0.110  0.00  0.00    +0.010 A 
ATOM      8  C   UNL     1      -4.950   2.877  -1.216  0.00  0.00    +0.030 A 
ATOM      9  C   UNL     1      -6.192   2.822  -1.785  0.00  0.00    +0.042 A 
ATOM     10  C   UNL     1      -7.164   1.969  -1.275  0.00  0.00    +0.022 A 
ATOM     11  C   UNL     1      -6.894   1.166  -0.190  0.00  0.00    +0.027 A 
ATOM     12  C   UNL     1      -5.635   1.205   0.406  0.00  0.00    +0.048 A 
ATOM     13  N   UNL     1      -5.086   0.537   1.476  0.00  0.00    -0.350 N 
ATOM     14  H   UNL     1      -5.549  -0.122   2.016  0.00  0.00    +0.166 HD
ATOM     15 CL   UNL     1      -6.558   3.824  -3.154  0.00  0.00    -0.084 Cl
BRANCH   6  16
ATOM     16  C   UNL     1      -2.159   2.581   0.560  0.00  0.00    -0.015 A 
ATOM     17  C   UNL     1      -1.016   1.859   0.214  0.00  0.00    +0.008 A 
ATOM     18  C   UNL     1       0.190   2.513   0.066  0.00  0.00    +0.001 A 
ATOM     19  C   UNL     1       0.269   3.880   0.265  0.00  0.00    +0.000 A 
ATOM     20  C   UNL     1      -0.860   4.600   0.614  0.00  0.00    +0.001 A 
ATOM     21  C   UNL     1      -2.072   3.959   0.765  0.00  0.00    +0.008 A 
ENDBRANCH   6  16
ENDBRANCH   2   5
BRANCH   1  23
ATOM     22  C   UNL     1      -1.671  -2.259   4.167  0.00  0.00    -0.055 C 
ATOM     23  C   UNL     1      -2.415  -0.983   4.635  0.00  0.00    +0.056 C 
ATOM     24  C   UNL     1      -3.218  -1.516   5.851  0.00  0.00    +0.016 C 
ATOM     25  C   UNL     1      -2.259  -2.553   6.473  0.00  0.00    +0.045 C 
ATOM     26  N   UNL     1      -1.312  -2.954   5.419  0.00  0.00    +0.392 N 
ATOM     27  H   UNL     1      -0.361  -2.684   5.697  0.00  0.00    -0.080 HD
BRANCH  25  28
ATOM     28  C   UNL     1      -3.041  -3.742   6.968  0.00  0.00    +0.293 C 
ATOM     29  O   UNL     1      -3.577  -4.483   6.179  0.00  0.00    -0.253 OA
BRANCH  28  30
ATOM     30  O   UNL     1      -3.141  -3.978   8.286  0.00  0.00    -0.469 OA
ATOM     31  C   UNL     1      -3.909  -5.142   8.690  0.00  0.00    +0.280 C 
ENDBRANCH  28  30
ENDBRANCH  25  28
BRANCH  26  32
ATOM     32  C   UNL     1      -1.361  -4.426   5.220  0.00  0.00    -0.042 C 
BRANCH  32  38
ATOM     33  C   UNL     1       0.869  -5.361   0.838  0.00  0.00    +0.044 C 
ATOM     34  C   UNL     1       0.919  -5.310   2.344  0.00  0.00    -0.050 A 
ATOM     35  C   UNL     1       2.079  -5.662   3.009  0.00  0.00    +0.003 A 
ATOM     36  C   UNL     1       2.125  -5.615   4.389  0.00  0.00    +0.000 A 
ATOM     37  C   UNL     1       1.012  -5.215   5.105  0.00  0.00    +0.002 A 
ATOM     38  C   UNL     1      -0.147  -4.862   4.440  0.00  0.00    -0.064 A 
ATOM     39  C   UNL     1      -0.195  -4.914   3.059  0.00  0.00    +0.005 A 
ENDBRANCH  32  38
ENDBRANCH  26  32
ENDBRANCH   1  23
TORSDOF 7
