REMARK  Name = ZINC39665766
REMARK  9 active torsions:
REMARK  status: ('A' for Active; 'I' for Inactive)
REMARK    1  A    between atoms: C_1  and  C_2
REMARK    2  A    between atoms: C_2  and  C_4
REMARK    3  A    between atoms: C_2  and  O_29
REMARK    4  A    between atoms: C_4  and  N_5
REMARK    5  A    between atoms: C_6  and  C_8
REMARK    6  A    between atoms: C_19  and  C_21
REMARK    7  A    between atoms: O_29  and  C_30
REMARK    8  A    between atoms: C_33  and  O_36
REMARK    9  A    between atoms: O_36  and  C_37
REMARK                            x       y       z     vdW  Elec       q    Type
REMARK                         _______ _______ _______ _____ _____    ______ ____
ROOT
ATOM      1  C   UNL     1       1.918  -4.417   3.259  0.00  0.00    +0.100 C 
ATOM      2  C   UNL     1       2.510  -5.043   1.976  0.00  0.00    +0.121 C 
ATOM      3  N   UNL     1       3.958  -5.181   2.261  0.00  0.00    -0.296 N 
ATOM      4  C   UNL     1       4.015  -5.609   3.679  0.00  0.00    +0.115 C 
ATOM      5  C   UNL     1       2.907  -4.793   4.375  0.00  0.00    -0.004 C 
ATOM      6  C   UNL     1       3.496  -3.535   5.005  0.00  0.00    -0.010 C 
ATOM      7  C   UNL     1       4.432  -3.934   6.149  0.00  0.00    -0.082 C 
ATOM      8  N   UNL     1       3.684  -4.704   7.151  0.00  0.00    +0.379 N 
ATOM      9  C   UNL     1       3.200  -5.957   6.560  0.00  0.00    -0.082 C 
ATOM     10  C   UNL     1       2.211  -5.644   5.433  0.00  0.00    -0.010 C 
ATOM     11  C   UNL     1       4.989  -4.967   1.420  0.00  0.00    +0.249 C 
ATOM     12  O   UNL     1       6.125  -5.208   1.778  0.00  0.00    -0.270 OA
ATOM     13  H   UNL     1       4.288  -4.913   7.932  0.00  0.00    -0.086 HD
ATOM     14  H   UNL     1       2.898  -4.159   7.473  0.00  0.00    -0.086 HD
ENDROOT
BRANCH  11  15
ATOM     15  C   UNL     1       4.739  -4.439   0.064  0.00  0.00    +0.073 A 
ATOM     16  C   UNL     1       3.654  -4.906  -0.682  0.00  0.00    +0.036 A 
ATOM     17  C   UNL     1       3.426  -4.408  -1.948  0.00  0.00    +0.042 A 
ATOM     18  C   UNL     1       4.269  -3.447  -2.482  0.00  0.00    +0.023 A 
ATOM     19  C   UNL     1       5.345  -2.979  -1.751  0.00  0.00    +0.040 A 
ATOM     20  C   UNL     1       5.583  -3.465  -0.478  0.00  0.00    +0.136 A 
ATOM     21  F   UNL     1       6.631  -3.003   0.238  0.00  0.00    -0.205 F 
ATOM     22 CL   UNL     1       2.078  -4.988  -2.876  0.00  0.00    -0.084 Cl
ENDBRANCH  11  15
BRANCH   1  24
ATOM     23  N   UNL     1       0.951  -2.223   3.868  0.00  0.00    -0.312 N 
ATOM     24  C   UNL     1       1.830  -2.919   3.119  0.00  0.00    +0.218 C 
ATOM     25  O   UNL     1       2.549  -2.340   2.333  0.00  0.00    -0.275 OA
ATOM     26  H   UNL     1       0.376  -2.686   4.496  0.00  0.00    +0.149 HD
BRANCH  23  27
ATOM     27  C   UNL     1       0.865  -0.767   3.732  0.00  0.00    +0.148 C 
BRANCH  27  29
ATOM     28  C   UNL     1      -0.379   1.274   4.457  0.00  0.00    +0.053 C 
ATOM     29  C   UNL     1      -0.201  -0.228   4.687  0.00  0.00    +0.187 C 
BRANCH  29  30
ATOM     30  O   UNL     1       0.208  -0.458   6.037  0.00  0.00    -0.488 OA
BRANCH  30  31
ATOM     31  C   UNL     1      -0.773  -0.524   6.976  0.00  0.00    +0.121 A 
ATOM     32  C   UNL     1      -0.444  -0.708   8.311  0.00  0.00    +0.049 A 
ATOM     33  C   UNL     1      -1.440  -0.775   9.265  0.00  0.00    +0.049 A 
ATOM     34  C   UNL     1      -2.770  -0.657   8.889  0.00  0.00    +0.120 A 
ATOM     35  C   UNL     1      -3.099  -0.471   7.555  0.00  0.00    +0.049 A 
ATOM     36  C   UNL     1      -2.103  -0.400   6.601  0.00  0.00    +0.049 A 
BRANCH  34  37
ATOM     37  O   UNL     1      -3.751  -0.723   9.829  0.00  0.00    -0.495 OA
ATOM     38  C   UNL     1      -5.098  -0.594   9.370  0.00  0.00    +0.277 C 
ENDBRANCH  34  37
ENDBRANCH  30  31
ENDBRANCH  29  30
ENDBRANCH  27  29
ENDBRANCH  23  27
ENDBRANCH   1  24
TORSDOF 7
