REMARK  Name = ZINC36635558
REMARK  5 active torsions:
REMARK  status: ('A' for Active; 'I' for Inactive)
REMARK    1  A    between atoms: C_1  and  C_2
REMARK    2  A    between atoms: C_2  and  C_3
REMARK    3  A    between atoms: C_8  and  N_9
REMARK    4  A    between atoms: C_13  and  N_17
REMARK    5  A    between atoms: N_17  and  C_18
REMARK                            x       y       z     vdW  Elec       q    Type
REMARK                         _______ _______ _______ _____ _____    ______ ____
ROOT
ATOM      1  N   UNL     1       2.834  -0.267  -0.110  0.00  0.00    -0.209 N 
ATOM      2  C   UNL     1       3.139  -1.155   0.844  0.00  0.00    +0.228 C 
ATOM      3  O   UNL     1       2.821  -2.325   0.842  0.00  0.00    -0.275 OA
ATOM      4  C   UNL     1       3.943  -0.468   1.925  0.00  0.00    +0.128 C 
ATOM      5  C   UNL     1       4.052   0.987   1.425  0.00  0.00    +0.166 C 
ATOM      6  C   UNL     1       3.302   0.967   0.111  0.00  0.00    +0.247 C 
ATOM      7  O   UNL     1       3.147   1.919  -0.624  0.00  0.00    -0.273 OA
ENDROOT
BRANCH   1  13
ATOM      8  C   UNL     1       0.707  -0.490  -1.238  0.00  0.00    -0.026 A 
ATOM      9  C   UNL     1      -0.022  -0.817  -2.365  0.00  0.00    +0.005 A 
ATOM     10  C   UNL     1       0.625  -1.263  -3.503  0.00  0.00    +0.000 A 
ATOM     11  C   UNL     1       2.003  -1.382  -3.517  0.00  0.00    +0.002 A 
ATOM     12  C   UNL     1       2.737  -1.057  -2.393  0.00  0.00    +0.024 A 
ATOM     13  C   UNL     1       2.091  -0.604  -1.251  0.00  0.00    +0.047 A 
BRANCH   8  15
ATOM     14  C   UNL     1      -0.019   1.526   0.010  0.00  0.00    +0.009 C 
ATOM     15  C   UNL     1       0.002  -0.004   0.002  0.00  0.00    +0.033 C 
ENDBRANCH   8  15
ENDBRANCH   1  13
BRANCH   5  16
ATOM     16  N   UNL     1       3.420   1.907   2.374  0.00  0.00    -0.333 N 
ATOM     17  H   UNL     1       2.721   1.589   2.966  0.00  0.00    +0.147 HD
BRANCH  16  18
ATOM     18  C   UNL     1       3.824   3.244   2.426  0.00  0.00    +0.028 A 
ATOM     19  C   UNL     1       4.821   3.703   1.574  0.00  0.00    +0.024 A 
ATOM     20  C   UNL     1       5.218   5.025   1.627  0.00  0.00    +0.022 A 
ATOM     21  C   UNL     1       4.624   5.891   2.528  0.00  0.00    +0.041 A 
ATOM     22  C   UNL     1       3.631   5.437   3.378  0.00  0.00    +0.022 A 
ATOM     23  C   UNL     1       3.226   4.117   3.325  0.00  0.00    +0.024 A 
ATOM     24 CL   UNL     1       5.127   7.552   2.593  0.00  0.00    -0.084 Cl
ENDBRANCH  16  18
ENDBRANCH   5  16
TORSDOF 4
