REMARK  Name = ZINC04765413
REMARK  12 active torsions:
REMARK  status: ('A' for Active; 'I' for Inactive)
REMARK    1  A    between atoms: C_1  and  C_2
REMARK    2  A    between atoms: C_7  and  C_19
REMARK    3  A    between atoms: C_9  and  C_13
REMARK    4  A    between atoms: C_10  and  C_12
REMARK    5  A    between atoms: C_13  and  O_15
REMARK    6  A    between atoms: O_15  and  C_16
REMARK    7  A    between atoms: C_16  and  C_17
REMARK    8  A    between atoms: C_16  and  C_18
REMARK    9  A    between atoms: C_22  and  C_25
REMARK   10  A    between atoms: C_33  and  C_35
REMARK   11  A    between atoms: C_35  and  O_37
REMARK   12  A    between atoms: O_37  and  C_38
REMARK                            x       y       z     vdW  Elec       q    Type
REMARK                         _______ _______ _______ _____ _____    ______ ____
ROOT
ATOM      1  C   UNL     1      -7.541  -1.099  -4.798  0.00  0.00    +0.009 C 
ATOM      2  C   UNL     1      -6.711  -1.421  -3.554  0.00  0.00    +0.013 C 
ATOM      3  C   UNL     1      -7.606  -1.391  -2.313  0.00  0.00    +0.055 C 
ATOM      4  C   UNL     1      -6.796  -1.758  -1.094  0.00  0.00    +0.016 C 
ATOM      5  C   UNL     1      -5.743  -2.598  -1.185  0.00  0.00    +0.025 C 
ATOM      6  C   UNL     1      -4.940  -2.962   0.038  0.00  0.00    +0.092 C 
ATOM      7  C   UNL     1      -5.696  -2.642   1.294  0.00  0.00    +0.065 C 
ATOM      8  C   UNL     1      -6.744  -1.800   1.282  0.00  0.00    +0.016 C 
ATOM      9  N   UNL     1      -7.153  -1.220   0.113  0.00  0.00    -0.321 N 
ATOM     10  C   UNL     1      -7.473  -1.495   2.565  0.00  0.00    +0.061 C 
ATOM     11  C   UNL     1      -5.365  -3.156  -2.419  0.00  0.00    +0.176 C 
ATOM     12  O   UNL     1      -4.423  -3.921  -2.465  0.00  0.00    -0.291 OA
ATOM     13  C   UNL     1      -6.108  -2.823  -3.685  0.00  0.00    +0.171 C 
ATOM     14  H   UNL     1      -7.774  -0.313   0.150  0.00  0.00    +0.152 HD
ENDROOT
BRANCH   6  15
ATOM     15  C   UNL     1      -3.647  -2.188   0.028  0.00  0.00    -0.035 A 
ATOM     16  C   UNL     1      -2.440  -2.863   0.011  0.00  0.00    +0.005 A 
ATOM     17  C   UNL     1      -1.252  -2.159   0.003  0.00  0.00    +0.009 A 
ATOM     18  C   UNL     1      -1.271  -0.766   0.011  0.00  0.00    -0.018 A 
ATOM     19  C   UNL     1      -2.490  -0.091   0.032  0.00  0.00    +0.009 A 
ATOM     20  C   UNL     1      -3.671  -0.805   0.035  0.00  0.00    +0.005 A 
BRANCH  18  21
ATOM     21  C   UNL     1       0.002  -0.004   0.002  0.00  0.00    -0.018 A 
ATOM     22  C   UNL     1      -0.017   1.389   0.010  0.00  0.00    +0.008 A 
ATOM     23  C   UNL     1       1.170   2.093   0.002  0.00  0.00    +0.001 A 
ATOM     24  C   UNL     1       2.377   1.418  -0.013  0.00  0.00    +0.000 A 
ATOM     25  C   UNL     1       2.402   0.035  -0.021  0.00  0.00    +0.001 A 
ATOM     26  C   UNL     1       1.221  -0.679  -0.013  0.00  0.00    +0.008 A 
ENDBRANCH  18  21
ENDBRANCH   6  15
BRANCH   7  27
ATOM     27  C   UNL     1      -5.298  -3.237   2.514  0.00  0.00    +0.338 C 
ATOM     28  O   UNL     1      -5.903  -2.986   3.539  0.00  0.00    -0.245 OA
BRANCH  27  29
ATOM     29  O   UNL     1      -4.247  -4.084   2.540  0.00  0.00    -0.459 OA
BRANCH  29  30
ATOM     30  C   UNL     1      -3.901  -4.648   3.806  0.00  0.00    +0.171 C 
ATOM     31  C   UNL     1      -3.284  -6.032   3.596  0.00  0.00    +0.052 C 
ATOM     32  C   UNL     1      -2.890  -3.740   4.510  0.00  0.00    +0.052 C 
ENDBRANCH  29  30
ENDBRANCH  27  29
ENDBRANCH   7  27
BRANCH  13  33
ATOM     33  C   UNL     1      -5.155  -2.855  -4.852  0.00  0.00    +0.318 C 
ATOM     34  O   UNL     1      -4.983  -1.862  -5.518  0.00  0.00    -0.250 OA
BRANCH  33  35
ATOM     35  O   UNL     1      -4.498  -3.987  -5.151  0.00  0.00    -0.467 OA
ATOM     36  C   UNL     1      -3.597  -3.945  -6.289  0.00  0.00    +0.280 C 
ENDBRANCH  33  35
ENDBRANCH  13  33
TORSDOF 7
