REMARK  Name = ZINC47147684
REMARK  9 active torsions:
REMARK  status: ('A' for Active; 'I' for Inactive)
REMARK    1  A    between atoms: C_1  and  C_2
REMARK    2  A    between atoms: C_2  and  O_3
REMARK    3  A    between atoms: O_3  and  C_4
REMARK    4  A    between atoms: C_4  and  C_6
REMARK    5  A    between atoms: C_6  and  O_7
REMARK    6  A    between atoms: O_7  and  C_8
REMARK    7  A    between atoms: C_13  and  C_14
REMARK    8  A    between atoms: N_30  and  C_33
REMARK    9  A    between atoms: C_36  and  C_39
REMARK                            x       y       z     vdW  Elec       q    Type
REMARK                         _______ _______ _______ _____ _____    ______ ____
ROOT
ATOM      1  C   UNL     1      -2.623  -6.672  -0.008  0.00  0.00    +0.075 C 
ATOM      2  C   UNL     1      -2.465  -7.369   1.294  0.00  0.00    +0.033 A 
ATOM      3  C   UNL     1      -2.094  -8.641   1.529  0.00  0.00    +0.088 A 
ATOM      4  N   UNL     1      -2.007  -8.983   2.860  0.00  0.00    -0.311 N 
ATOM      5  H   UNL     1      -1.727  -9.877   3.113  0.00  0.00    +0.170 HD
ATOM      6  C   UNL     1      -2.311  -8.080   3.809  0.00  0.00    +0.289 A 
ATOM      7  O   UNL     1      -2.294  -8.220   5.019  0.00  0.00    -0.260 OA
ATOM      8  S   UNL     1      -2.720  -6.710   2.923  0.00  0.00    -0.030 S 
ATOM      9  S   UNL     1      -1.774  -9.768   0.197  0.00  0.00    -0.093 S 
ATOM     10  C   UNL     1      -1.569  -8.683  -1.251  0.00  0.00    +0.152 C 
ATOM     11  C   UNL     1      -2.595  -7.545  -1.206  0.00  0.00    +0.110 C 
ATOM     12  C   UNL     1      -3.861  -8.194  -1.667  0.00  0.00    +0.232 C 
ATOM     13  O   UNL     1      -4.995  -7.866  -1.389  0.00  0.00    -0.274 OA
ATOM     14  N   UNL     1      -3.482  -9.224  -2.461  0.00  0.00    -0.209 N 
ATOM     15  C   UNL     1      -2.155  -9.471  -2.436  0.00  0.00    +0.240 C 
ATOM     16  O   UNL     1      -1.541 -10.186  -3.199  0.00  0.00    -0.274 OA
ENDROOT
BRANCH  14  17
ATOM     17  C   UNL     1      -4.384  -9.960  -3.243  0.00  0.00    +0.044 A 
ATOM     18  C   UNL     1      -5.735  -9.641  -3.232  0.00  0.00    +0.024 A 
ATOM     19  C   UNL     1      -6.621 -10.367  -4.003  0.00  0.00    +0.005 A 
ATOM     20  C   UNL     1      -6.164 -11.411  -4.786  0.00  0.00    -0.050 A 
ATOM     21  C   UNL     1      -4.819 -11.731  -4.799  0.00  0.00    +0.005 A 
ATOM     22  C   UNL     1      -3.927 -11.004  -4.034  0.00  0.00    +0.024 A 
ATOM     23  C   UNL     1      -7.133 -12.201  -5.627  0.00  0.00    +0.044 C 
ENDBRANCH  14  17
BRANCH   1  29
ATOM     24  C   UNL     1      -4.042  -4.691  -0.596  0.00  0.00    +0.125 A 
ATOM     25  C   UNL     1      -5.255  -4.016  -0.585  0.00  0.00    +0.046 A 
ATOM     26  C   UNL     1      -6.353  -4.583   0.033  0.00  0.00    +0.004 A 
ATOM     27  C   UNL     1      -6.244  -5.821   0.639  0.00  0.00    +0.001 A 
ATOM     28  C   UNL     1      -5.037  -6.495   0.629  0.00  0.00    +0.008 A 
ATOM     29  C   UNL     1      -3.937  -5.935   0.008  0.00  0.00    +0.003 A 
BRANCH  24  30
ATOM     30  O   UNL     1      -2.961  -4.136  -1.204  0.00  0.00    -0.481 OA
BRANCH  30  31
ATOM     31  C   UNL     1      -3.142  -2.852  -1.805  0.00  0.00    +0.349 C 
BRANCH  31  32
ATOM     32  C   UNL     1      -1.845  -2.400  -2.425  0.00  0.00    +0.345 C 
ATOM     33  O   UNL     1      -0.865  -3.104  -2.358  0.00  0.00    -0.247 OA
BRANCH  32  34
ATOM     34  O   UNL     1      -1.777  -1.214  -3.051  0.00  0.00    -0.463 OA
BRANCH  34  36
ATOM     35  C   UNL     1      -0.634   0.523  -4.281  0.00  0.00    +0.048 C 
ATOM     36  C   UNL     1      -0.516  -0.849  -3.615  0.00  0.00    +0.229 C 
ENDBRANCH  34  36
ENDBRANCH  32  34
ENDBRANCH  31  32
ENDBRANCH  30  31
ENDBRANCH  24  30
ENDBRANCH   1  29
TORSDOF 7
