REMARK  Name = ZINC15967923
REMARK  5 active torsions:
REMARK  status: ('A' for Active; 'I' for Inactive)
REMARK    1  A    between atoms: C_1  and  C_2
REMARK    2  A    between atoms: C_5  and  C_8
REMARK    3  A    between atoms: C_8  and  C_10
REMARK    4  A    between atoms: C_31  and  C_39
REMARK    5  A    between atoms: C_33  and  C_38
REMARK                            x       y       z     vdW  Elec       q    Type
REMARK                         _______ _______ _______ _____ _____    ______ ____
ROOT
ATOM      1  C   UNL     1       0.075  -5.006   1.280  0.00  0.00    +0.099 C 
ATOM      2  C   UNL     1      -1.361  -5.254   1.775  0.00  0.00    +0.070 C 
ATOM      3  C   UNL     1      -2.349  -5.024   0.614  0.00  0.00    +0.021 C 
ATOM      4  C   UNL     1      -3.379  -6.169   0.803  0.00  0.00    +0.017 C 
ATOM      5  C   UNL     1      -2.475  -7.324   1.300  0.00  0.00    +0.086 C 
ATOM      6  N   UNL     1      -1.463  -6.672   2.179  0.00  0.00    -0.281 NA
ATOM      7  C   UNL     1      -0.150  -7.306   2.002  0.00  0.00    +0.145 C 
ATOM      8  C   UNL     1       0.661  -6.408   1.072  0.00  0.00    +0.116 C 
ATOM      9  C   UNL     1       2.129  -6.445   1.389  0.00  0.00    -0.008 A 
ATOM     10  C   UNL     1       2.863  -6.159   2.518  0.00  0.00    +0.006 A 
ATOM     11  C   UNL     1       4.240  -6.295   2.502  0.00  0.00    +0.000 A 
ATOM     12  C   UNL     1       4.876  -6.716   1.348  0.00  0.00    +0.002 A 
ATOM     13  C   UNL     1       4.145  -7.002   0.214  0.00  0.00    +0.023 A 
ATOM     14  C   UNL     1       2.759  -6.869   0.222  0.00  0.00    +0.038 A 
ATOM     15  N   UNL     1       1.814  -7.091  -0.783  0.00  0.00    -0.284 N 
ATOM     16  C   UNL     1       0.558  -6.843  -0.363  0.00  0.00    +0.231 C 
ATOM     17  O   UNL     1      -0.458  -6.949  -1.017  0.00  0.00    -0.274 OA
ATOM     18  C   UNL     1       0.545  -7.498   3.323  0.00  0.00    +0.005 A 
ATOM     19  C   UNL     1       0.954  -6.629   4.310  0.00  0.00    +0.011 A 
ATOM     20  C   UNL     1       1.585  -7.115   5.441  0.00  0.00    -0.050 A 
ATOM     21  C   UNL     1       1.804  -8.474   5.578  0.00  0.00    +0.008 A 
ATOM     22  C   UNL     1       1.396  -9.348   4.592  0.00  0.00    -0.029 A 
ATOM     23  C   UNL     1       0.759  -8.867   3.449  0.00  0.00    +0.042 A 
ATOM     24  N   UNL     1       0.260  -9.539   2.332  0.00  0.00    -0.283 N 
ATOM     25  C   UNL     1      -0.290  -8.697   1.437  0.00  0.00    +0.244 C 
ATOM     26  O   UNL     1      -0.801  -8.999   0.380  0.00  0.00    -0.273 OA
ATOM     27  C   UNL     1       1.639 -10.826   4.750  0.00  0.00    +0.045 C 
ATOM     28  C   UNL     1       2.034  -6.165   6.522  0.00  0.00    +0.044 C 
ATOM     29  H   UNL     1       2.037  -7.391  -1.678  0.00  0.00    +0.155 HD
ATOM     30  H   UNL     1       0.305 -10.500   2.213  0.00  0.00    +0.155 HD
ENDROOT
BRANCH   1  31
ATOM     31  C   UNL     1       0.058  -4.245  -0.021  0.00  0.00    +0.169 C 
ATOM     32  O   UNL     1      -0.054  -4.842  -1.071  0.00  0.00    -0.292 OA
BRANCH  31  37
ATOM     33  C   UNL     1       0.524   1.484  -0.007  0.00  0.00    +0.044 C 
ATOM     34  C   UNL     1       0.402  -0.018  -0.011  0.00  0.00    -0.050 A 
ATOM     35  C   UNL     1       0.275  -0.695  -1.211  0.00  0.00    +0.004 A 
ATOM     36  C   UNL     1       0.163  -2.069  -1.223  0.00  0.00    +0.011 A 
ATOM     37  C   UNL     1       0.178  -2.779  -0.018  0.00  0.00    +0.018 A 
ATOM     38  C   UNL     1       0.307  -2.087   1.191  0.00  0.00    +0.011 A 
ATOM     39  C   UNL     1       0.423  -0.713   1.186  0.00  0.00    +0.004 A 
ENDBRANCH  31  37
ENDBRANCH   1  31
TORSDOF 2
