REMARK  Name = ZINC20991192
REMARK  13 active torsions:
REMARK  status: ('A' for Active; 'I' for Inactive)
REMARK    1  A    between atoms: C_1  and  C_2
REMARK    2  A    between atoms: C_2  and  C_3
REMARK    3  A    between atoms: C_3  and  N_4
REMARK    4  A    between atoms: C_5  and  O_26
REMARK    5  A    between atoms: C_8  and  S_9
REMARK    6  A    between atoms: S_9  and  C_10
REMARK    7  A    between atoms: C_10  and  C_12
REMARK    8  A    between atoms: C_10  and  C_13
REMARK    9  A    between atoms: N_15  and  C_16
REMARK   10  A    between atoms: C_19  and  C_22
REMARK   11  A    between atoms: C_22  and  C_23
REMARK   12  A    between atoms: C_22  and  C_24
REMARK   13  A    between atoms: C_22  and  C_25
REMARK                            x       y       z     vdW  Elec       q    Type
REMARK                         _______ _______ _______ _____ _____    ______ ____
ROOT
ATOM      1  C   UNL     1      -0.011   1.502  -0.005  0.00  0.00    +0.230 C 
ATOM      2  O   UNL     1       1.032   2.121  -0.004  0.00  0.00    -0.274 OA
ATOM      3  N   UNL     1      -1.187   2.162  -0.003  0.00  0.00    -0.285 N 
ATOM      4  H   UNL     1      -2.131   1.603  -0.086  0.00  0.00    +0.155 HD
ENDROOT
BRANCH   3   5
ATOM      5  C   UNL     1      -1.206   3.556   0.105  0.00  0.00    +0.033 A 
ATOM      6  C   UNL     1      -2.230   4.186   0.800  0.00  0.00    +0.023 A 
ATOM      7  C   UNL     1      -2.243   5.563   0.910  0.00  0.00    +0.006 A 
ATOM      8  C   UNL     1      -1.244   6.315   0.319  0.00  0.00    -0.042 A 
ATOM      9  C   UNL     1      -0.226   5.691  -0.378  0.00  0.00    +0.006 A 
ATOM     10  C   UNL     1      -0.204   4.314  -0.487  0.00  0.00    +0.023 A 
BRANCH   8  11
ATOM     11  C   UNL     1      -1.265   7.817   0.435  0.00  0.00    -0.013 C 
ATOM     12  C   UNL     1      -1.339   8.436  -0.962  0.00  0.00    +0.015 C 
ATOM     13  C   UNL     1      -2.486   8.249   1.250  0.00  0.00    +0.015 C 
ATOM     14  C   UNL     1       0.010   8.292   1.136  0.00  0.00    +0.015 C 
ENDBRANCH   8  11
ENDBRANCH   3   5
BRANCH   1  15
ATOM     15  C   UNL     1       0.007  -0.005  -0.017  0.00  0.00    +0.137 C 
ATOM     16  C   UNL     1      -0.117  -0.506  -1.457  0.00  0.00    +0.029 C 
BRANCH  15  17
ATOM     17  S   UNL     1       1.566  -0.596   0.697  0.00  0.00    -0.073 S 
BRANCH  17  22
ATOM     18  N   UNL     1       2.297  -3.243   1.208  0.00  0.00    -0.272 N 
ATOM     19  C   UNL     1       1.772  -4.496   1.076  0.00  0.00    +0.317 A 
ATOM     20  N   UNL     1       0.576  -4.382   0.559  0.00  0.00    -0.091 NA
ATOM     21  N   UNL     1       0.320  -3.019   0.355  0.00  0.00    -0.119 NA
ATOM     22  C   UNL     1       1.374  -2.347   0.750  0.00  0.00    +0.195 A 
BRANCH  19  23
ATOM     23  O   UNL     1       2.384  -5.656   1.422  0.00  0.00    -0.479 OA
ATOM     24  H   UNL     1       1.867  -6.616   1.272  0.00  0.00    +0.295 HD
ENDBRANCH  19  23
BRANCH  18  25
ATOM     25  C   UNL     1       3.620  -2.916   1.747  0.00  0.00    +0.128 C 
BRANCH  25  27
ATOM     26  C   UNL     1       4.899  -2.364   3.821  0.00  0.00    +0.005 C 
ATOM     27  C   UNL     1       3.517  -2.705   3.259  0.00  0.00    +0.018 C 
ENDBRANCH  25  27
ENDBRANCH  18  25
ENDBRANCH  17  22
ENDBRANCH  15  17
ENDBRANCH   1  15
TORSDOF 8
