REMARK  Name = ZINC20271045
REMARK  10 active torsions:
REMARK  status: ('A' for Active; 'I' for Inactive)
REMARK    1  A    between atoms: C_1  and  C_2
REMARK    2  A    between atoms: C_9  and  C_21
REMARK    3  A    between atoms: C_10  and  N_12
REMARK    4  A    between atoms: C_18  and  C_20
REMARK    5  A    between atoms: C_21  and  N_22
REMARK    6  A    between atoms: N_22  and  C_23
REMARK    7  A    between atoms: C_23  and  C_24
REMARK    8  A    between atoms: C_24  and  C_25
REMARK    9  A    between atoms: C_31  and  C_33
REMARK   10  A    between atoms: C_33  and  C_34
REMARK                            x       y       z     vdW  Elec       q    Type
REMARK                         _______ _______ _______ _____ _____    ______ ____
ROOT
ATOM      1  C   UNL     1       0.486   3.534  -8.068  0.00  0.00    +0.044 C 
ATOM      2  C   UNL     1      -0.530   3.796  -6.986  0.00  0.00    -0.050 A 
ATOM      3  C   UNL     1      -1.767   3.156  -7.035  0.00  0.00    +0.005 A 
ATOM      4  C   UNL     1      -2.707   3.371  -6.074  0.00  0.00    +0.026 A 
ATOM      5  C   UNL     1      -2.431   4.250  -5.013  0.00  0.00    +0.048 A 
ATOM      6  C   UNL     1      -1.173   4.899  -4.965  0.00  0.00    -0.001 A 
ATOM      7  C   UNL     1      -0.228   4.655  -5.973  0.00  0.00    +0.013 A 
ATOM      8  C   UNL     1      -0.896   5.782  -3.901  0.00  0.00    +0.018 A 
ATOM      9  C   UNL     1      -1.859   5.977  -2.957  0.00  0.00    +0.008 A 
ATOM     10  C   UNL     1      -3.083   5.300  -3.057  0.00  0.00    +0.104 A 
ATOM     11  N   UNL     1      -3.336   4.478  -4.054  0.00  0.00    -0.343 N 
ATOM     12  H   UNL     1      -4.314   3.974  -4.090  0.00  0.00    +0.167 HD
ENDROOT
BRANCH  10  13
ATOM     13  N   UNL     1      -4.051   5.505  -2.086  0.00  0.00    -0.313 N 
ATOM     14  C   UNL     1      -4.951   4.348  -1.987  0.00  0.00    +0.125 C 
ATOM     15  C   UNL     1      -5.888   4.535  -0.789  0.00  0.00    +0.126 C 
ATOM     16  N   UNL     1      -6.561   5.837  -0.915  0.00  0.00    -0.299 N 
ATOM     17  C   UNL     1      -5.731   7.027  -1.159  0.00  0.00    +0.126 C 
ATOM     18  C   UNL     1      -4.801   6.742  -2.343  0.00  0.00    +0.125 C 
ATOM     19  C   UNL     1      -7.901   5.935  -0.815  0.00  0.00    +0.213 C 
ATOM     20  O   UNL     1      -8.560   4.962  -0.516  0.00  0.00    -0.276 OA
ATOM     21  C   UNL     1      -8.581   7.255  -1.073  0.00  0.00    +0.109 C 
ENDBRANCH  10  13
BRANCH   9  22
ATOM     22  C   UNL     1      -1.607   6.915  -1.805  0.00  0.00    +0.146 C 
BRANCH  22  23
ATOM     23  N   UNL     1      -0.223   7.391  -1.856  0.00  0.00    -0.296 N 
ATOM     24  C   UNL     1       0.763   6.658  -1.301  0.00  0.00    +0.220 C 
ATOM     25  O   UNL     1       1.895   7.093  -1.264  0.00  0.00    -0.275 OA
BRANCH  23  26
ATOM     26  C   UNL     1       0.091   8.664  -2.511  0.00  0.00    +0.112 C 
BRANCH  26  27
ATOM     27  C   UNL     1       0.009   9.798  -1.487  0.00  0.00    +0.049 C 
BRANCH  27  28
ATOM     28  C   UNL     1       0.332  11.107  -2.161  0.00  0.00    -0.072 C 
ATOM     29  C   UNL     1      -0.654  11.826  -2.593  0.00  0.00    -0.028 C 
ATOM     30  C   UNL     1      -0.490  13.144  -3.291  0.00  0.00    +0.027 C 
ATOM     31  C   UNL     1       0.913  13.702  -3.042  0.00  0.00    +0.004 C 
ATOM     32  C   UNL     1       1.934  12.597  -3.338  0.00  0.00    +0.005 C 
ATOM     33  C   UNL     1       1.775  11.498  -2.283  0.00  0.00    +0.030 C 
ENDBRANCH  27  28
ENDBRANCH  26  27
ENDBRANCH  23  26
BRANCH  24  34
ATOM     34  C   UNL     1       0.459   5.298  -0.727  0.00  0.00    +0.131 C 
BRANCH  34  35
ATOM     35  C   UNL     1       1.694   4.745  -0.065  0.00  0.00    -0.032 A 
ATOM     36  C   UNL     1       2.641   4.063  -0.805  0.00  0.00    +0.011 A 
ATOM     37  C   UNL     1       3.744   3.583  -0.180  0.00  0.00    +0.045 A 
ATOM     38  S   UNL     1       3.456   4.081   1.510  0.00  0.00    -0.105 S 
ATOM     39  C   UNL     1       1.890   4.903   1.267  0.00  0.00    +0.049 A 
ENDBRANCH  34  35
ENDBRANCH  24  34
ENDBRANCH  22  23
ENDBRANCH   9  22
TORSDOF 8
