REMARK  Name = ZINC34857970
REMARK  2 active torsions:
REMARK  status: ('A' for Active; 'I' for Inactive)
REMARK    1  A    between atoms: N_18  and  C_21
REMARK    2  A    between atoms: C_21  and  C_22
REMARK                            x       y       z     vdW  Elec       q    Type
REMARK                         _______ _______ _______ _____ _____    ______ ____
ROOT
ATOM      1  C   UNL     1       0.756   0.159  -1.164  0.00  0.00    +0.224 A 
ATOM      2  N   UNL     1       1.848   0.902  -1.132  0.00  0.00    -0.220 NA
ATOM      3  C   UNL     1       2.295   1.449  -0.013  0.00  0.00    +0.133 A 
ATOM      4  C   UNL     1       1.579   1.231   1.197  0.00  0.00    +0.051 A 
ATOM      5  C   UNL     1       1.884   1.732   2.542  0.00  0.00    -0.025 A 
ATOM      6  C   UNL     1       1.039   1.371   3.529  0.00  0.00    -0.004 A 
ATOM      7  S   UNL     1      -0.198   0.372   2.741  0.00  0.00    -0.073 S 
ATOM      8  C   UNL     1       0.427   0.429   1.083  0.00  0.00    +0.114 A 
ATOM      9  N   UNL     1       0.051  -0.078  -0.075  0.00  0.00    -0.228 NA
ATOM     10  C   UNL     1       1.122   1.722   4.982  0.00  0.00    +0.043 C 
ATOM     11  C   UNL     1       1.347   3.232   5.128  0.00  0.00    +0.005 C 
ATOM     12  C   UNL     1       2.849   3.496   5.132  0.00  0.00    +0.001 C 
ATOM     13  C   UNL     1       3.560   2.482   4.238  0.00  0.00    +0.005 C 
ATOM     14  C   UNL     1       3.096   2.625   2.793  0.00  0.00    +0.037 C 
ATOM     15  N   UNL     1       3.442   2.221  -0.019  0.00  0.00    -0.318 N 
ATOM     16  C   UNL     1       4.773   1.601   0.068  0.00  0.00    +0.088 C 
ATOM     17  C   UNL     1       5.646   2.163  -1.058  0.00  0.00    -0.059 C 
ATOM     18  N   UNL     1       5.656   3.629  -0.984  0.00  0.00    +0.386 N 
ATOM     19  C   UNL     1       4.306   4.151  -1.232  0.00  0.00    -0.059 C 
ATOM     20  C   UNL     1       3.366   3.687  -0.119  0.00  0.00    +0.088 C 
ATOM     21  H   UNL     1       5.962   3.916  -0.066  0.00  0.00    -0.081 HD
ENDROOT
BRANCH  18  22
ATOM     22  C   UNL     1       6.579   4.163  -1.994  0.00  0.00    -0.003 C 
BRANCH  22  23
ATOM     23  C   UNL     1       6.683   5.659  -1.838  0.00  0.00    +0.095 A 
ATOM     24  N   UNL     1       6.000   6.247  -0.896  0.00  0.00    -0.197 NA
ATOM     25  C   UNL     1       6.041   7.573  -0.697  0.00  0.00    +0.282 A 
ATOM     26  O   UNL     1       5.387   8.087   0.197  0.00  0.00    -0.265 OA
ATOM     27  C   UNL     1       6.894   8.403  -1.577  0.00  0.00    +0.075 A 
ATOM     28  C   UNL     1       7.099   9.851  -1.556  0.00  0.00    -0.023 A 
ATOM     29  C   UNL     1       7.939  10.363  -2.480  0.00  0.00    -0.004 A 
ATOM     30  S   UNL     1       8.495   8.963  -3.416  0.00  0.00    -0.075 S 
ATOM     31  C   UNL     1       7.595   7.699  -2.560  0.00  0.00    +0.092 A 
ATOM     32  N   UNL     1       7.486   6.350  -2.673  0.00  0.00    -0.339 N 
ATOM     33  C   UNL     1       8.314  11.800  -2.670  0.00  0.00    +0.043 C 
ATOM     34  C   UNL     1       7.315  12.668  -1.891  0.00  0.00    +0.005 C 
ATOM     35  C   UNL     1       7.158  12.091  -0.481  0.00  0.00    +0.005 C 
ATOM     36  C   UNL     1       6.407  10.761  -0.545  0.00  0.00    +0.037 C 
ATOM     37  H   UNL     1       7.984   5.881  -3.360  0.00  0.00    +0.167 HD
ENDBRANCH  22  23
ENDBRANCH  18  22
TORSDOF 2
