REMARK  Name = ZINC20232351
REMARK  11 active torsions:
REMARK  status: ('A' for Active; 'I' for Inactive)
REMARK    1  A    between atoms: C_1  and  C_2
REMARK    2  A    between atoms: C_2  and  C_3
REMARK    3  A    between atoms: C_2  and  C_4
REMARK    4  A    between atoms: C_7  and  N_10
REMARK    5  A    between atoms: C_11  and  C_13
REMARK    6  A    between atoms: C_13  and  C_15
REMARK    7  A    between atoms: C_13  and  N_22
REMARK    8  A    between atoms: C_15  and  C_16
REMARK    9  A    between atoms: N_22  and  S_23
REMARK   10  A    between atoms: S_23  and  C_26
REMARK   11  A    between atoms: C_35  and  C_37
REMARK                            x       y       z     vdW  Elec       q    Type
REMARK                         _______ _______ _______ _____ _____    ______ ____
ROOT
ATOM      1  C   UNL     1       1.108   1.637  -0.264  0.00  0.00    +0.167 C 
ENDROOT
BRANCH   1   3
ATOM      2  N   UNL     1       3.452   1.152   0.362  0.00  0.00    -0.284 N 
ATOM      3  C   UNL     1       2.143   0.872   0.521  0.00  0.00    +0.236 C 
ATOM      4  O   UNL     1       1.798   0.005   1.295  0.00  0.00    -0.274 OA
ATOM      5  H   UNL     1       3.770   1.880  -0.399  0.00  0.00    +0.155 HD
BRANCH   2   9
ATOM      6  C   UNL     1       6.291  -0.739   2.753  0.00  0.00    -0.045 A 
ATOM      7  C   UNL     1       5.161  -1.426   2.350  0.00  0.00    +0.006 A 
ATOM      8  C   UNL     1       4.218  -0.802   1.557  0.00  0.00    +0.023 A 
ATOM      9  C   UNL     1       4.405   0.517   1.165  0.00  0.00    +0.033 A 
ATOM     10  C   UNL     1       5.544   1.203   1.568  0.00  0.00    +0.023 A 
ATOM     11  C   UNL     1       6.481   0.575   2.365  0.00  0.00    +0.006 A 
BRANCH   6  13
ATOM     12  C   UNL     1       8.665  -1.442   2.893  0.00  0.00    +0.012 C 
ATOM     13  C   UNL     1       7.318  -1.423   3.618  0.00  0.00    +0.013 C 
ATOM     14  C   UNL     1       7.461  -0.663   4.939  0.00  0.00    +0.012 C 
ENDBRANCH   6  13
ENDBRANCH   2   9
ENDBRANCH   1   3
BRANCH   1  15
ATOM     15  N   UNL     1      -0.228   1.149   0.085  0.00  0.00    -0.178 NA
ATOM     16  H   UNL     1      -0.712   0.380  -0.535  0.00  0.00    +0.149 HD
BRANCH  15  17
ATOM     17  S   UNL     1      -1.112   1.919   1.254  0.00  0.00    +0.059 S 
ATOM     18  O   UNL     1      -2.349   1.227   1.351  0.00  0.00    -0.153 OA
ATOM     19  O   UNL     1      -0.247   2.093   2.368  0.00  0.00    -0.153 OA
BRANCH  17  20
ATOM     20  C   UNL     1      -1.484   3.532   0.648  0.00  0.00    +0.106 A 
ATOM     21  C   UNL     1      -2.686   3.772   0.008  0.00  0.00    +0.030 A 
ATOM     22  C   UNL     1      -2.979   5.032  -0.468  0.00  0.00    +0.026 A 
ATOM     23  C   UNL     1      -2.066   6.075  -0.307  0.00  0.00    +0.040 A 
ATOM     24  C   UNL     1      -0.864   5.825   0.337  0.00  0.00    -0.023 A 
ATOM     25  C   UNL     1      -0.577   4.561   0.817  0.00  0.00    +0.034 A 
ATOM     26  C   UNL     1      -0.065   7.107   0.379  0.00  0.00    +0.056 C 
ATOM     27  C   UNL     1      -0.956   8.143  -0.324  0.00  0.00    +0.118 C 
ATOM     28  N   UNL     1      -2.166   7.411  -0.710  0.00  0.00    -0.271 N 
ATOM     29  C   UNL     1      -3.219   7.945  -1.358  0.00  0.00    +0.217 C 
ATOM     30  O   UNL     1      -4.177   7.253  -1.633  0.00  0.00    -0.276 OA
ATOM     31  C   UNL     1      -3.208   9.403  -1.740  0.00  0.00    +0.109 C 
ENDBRANCH  17  20
ENDBRANCH  15  17
ENDBRANCH   1  15
BRANCH   1  32
ATOM     32  C   UNL     1       1.351   1.433  -1.761  0.00  0.00    +0.065 C 
BRANCH  32  33
ATOM     33  C   UNL     1       0.364   2.259  -2.546  0.00  0.00    -0.045 A 
ATOM     34  C   UNL     1      -0.890   1.752  -2.829  0.00  0.00    +0.004 A 
ATOM     35  C   UNL     1      -1.797   2.511  -3.546  0.00  0.00    +0.000 A 
ATOM     36  C   UNL     1      -1.445   3.772  -3.988  0.00  0.00    +0.000 A 
ATOM     37  C   UNL     1      -0.188   4.277  -3.710  0.00  0.00    +0.000 A 
ATOM     38  C   UNL     1       0.716   3.520  -2.989  0.00  0.00    +0.004 A 
ENDBRANCH  32  33
ENDBRANCH   1  32
TORSDOF 8
