REMARK  Name = ZINC12745995
REMARK  10 active torsions:
REMARK  status: ('A' for Active; 'I' for Inactive)
REMARK    1  A    between atoms: C_1  and  C_2
REMARK    2  A    between atoms: C_2  and  N_3
REMARK    3  A    between atoms: C_4  and  C_32
REMARK    4  A    between atoms: C_5  and  C_9
REMARK    5  A    between atoms: C_6  and  C_8
REMARK    6  A    between atoms: C_9  and  N_10
REMARK    7  A    between atoms: C_11  and  C_13
REMARK    8  A    between atoms: C_13  and  C_14
REMARK    9  A    between atoms: C_21  and  C_22
REMARK   10  A    between atoms: C_21  and  N_63
REMARK                            x       y       z     vdW  Elec       q    Type
REMARK                         _______ _______ _______ _____ _____    ______ ____
ROOT
ATOM      1  C   UNL     1       1.798   2.800   0.418  0.00  0.00    +0.028 C 
ATOM      2  C   UNL     1       2.066   1.414   0.933  0.00  0.00    +0.200 C 
ATOM      3  O   UNL     1       3.211   1.015   0.958  0.00  0.00    -0.278 OA
ATOM      4  N   UNL     1       1.095   0.602   1.365  0.00  0.00    -0.318 N 
ATOM      5  C   UNL     1      -0.310   0.996   1.405  0.00  0.00    +0.085 C 
ATOM      6  C   UNL     1      -0.540   2.215   0.512  0.00  0.00    -0.058 C 
ATOM      7  H   UNL     1       1.335  -0.290   1.661  0.00  0.00    +0.149 HD
ATOM      8  N   UNL     1       0.462   3.240   0.864  0.00  0.00    +0.391 N 
ATOM      9  H   UNL     1       0.472   3.364   1.883  0.00  0.00    -0.080 HD
ENDROOT
BRANCH   1  10
ATOM     10  C   UNL     1       2.848   3.761   0.977  0.00  0.00    +0.089 C 
BRANCH  10  12
ATOM     11  N   UNL     1       3.725   4.412   3.196  0.00  0.00    -0.311 N 
ATOM     12  C   UNL     1       2.805   3.733   2.483  0.00  0.00    +0.212 C 
ATOM     13  O   UNL     1       1.942   3.100   3.053  0.00  0.00    -0.276 OA
ATOM     14  H   UNL     1       4.378   4.968   2.742  0.00  0.00    +0.149 HD
BRANCH  11  15
ATOM     15  C   UNL     1       3.738   4.313   4.658  0.00  0.00    +0.143 C 
BRANCH  15  18
ATOM     16  N   UNL     1       6.926   5.614   5.858  0.00  0.00    -0.268 N 
ATOM     17  C   UNL     1       6.176   4.620   5.337  0.00  0.00    +0.041 A 
ATOM     18  C   UNL     1       4.912   5.084   5.203  0.00  0.00    +0.013 A 
ATOM     19  C   UNL     1       4.886   6.404   5.666  0.00  0.00    +0.065 A 
ATOM     20  N   UNL     1       6.093   6.723   6.059  0.00  0.00    -0.176 NA
ATOM     21  C   UNL     1       3.678   7.303   5.706  0.00  0.00    +0.068 C 
ATOM     22  C   UNL     1       6.661   3.242   4.968  0.00  0.00    +0.065 C 
BRANCH  16  24
ATOM     23  C   UNL     1       8.547   5.049   7.600  0.00  0.00    +0.029 C 
ATOM     24  C   UNL     1       8.357   5.545   6.165  0.00  0.00    +0.140 C 
ENDBRANCH  16  24
ENDBRANCH  15  18
ENDBRANCH  11  15
ENDBRANCH  10  12
ENDBRANCH   1  10
BRANCH   8  25
ATOM     25  C   UNL     1       0.115   4.530   0.225  0.00  0.00    -0.041 C 
BRANCH  25  26
ATOM     26  C   UNL     1      -1.192   5.022   0.792  0.00  0.00    -0.056 A 
ATOM     27  C   UNL     1      -2.329   4.952   0.047  0.00  0.00    +0.002 A 
ATOM     28  C   UNL     1      -3.548   5.396   0.557  0.00  0.00    +0.001 A 
ATOM     29  C   UNL     1      -3.635   5.923   1.809  0.00  0.00    +0.008 A 
ATOM     30  C   UNL     1      -2.480   6.016   2.605  0.00  0.00    -0.018 A 
ATOM     31  C   UNL     1      -1.242   5.559   2.089  0.00  0.00    -0.017 A 
ATOM     32  C   UNL     1      -0.087   5.654   2.885  0.00  0.00    +0.009 A 
ATOM     33  C   UNL     1      -0.174   6.181   4.137  0.00  0.00    +0.001 A 
ATOM     34  C   UNL     1      -1.392   6.631   4.644  0.00  0.00    +0.001 A 
ATOM     35  C   UNL     1      -2.530   6.555   3.902  0.00  0.00    +0.008 A 
ENDBRANCH  25  26
ENDBRANCH   8  25
TORSDOF 7
