REMARK  Name = ZINC09807618
REMARK  9 active torsions:
REMARK  status: ('A' for Active; 'I' for Inactive)
REMARK    1  A    between atoms: C_1  and  C_2
REMARK    2  A    between atoms: C_2  and  O_3
REMARK    3  A    between atoms: O_3  and  C_4
REMARK    4  A    between atoms: C_4  and  C_6
REMARK    5  A    between atoms: N_9  and  C_12
REMARK    6  A    between atoms: C_12  and  C_14
REMARK    7  A    between atoms: C_12  and  C_21
REMARK    8  A    between atoms: C_22  and  O_34
REMARK    9  A    between atoms: C_27  and  C_29
REMARK                            x       y       z     vdW  Elec       q    Type
REMARK                         _______ _______ _______ _____ _____    ______ ____
ROOT
ATOM      1  C   UNL     1       4.369  -4.570  -4.747  0.00  0.00    +0.007 C 
ENDROOT
BRANCH   1   2
ATOM      2  C   UNL     1       5.796  -4.089  -4.699  0.00  0.00    +0.045 A 
ATOM      3  C   UNL     1       6.515  -3.483  -5.651  0.00  0.00    +0.225 A 
ATOM      4  N   UNL     1       7.817  -3.114  -5.418  0.00  0.00    -0.173 N 
ATOM      5  C   UNL     1       8.332  -3.392  -4.182  0.00  0.00    +0.199 A 
ATOM      6  S   UNL     1       6.967  -4.171  -3.353  0.00  0.00    -0.050 S 
ATOM      7  N   UNL     1       9.568  -2.982  -4.118  0.00  0.00    -0.197 NA
ATOM      8  C   UNL     1       9.912  -2.427  -5.288  0.00  0.00    +0.218 A 
ATOM      9  N   UNL     1       8.885  -2.483  -6.108  0.00  0.00    -0.138 NA
BRANCH   8  10
ATOM     10  C   UNL     1      11.233  -1.846  -5.606  0.00  0.00    +0.173 A 
ATOM     11  C   UNL     1      12.302  -1.788  -4.769  0.00  0.00    +0.053 A 
ATOM     12  C   UNL     1      13.342  -1.157  -5.480  0.00  0.00    +0.042 A 
ATOM     13  C   UNL     1      12.861  -0.864  -6.704  0.00  0.00    +0.196 A 
ATOM     14  O   UNL     1      11.588  -1.286  -6.779  0.00  0.00    -0.460 OA
ENDBRANCH   8  10
BRANCH   3  15
ATOM     15  O   UNL     1       5.950  -3.232  -6.863  0.00  0.00    -0.492 OA
ATOM     16  H   UNL     1       6.542  -2.792  -7.489  0.00  0.00    +0.294 HD
ENDBRANCH   3  15
ENDBRANCH   1   2
BRANCH   1  20
ATOM     17  C   UNL     1       1.468  -2.353  -2.550  0.00  0.00    +0.094 C 
ATOM     18  C   UNL     1       2.921  -1.871  -2.579  0.00  0.00    -0.004 C 
ATOM     19  C   UNL     1       3.640  -2.506  -3.772  0.00  0.00    -0.077 C 
ATOM     20  N   UNL     1       3.611  -3.968  -3.642  0.00  0.00    +0.388 N 
ATOM     21  C   UNL     1       2.223  -4.444  -3.685  0.00  0.00    -0.077 C 
ATOM     22  C   UNL     1       1.450  -3.884  -2.490  0.00  0.00    -0.004 C 
ATOM     23  H   UNL     1       4.030  -4.235  -2.764  0.00  0.00    -0.080 HD
BRANCH  17  24
ATOM     24  C   UNL     1       0.775  -1.794  -1.334  0.00  0.00    +0.310 C 
ATOM     25  O   UNL     1       0.314  -2.540  -0.504  0.00  0.00    -0.251 OA
BRANCH  24  26
ATOM     26  O   UNL     1       0.671  -0.465  -1.174  0.00  0.00    -0.465 OA
BRANCH  26  28
ATOM     27  C   UNL     1      -0.019   1.526   0.010  0.00  0.00    +0.048 C 
ATOM     28  C   UNL     1       0.002  -0.004   0.002  0.00  0.00    +0.229 C 
ENDBRANCH  26  28
ENDBRANCH  24  26
ENDBRANCH  17  24
ENDBRANCH   1  20
BRANCH   1  29
ATOM     29  C   UNL     1       4.340  -6.071  -4.616  0.00  0.00    -0.038 A 
ATOM     30  C   UNL     1       4.039  -6.653  -3.398  0.00  0.00    +0.004 A 
ATOM     31  C   UNL     1       4.013  -8.030  -3.278  0.00  0.00    +0.000 A 
ATOM     32  C   UNL     1       4.288  -8.826  -4.375  0.00  0.00    +0.001 A 
ATOM     33  C   UNL     1       4.588  -8.245  -5.592  0.00  0.00    +0.020 A 
ATOM     34  C   UNL     1       4.609  -6.867  -5.715  0.00  0.00    +0.043 A 
ATOM     35 CL   UNL     1       4.981  -6.137  -7.245  0.00  0.00    -0.083 Cl
ENDBRANCH   1  29
TORSDOF 8
