REMARK  Name = ZINC36740749
REMARK  5 active torsions:
REMARK  status: ('A' for Active; 'I' for Inactive)
REMARK    1  A    between atoms: C_4  and  C_7
REMARK    2  A    between atoms: C_7  and  C_9
REMARK    3  A    between atoms: C_13  and  N_14
REMARK    4  A    between atoms: C_15  and  C_17
REMARK    5  A    between atoms: C_17  and  N_18
REMARK                            x       y       z     vdW  Elec       q    Type
REMARK                         _______ _______ _______ _____ _____    ______ ____
ROOT
ATOM      1  N   UNL     1       1.119  -2.236  -0.124  0.00  0.00    -0.278 N 
ATOM      2  C   UNL     1       0.028  -3.024  -0.059  0.00  0.00    +0.236 C 
ATOM      3  O   UNL     1       0.152  -4.226   0.035  0.00  0.00    -0.274 OA
ATOM      4  H   UNL     1       1.019  -1.274  -0.200  0.00  0.00    +0.155 HD
ENDROOT
BRANCH   1   9
ATOM      5  C   UNL     1       3.609  -2.147  -0.033  0.00  0.00    +0.054 A 
ATOM      6  C   UNL     1       4.800  -2.977   0.009  0.00  0.00    -0.024 A 
ATOM      7  C   UNL     1       4.551  -4.304  -0.014  0.00  0.00    -0.005 A 
ATOM      8  S   UNL     1       2.788  -4.429  -0.088  0.00  0.00    -0.077 S 
ATOM      9  C   UNL     1       2.384  -2.800  -0.084  0.00  0.00    +0.083 A 
ATOM     10  C   UNL     1       5.561  -5.409   0.015  0.00  0.00    +0.043 C 
ATOM     11  C   UNL     1       6.939  -4.812  -0.304  0.00  0.00    +0.005 C 
ATOM     12  C   UNL     1       7.148  -3.561   0.554  0.00  0.00    +0.005 C 
ATOM     13  C   UNL     1       6.223  -2.441   0.074  0.00  0.00    +0.037 C 
BRANCH   5  14
ATOM     14  C   UNL     1       3.695  -0.685  -0.015  0.00  0.00    +0.196 C 
ATOM     15  O   UNL     1       3.781  -0.093   1.045  0.00  0.00    -0.287 OA
BRANCH  14  19
ATOM     16  C   UNL     1       3.650   1.489  -3.665  0.00  0.00    +0.000 A 
ATOM     17  C   UNL     1       3.636   2.167  -2.459  0.00  0.00    +0.001 A 
ATOM     18  C   UNL     1       3.651   1.467  -1.270  0.00  0.00    +0.012 A 
ATOM     19  C   UNL     1       3.679   0.072  -1.286  0.00  0.00    +0.022 A 
ATOM     20  C   UNL     1       3.692  -0.606  -2.506  0.00  0.00    +0.012 A 
ATOM     21  C   UNL     1       3.678   0.106  -3.688  0.00  0.00    +0.001 A 
ENDBRANCH  14  19
ENDBRANCH   5  14
ENDBRANCH   1   9
BRANCH   2  22
ATOM     22  C   UNL     1      -1.348  -2.410  -0.104  0.00  0.00    +0.214 C 
BRANCH  22  23
ATOM     23  N   UNL     1      -2.358  -3.468  -0.018  0.00  0.00    -0.215 N 
ATOM     24  C   UNL     1      -2.880  -4.108  -1.086  0.00  0.00    +0.251 C 
ATOM     25  O   UNL     1      -2.615  -3.926  -2.255  0.00  0.00    -0.272 OA
ATOM     26  C   UNL     1      -3.862  -5.097  -0.515  0.00  0.00    +0.138 C 
ATOM     27  C   UNL     1      -5.281  -4.841  -1.041  0.00  0.00    +0.045 C 
ATOM     28  C   UNL     1      -5.872  -6.268  -1.089  0.00  0.00    +0.038 C 
ATOM     29  C   UNL     1      -4.679  -7.189  -1.237  0.00  0.00    -0.042 A 
ATOM     30  C   UNL     1      -3.519  -6.510  -0.902  0.00  0.00    -0.012 A 
ATOM     31  C   UNL     1      -2.300  -7.164  -0.964  0.00  0.00    +0.006 A 
ATOM     32  C   UNL     1      -2.237  -8.486  -1.358  0.00  0.00    +0.000 A 
ATOM     33  C   UNL     1      -3.395  -9.162  -1.693  0.00  0.00    +0.000 A 
ATOM     34  C   UNL     1      -4.613  -8.514  -1.631  0.00  0.00    +0.004 A 
ATOM     35  N   UNL     1      -3.787  -4.898   0.933  0.00  0.00    -0.281 N 
ATOM     36  C   UNL     1      -2.873  -3.926   1.131  0.00  0.00    +0.310 C 
ATOM     37  O   UNL     1      -2.556  -3.509   2.228  0.00  0.00    -0.252 OA
ATOM     38  H   UNL     1      -4.290  -5.372   1.613  0.00  0.00    +0.152 HD
ENDBRANCH  22  23
ENDBRANCH   2  22
TORSDOF 5
