REMARK  Name = ZINC60238872
REMARK  12 active torsions:
REMARK  status: ('A' for Active; 'I' for Inactive)
REMARK    1  A    between atoms: C_1  and  C_2
REMARK    2  A    between atoms: C_5  and  C_8
REMARK    3  A    between atoms: C_8  and  C_10
REMARK    4  A    between atoms: C_8  and  N_28
REMARK    5  A    between atoms: C_10  and  N_11
REMARK    6  A    between atoms: C_12  and  C_14
REMARK    7  A    between atoms: C_17  and  O_26
REMARK    8  A    between atoms: C_18  and  S_20
REMARK    9  A    between atoms: S_20  and  N_23
REMARK   10  A    between atoms: N_23  and  C_24
REMARK   11  A    between atoms: N_23  and  C_25
REMARK   12  A    between atoms: O_26  and  C_27
REMARK                            x       y       z     vdW  Elec       q    Type
REMARK                         _______ _______ _______ _____ _____    ______ ____
ROOT
ATOM      1  N   UNL     1       1.463  -6.250   0.252  0.00  0.00    -0.313 N 
ATOM      2  C   UNL     1       2.619  -6.918   0.429  0.00  0.00    +0.244 C 
ATOM      3  O   UNL     1       3.678  -6.321   0.399  0.00  0.00    -0.270 OA
ATOM      4  H   UNL     1       0.618  -6.726   0.276  0.00  0.00    +0.149 HD
ENDROOT
BRANCH   2   5
ATOM      5  C   UNL     1       2.601  -8.376   0.659  0.00  0.00    +0.039 A 
ATOM      6  C   UNL     1       1.386  -9.066   0.688  0.00  0.00    +0.017 A 
ATOM      7  C   UNL     1       1.373 -10.426   0.902  0.00  0.00    +0.048 A 
ATOM      8  C   UNL     1       2.567 -11.113   1.089  0.00  0.00    +0.146 A 
ATOM      9  C   UNL     1       3.777 -10.431   1.061  0.00  0.00    +0.148 A 
ATOM     10  C   UNL     1       3.799  -9.072   0.842  0.00  0.00    +0.045 A 
BRANCH   9  11
ATOM     11  S   UNL     1       5.287 -11.308   1.299  0.00  0.00    +0.064 S 
ATOM     12  O   UNL     1       5.243 -12.435   0.434  0.00  0.00    -0.153 OA
ATOM     13  O   UNL     1       6.330 -10.345   1.243  0.00  0.00    -0.153 OA
BRANCH  11  14
ATOM     14  N   UNL     1       5.271 -11.899   2.846  0.00  0.00    -0.183 NA
ATOM     15  C   UNL     1       4.711 -13.224   3.119  0.00  0.00    +0.131 C 
ATOM     16  C   UNL     1       5.818 -11.095   3.942  0.00  0.00    +0.131 C 
ENDBRANCH  11  14
ENDBRANCH   9  11
BRANCH   8  17
ATOM     17  O   UNL     1       2.550 -12.454   1.300  0.00  0.00    -0.493 OA
ATOM     18  C   UNL     1       1.271 -13.092   1.317  0.00  0.00    +0.277 C 
ENDBRANCH   8  17
ENDBRANCH   2   5
BRANCH   1  19
ATOM     19  C   UNL     1       1.481  -4.803   0.025  0.00  0.00    +0.094 C 
BRANCH  19  20
ATOM     20  C   UNL     1       0.061  -4.315  -0.273  0.00  0.00    -0.020 C 
BRANCH  20  25
ATOM     21  C   UNL     1      -1.752  -6.590  -5.266  0.00  0.00    +0.044 C 
ATOM     22  C   UNL     1      -1.279  -5.997  -3.964  0.00  0.00    -0.050 A 
ATOM     23  C   UNL     1      -1.683  -6.552  -2.765  0.00  0.00    +0.003 A 
ATOM     24  C   UNL     1      -1.249  -6.008  -1.570  0.00  0.00    +0.002 A 
ATOM     25  C   UNL     1      -0.411  -4.909  -1.575  0.00  0.00    -0.059 A 
ATOM     26  C   UNL     1      -0.006  -4.354  -2.775  0.00  0.00    +0.002 A 
ATOM     27  C   UNL     1      -0.436  -4.901  -3.970  0.00  0.00    +0.003 A 
ENDBRANCH  20  25
BRANCH  20  28
ATOM     28  N   UNL     1       0.058  -2.850  -0.373  0.00  0.00    +0.385 N 
ATOM     29  C   UNL     1      -1.317  -2.359  -0.649  0.00  0.00    -0.078 C 
ATOM     30  C   UNL     1      -1.269  -0.885  -0.172  0.00  0.00    -0.020 C 
ATOM     31  C   UNL     1      -0.373  -0.957   1.086  0.00  0.00    -0.020 C 
ATOM     32  C   UNL     1       0.449  -2.249   0.920  0.00  0.00    -0.078 C 
ATOM     33  H   UNL     1       0.688  -2.549  -1.101  0.00  0.00    -0.081 HD
ENDBRANCH  20  28
ENDBRANCH  19  20
ENDBRANCH   1  19
TORSDOF 8
