REMARK  Name = ZINC04053519
REMARK  7 active torsions:
REMARK  status: ('A' for Active; 'I' for Inactive)
REMARK    1  A    between atoms: C_1  and  C_2
REMARK    2  A    between atoms: C_2  and  C_3
REMARK    3  A    between atoms: C_2  and  C_4
REMARK    4  A    between atoms: C_2  and  C_5
REMARK    5  A    between atoms: C_8  and  N_11
REMARK    6  A    between atoms: N_11  and  C_12
REMARK    7  A    between atoms: N_16  and  C_20
REMARK                            x       y       z     vdW  Elec       q    Type
REMARK                         _______ _______ _______ _____ _____    ______ ____
ROOT
ATOM      1  N   UNL     1       2.656  -1.832  -4.664  0.00  0.00    -0.319 N 
ATOM      2  H   UNL     1       2.185  -2.390  -5.303  0.00  0.00    +0.152 HD
ENDROOT
BRANCH   1   3
ATOM      3  C   UNL     1       3.962  -1.487  -4.889  0.00  0.00    +0.092 C 
ATOM      4  C   UNL     1       4.596  -1.924  -6.005  0.00  0.00    +0.093 C 
ATOM      5  C   UNL     1       5.936  -1.696  -6.433  0.00  0.00    +0.261 C 
ATOM      6  O   UNL     1       6.701  -1.022  -5.767  0.00  0.00    -0.269 OA
ATOM      7  N   UNL     1       6.325  -2.238  -7.575  0.00  0.00    -0.231 N 
ATOM      8  C   UNL     1       5.476  -2.986  -8.314  0.00  0.00    +0.286 C 
ATOM      9  O   UNL     1       5.678  -3.546  -9.375  0.00  0.00    -0.262 OA
ATOM     10  S   UNL     1       3.983  -2.950  -7.333  0.00  0.00    -0.025 S 
ATOM     11  C   UNL     1       7.695  -2.023  -8.046  0.00  0.00    +0.142 C 
ENDBRANCH   1   3
BRANCH   1  15
ATOM     12  C   UNL     1       0.707  -0.490  -1.238  0.00  0.00    -0.042 A 
ATOM     13  C   UNL     1       0.034  -1.284  -2.148  0.00  0.00    +0.006 A 
ATOM     14  C   UNL     1       0.677  -1.731  -3.285  0.00  0.00    +0.023 A 
ATOM     15  C   UNL     1       2.002  -1.382  -3.515  0.00  0.00    +0.031 A 
ATOM     16  C   UNL     1       2.676  -0.583  -2.599  0.00  0.00    +0.023 A 
ATOM     17  C   UNL     1       2.025  -0.136  -1.466  0.00  0.00    +0.006 A 
BRANCH  12  19
ATOM     18  C   UNL     1      -0.019   1.526   0.010  0.00  0.00    +0.015 C 
ATOM     19  C   UNL     1       0.002  -0.004   0.002  0.00  0.00    -0.013 C 
ATOM     20  C   UNL     1       0.742  -0.511   1.242  0.00  0.00    +0.015 C 
ATOM     21  C   UNL     1      -1.433  -0.534   0.013  0.00  0.00    +0.015 C 
ENDBRANCH  12  19
ENDBRANCH   1  15
TORSDOF 3
