REMARK  Name = ZINC12658700
REMARK  10 active torsions:
REMARK  status: ('A' for Active; 'I' for Inactive)
REMARK    1  A    between atoms: C_1  and  C_2
REMARK    2  A    between atoms: C_2  and  O_3
REMARK    3  A    between atoms: O_3  and  C_4
REMARK    4  A    between atoms: C_4  and  C_6
REMARK    5  A    between atoms: C_6  and  C_35
REMARK    6  A    between atoms: C_13  and  C_34
REMARK    7  A    between atoms: C_23  and  C_33
REMARK    8  A    between atoms: C_26  and  O_29
REMARK    9  A    between atoms: O_29  and  C_30
REMARK   10  A    between atoms: C_30  and  C_32
REMARK                            x       y       z     vdW  Elec       q    Type
REMARK                         _______ _______ _______ _____ _____    ______ ____
ROOT
ATOM      1  C   UNL     1       2.756   6.315  -2.272  0.00  0.00    +0.271 C 
ATOM      2  C   UNL     1       2.129   5.074  -1.645  0.00  0.00    +0.125 C 
ATOM      3  O   UNL     1       1.341   6.120  -2.198  0.00  0.00    -0.341 OA
ATOM      4  C   UNL     1       2.232   3.701  -2.328  0.00  0.00    +0.040 C 
ATOM      5  C   UNL     1       2.356   2.662  -1.190  0.00  0.00    +0.007 C 
ATOM      6  C   UNL     1       1.704   3.369   0.036  0.00  0.00    +0.002 C 
ATOM      7  C   UNL     1       2.190   4.819  -0.125  0.00  0.00    +0.004 C 
ATOM      8  C   UNL     1       1.386   5.803   0.693  0.00  0.00    +0.010 C 
ATOM      9  C   UNL     1      -0.104   5.673   0.386  0.00  0.00    +0.005 C 
ATOM     10  C   UNL     1      -0.559   4.259   0.724  0.00  0.00    +0.003 C 
ATOM     11  C   UNL     1       0.188   3.256  -0.155  0.00  0.00    +0.000 C 
ATOM     12  C   UNL     1      -0.230   1.839   0.267  0.00  0.00    +0.031 C 
ATOM     13  C   UNL     1      -1.724   1.722   0.275  0.00  0.00    -0.027 C 
ATOM     14  C   UNL     1      -2.524   2.737   0.345  0.00  0.00    -0.064 C 
ATOM     15  C   UNL     1      -2.058   4.163   0.462  0.00  0.00    -0.008 C 
ATOM     16  C   UNL     1      -2.436   4.915  -0.812  0.00  0.00    +0.015 C 
ATOM     17  C   UNL     1      -3.681   4.290  -1.441  0.00  0.00    +0.046 C 
ATOM     18  C   UNL     1      -4.634   3.765  -0.369  0.00  0.00    +0.180 C 
ATOM     19  C   UNL     1      -4.027   2.517   0.289  0.00  0.00    +0.075 C 
ATOM     20  C   UNL     1      -2.796   4.807   1.637  0.00  0.00    +0.016 C 
ATOM     21  C   UNL     1       3.650   4.898   0.325  0.00  0.00    +0.014 C 
ENDROOT
BRANCH   1  22
ATOM     22  C   UNL     1       3.418   6.164  -3.616  0.00  0.00    +0.257 C 
ATOM     23  O   UNL     1       2.999   6.783  -4.572  0.00  0.00    -0.272 OA
ATOM     24  N   UNL     1       4.477   5.343  -3.758  0.00  0.00    -0.326 N 
ATOM     25  H   UNL     1       4.813   4.848  -2.994  0.00  0.00    +0.145 HD
ATOM     26  H   UNL     1       4.904   5.246  -4.623  0.00  0.00    +0.145 HD
ENDBRANCH   1  22
BRANCH   1  27
ATOM     27  C   UNL     1       3.374   7.333  -1.348  0.00  0.00    +0.352 C 
ATOM     28  O   UNL     1       4.561   7.304  -1.124  0.00  0.00    -0.247 OA
BRANCH  27  29
ATOM     29  O   UNL     1       2.605   8.272  -0.774  0.00  0.00    -0.462 OA
BRANCH  29  31
ATOM     30  C   UNL     1       2.239  10.206   0.660  0.00  0.00    +0.048 C 
ATOM     31  C   UNL     1       3.268   9.220   0.104  0.00  0.00    +0.229 C 
ENDBRANCH  29  31
ENDBRANCH  27  29
ENDBRANCH   1  27
BRANCH  18  32
ATOM     32  O   UNL     1      -4.842   4.790   0.638  0.00  0.00    -0.461 OA
BRANCH  32  33
ATOM     33  C   UNL     1      -6.028   4.794   1.267  0.00  0.00    +0.304 C 
ATOM     34  O   UNL     1      -6.864   3.968   0.985  0.00  0.00    -0.251 OA
ATOM     35  C   UNL     1      -6.317   5.828   2.324  0.00  0.00    +0.136 C 
ENDBRANCH  32  33
ENDBRANCH  18  32
TORSDOF 6
