REMARK  Name = ZINC20060095
REMARK  6 active torsions:
REMARK  status: ('A' for Active; 'I' for Inactive)
REMARK    1  A    between atoms: C_1  and  C_2
REMARK    2  A    between atoms: C_2  and  C_3
REMARK    3  A    between atoms: N_11  and  C_14
REMARK    4  A    between atoms: N_28  and  C_31
REMARK    5  A    between atoms: C_31  and  C_32
REMARK    6  A    between atoms: N_34  and  C_35
REMARK                            x       y       z     vdW  Elec       q    Type
REMARK                         _______ _______ _______ _____ _____    ______ ____
ROOT
ATOM      1  C   UNL     1       0.707  -0.530  -1.205  0.00  0.00    +0.067 C 
ATOM      2  C   UNL     1       0.704  -2.072  -1.259  0.00  0.00    +0.107 C 
ATOM      3  C   UNL     1       0.633  -2.418  -2.773  0.00  0.00    +0.123 C 
ATOM      4  C   UNL     1      -0.709  -3.101  -2.911  0.00  0.00    +0.233 C 
ATOM      5  O   UNL     1      -1.167  -3.543  -3.942  0.00  0.00    -0.274 OA
ATOM      6  N   UNL     1      -1.313  -3.140  -1.718  0.00  0.00    -0.210 N 
ATOM      7  C   UNL     1      -0.604  -2.589  -0.706  0.00  0.00    +0.232 C 
ATOM      8  O   UNL     1      -0.952  -2.515   0.453  0.00  0.00    -0.274 OA
ATOM      9  C   UNL     1       0.610  -1.057  -3.479  0.00  0.00    +0.136 C 
ATOM     10  N   UNL     1       0.078  -0.099  -2.482  0.00  0.00    -0.295 NA
ATOM     11  C   UNL     1       1.976  -0.670  -3.971  0.00  0.00    +0.004 A 
ATOM     12  C   UNL     1       3.187  -0.469  -3.347  0.00  0.00    +0.008 A 
ATOM     13  C   UNL     1       4.297  -0.108  -4.089  0.00  0.00    +0.000 A 
ATOM     14  C   UNL     1       4.186   0.052  -5.459  0.00  0.00    +0.002 A 
ATOM     15  C   UNL     1       2.975  -0.147  -6.088  0.00  0.00    +0.024 A 
ATOM     16  C   UNL     1       1.852  -0.510  -5.348  0.00  0.00    +0.042 A 
ATOM     17  N   UNL     1       0.538  -0.763  -5.747  0.00  0.00    -0.260 N 
ATOM     18  C   UNL     1      -0.255  -1.090  -4.709  0.00  0.00    +0.246 C 
ATOM     19  O   UNL     1      -1.437  -1.359  -4.756  0.00  0.00    -0.273 OA
ATOM     20  H   UNL     1      -0.928  -0.146  -2.423  0.00  0.00    +0.123 HD
ENDROOT
BRANCH   6  21
ATOM     21  C   UNL     1      -2.579  -3.712  -1.527  0.00  0.00    +0.044 A 
ATOM     22  C   UNL     1      -3.602  -2.964  -0.962  0.00  0.00    +0.024 A 
ATOM     23  C   UNL     1      -4.848  -3.530  -0.775  0.00  0.00    +0.002 A 
ATOM     24  C   UNL     1      -5.076  -4.841  -1.150  0.00  0.00    +0.000 A 
ATOM     25  C   UNL     1      -4.059  -5.589  -1.713  0.00  0.00    +0.002 A 
ATOM     26  C   UNL     1      -2.812  -5.027  -1.907  0.00  0.00    +0.024 A 
ENDBRANCH   6  21
BRANCH   1  28
ATOM     27  C   UNL     1      -0.028   1.487   0.073  0.00  0.00    +0.005 C 
ATOM     28  C   UNL     1      -0.116  -0.038  -0.013  0.00  0.00    +0.016 C 
ENDBRANCH   1  28
BRANCH  17  29
ATOM     29  C   UNL     1       0.076  -0.681  -7.135  0.00  0.00    +0.209 C 
BRANCH  29  30
ATOM     30  C   UNL     1       0.237  -2.025  -7.798  0.00  0.00    +0.235 C 
ATOM     31  O   UNL     1       0.693  -2.959  -7.173  0.00  0.00    -0.274 OA
ATOM     32  N   UNL     1      -0.126  -2.189  -9.085  0.00  0.00    -0.284 N 
ATOM     33  H   UNL     1      -0.415  -1.426  -9.609  0.00  0.00    +0.155 HD
BRANCH  32  34
ATOM     34  C   UNL     1      -0.085  -3.461  -9.667  0.00  0.00    +0.033 A 
ATOM     35  C   UNL     1       0.263  -3.604 -11.004  0.00  0.00    +0.023 A 
ATOM     36  C   UNL     1       0.302  -4.861 -11.575  0.00  0.00    +0.002 A 
ATOM     37  C   UNL     1      -0.004  -5.976 -10.817  0.00  0.00    +0.000 A 
ATOM     38  C   UNL     1      -0.351  -5.838  -9.486  0.00  0.00    +0.002 A 
ATOM     39  C   UNL     1      -0.386  -4.584  -8.907  0.00  0.00    +0.023 A 
ENDBRANCH  32  34
ENDBRANCH  29  30
ENDBRANCH  17  29
TORSDOF 5
