REMARK  Name = ZINC20765905
REMARK  8 active torsions:
REMARK  status: ('A' for Active; 'I' for Inactive)
REMARK    1  A    between atoms: C_1  and  C_2
REMARK    2  A    between atoms: C_2  and  C_3
REMARK    3  A    between atoms: C_3  and  C_5
REMARK    4  A    between atoms: C_3  and  N_6
REMARK    5  A    between atoms: N_6  and  S_7
REMARK    6  A    between atoms: S_7  and  C_10
REMARK    7  A    between atoms: C_20  and  C_22
REMARK    8  A    between atoms: C_25  and  C_28
REMARK                            x       y       z     vdW  Elec       q    Type
REMARK                         _______ _______ _______ _____ _____    ______ ____
ROOT
ATOM      1  C   UNL     1       2.437   0.226  -0.604  0.00  0.00    +0.106 A 
ATOM      2  C   UNL     1       1.365  -0.366   0.038  0.00  0.00    +0.030 A 
ATOM      3  C   UNL     1       0.131   0.253   0.032  0.00  0.00    +0.026 A 
ATOM      4  C   UNL     1      -0.033   1.471  -0.620  0.00  0.00    +0.040 A 
ATOM      5  C   UNL     1       1.043   2.065  -1.260  0.00  0.00    -0.024 A 
ATOM      6  C   UNL     1       2.277   1.437  -1.250  0.00  0.00    +0.034 A 
ATOM      7  C   UNL     1       0.905   3.389  -1.965  0.00  0.00    +0.038 C 
ATOM      8  C   UNL     1      -0.559   3.664  -2.307  0.00  0.00    +0.024 C 
ATOM      9  C   UNL     1      -1.406   3.483  -1.040  0.00  0.00    +0.114 C 
ATOM     10  N   UNL     1      -1.295   2.078  -0.623  0.00  0.00    -0.267 N 
ATOM     11  C   UNL     1      -2.390   1.386  -0.250  0.00  0.00    +0.251 C 
ATOM     12  O   UNL     1      -2.305   0.196  -0.013  0.00  0.00    -0.270 OA
ENDROOT
BRANCH  11  13
ATOM     13  C   UNL     1      -3.693   2.072  -0.129  0.00  0.00    +0.037 A 
ATOM     14  C   UNL     1      -3.742   3.436   0.168  0.00  0.00    +0.013 A 
ATOM     15  C   UNL     1      -4.962   4.072   0.274  0.00  0.00    +0.004 A 
ATOM     16  C   UNL     1      -6.135   3.359   0.098  0.00  0.00    -0.050 A 
ATOM     17  C   UNL     1      -6.093   2.006  -0.191  0.00  0.00    +0.004 A 
ATOM     18  C   UNL     1      -4.880   1.359  -0.305  0.00  0.00    +0.013 A 
ATOM     19  C   UNL     1      -7.464   4.059   0.221  0.00  0.00    +0.044 C 
ENDBRANCH  11  13
BRANCH   1  20
ATOM     20  S   UNL     1       4.011  -0.566  -0.599  0.00  0.00    +0.059 S 
ATOM     21  O   UNL     1       4.979   0.454  -0.802  0.00  0.00    -0.153 OA
ATOM     22  O   UNL     1       4.032  -1.420   0.537  0.00  0.00    -0.153 OA
BRANCH  20  23
ATOM     23  N   UNL     1       4.070  -1.548  -1.931  0.00  0.00    -0.187 NA
ATOM     24  H   UNL     1       3.967  -2.635  -1.802  0.00  0.00    +0.148 HD
BRANCH  23  25
ATOM     25  C   UNL     1       4.038  -0.963  -3.274  0.00  0.00    +0.073 C 
ATOM     26  C   UNL     1       2.599  -0.958  -3.793  0.00  0.00    +0.025 C 
BRANCH  25  28
ATOM     27  C   UNL     1       6.376  -1.696  -3.763  0.00  0.00    +0.005 C 
ATOM     28  C   UNL     1       4.916  -1.793  -4.212  0.00  0.00    +0.017 C 
ENDBRANCH  25  28
ENDBRANCH  23  25
ENDBRANCH  20  23
ENDBRANCH   1  20
TORSDOF 5
