REMARK  Name = ZINC67416355
REMARK  7 active torsions:
REMARK  status: ('A' for Active; 'I' for Inactive)
REMARK    1  A    between atoms: C_1  and  C_2
REMARK    2  A    between atoms: N_10  and  N_14
REMARK    3  A    between atoms: C_15  and  C_17
REMARK    4  A    between atoms: C_17  and  N_18
REMARK    5  A    between atoms: C_22  and  C_25
REMARK    6  A    between atoms: C_25  and  N_26
REMARK    7  A    between atoms: C_27  and  C_29
REMARK                            x       y       z     vdW  Elec       q    Type
REMARK                         _______ _______ _______ _____ _____    ______ ____
ROOT
ATOM      1  N   UNL     1      -1.508  -5.759   2.776  0.00  0.00    -0.225 N 
ATOM      2  C   UNL     1      -0.773  -6.285   3.775  0.00  0.00    +0.213 C 
ATOM      3  O   UNL     1       0.077  -5.615   4.321  0.00  0.00    -0.276 OA
ATOM      4  H   UNL     1      -2.188  -6.295   2.339  0.00  0.00    +0.173 HD
ENDROOT
BRANCH   1  14
ATOM      5  C   UNL     1      -0.019   1.526   0.010  0.00  0.00    +0.007 C 
ATOM      6  C   UNL     1       0.002  -0.004   0.002  0.00  0.00    -0.014 C 
ATOM      7  C   UNL     1      -1.433  -0.533   0.010  0.00  0.00    +0.006 C 
ATOM      8  C   UNL     1      -1.412  -2.064  -0.009  0.00  0.00    +0.035 C 
ATOM      9  C   UNL     1      -0.655  -2.578   1.211  0.00  0.00    +0.114 C 
ATOM     10  C   UNL     1       0.772  -2.041   1.227  0.00  0.00    +0.035 C 
ATOM     11  C   UNL     1       0.742  -0.510   1.242  0.00  0.00    +0.006 C 
ATOM     12  C   UNL     1      -0.651  -4.089   1.231  0.00  0.00    +0.263 C 
ATOM     13  O   UNL     1      -0.174  -4.833   0.401  0.00  0.00    -0.271 OA
ATOM     14  N   UNL     1      -1.290  -4.436   2.367  0.00  0.00    -0.137 N 
ATOM     15  C   UNL     1      -1.691  -3.361   3.056  0.00  0.00    +0.326 C 
ATOM     16  O   UNL     1      -2.288  -3.418   4.113  0.00  0.00    -0.251 OA
ATOM     17  N   UNL     1      -1.358  -2.207   2.446  0.00  0.00    -0.284 N 
ATOM     18  H   UNL     1      -1.546  -1.309   2.760  0.00  0.00    +0.151 HD
ENDBRANCH   1  14
BRANCH   2  19
ATOM     19  C   UNL     1      -1.008  -7.708   4.214  0.00  0.00    +0.020 C 
BRANCH  19  20
ATOM     20  N   UNL     1      -0.087  -8.040   5.309  0.00  0.00    +0.386 N 
ATOM     21  C   UNL     1      -0.398  -7.208   6.478  0.00  0.00    -0.078 C 
ATOM     22  C   UNL     1       0.609  -7.492   7.594  0.00  0.00    -0.018 C 
ATOM     23  C   UNL     1       0.528  -8.971   7.983  0.00  0.00    +0.001 C 
ATOM     24  C   UNL     1       0.781  -9.830   6.740  0.00  0.00    -0.011 C 
ATOM     25  C   UNL     1      -0.233  -9.459   5.656  0.00  0.00    -0.073 C 
ATOM     26  H   UNL     1       0.862  -7.862   5.016  0.00  0.00    -0.081 HD
BRANCH  24  27
ATOM     27  C   UNL     1       0.626 -11.309   7.101  0.00  0.00    +0.105 C 
BRANCH  27  28
ATOM     28  N   UNL     1       1.670 -11.691   8.055  0.00  0.00    -0.315 N 
ATOM     29  C   UNL     1       1.731 -12.955   8.517  0.00  0.00    +0.210 C 
ATOM     30  O   UNL     1       0.921 -13.777   8.144  0.00  0.00    -0.276 OA
ATOM     31  C   UNL     1       2.805 -13.348   9.498  0.00  0.00    +0.109 C 
ATOM     32  H   UNL     1       2.318 -11.033   8.354  0.00  0.00    +0.149 HD
ENDBRANCH  27  28
ENDBRANCH  24  27
ENDBRANCH  19  20
ENDBRANCH   2  19
TORSDOF 5
