REMARK  Name = ZINC13017993
REMARK  6 active torsions:
REMARK  status: ('A' for Active; 'I' for Inactive)
REMARK    1  A    between atoms: C_6  and  S_11
REMARK    2  A    between atoms: S_11  and  N_14
REMARK    3  A    between atoms: C_17  and  C_20
REMARK    4  A    between atoms: N_22  and  C_23
REMARK    5  A    between atoms: C_23  and  C_24
REMARK    6  A    between atoms: C_24  and  N_74
REMARK                            x       y       z     vdW  Elec       q    Type
REMARK                         _______ _______ _______ _____ _____    ______ ____
ROOT
ATOM      1  N   UNL     1       4.442   6.924   2.328  0.00  0.00    -0.177 NA
ATOM      2  C   UNL     1       3.684   7.523   1.222  0.00  0.00    +0.110 C 
ATOM      3  C   UNL     1       2.246   6.996   1.268  0.00  0.00    +0.030 C 
ATOM      4  C   UNL     1       2.267   5.466   1.259  0.00  0.00    +0.077 C 
ATOM      5  C   UNL     1       3.007   4.958   2.498  0.00  0.00    +0.030 C 
ATOM      6  C   UNL     1       4.454   5.461   2.466  0.00  0.00    +0.110 C 
ENDROOT
BRANCH   4   7
ATOM      7  C   UNL     1       0.853   4.944   1.270  0.00  0.00    +0.216 C 
ATOM      8  O   UNL     1      -0.079   5.720   1.283  0.00  0.00    -0.276 OA
ATOM      9  N   UNL     1       0.625   3.616   1.265  0.00  0.00    -0.316 N 
ATOM     10  H   UNL     1       1.371   2.996   1.254  0.00  0.00    +0.149 HD
BRANCH   9  11
ATOM     11  C   UNL     1      -0.750   3.109   1.275  0.00  0.00    +0.092 C 
BRANCH  11  12
ATOM     12  C   UNL     1      -0.729   1.579   1.267  0.00  0.00    -0.050 C 
ATOM     13  C   UNL     1      -0.013   1.086   0.008  0.00  0.00    -0.010 C 
ATOM     14  C   UNL     1      -0.753   1.593  -1.232  0.00  0.00    -0.001 C 
ATOM     15  C   UNL     1      -2.188   1.063  -1.221  0.00  0.00    -0.000 C 
ATOM     16  C   UNL     1      -2.904   1.556   0.038  0.00  0.00    -0.001 C 
ATOM     17  C   UNL     1      -2.164   1.050   1.278  0.00  0.00    -0.010 C 
BRANCH  12  23
ATOM     18  C   UNL     1       0.109  -0.370   2.433  0.00  0.00    -0.078 C 
ATOM     19  C   UNL     1       0.976  -0.828   3.607  0.00  0.00    -0.019 C 
ATOM     20  C   UNL     1       0.331  -0.375   4.919  0.00  0.00    -0.004 C 
ATOM     21  C   UNL     1       0.165   1.147   4.899  0.00  0.00    -0.019 C 
ATOM     22  C   UNL     1      -0.679   1.548   3.687  0.00  0.00    -0.078 C 
ATOM     23  N   UNL     1       0.009   1.105   2.456  0.00  0.00    +0.384 N 
ATOM     24  H   UNL     1       0.956   1.502   2.441  0.00  0.00    -0.081 HD
ENDBRANCH  12  23
ENDBRANCH  11  12
ENDBRANCH   9  11
ENDBRANCH   4   7
BRANCH   1  25
ATOM     25  S   UNL     1       5.268   7.879   3.399  0.00  0.00    +0.061 S 
ATOM     26  O   UNL     1       6.297   7.071   3.954  0.00  0.00    -0.153 OA
ATOM     27  O   UNL     1       5.538   9.102   2.728  0.00  0.00    -0.153 OA
BRANCH  25  33
ATOM     28  C   UNL     1       1.468   8.381   8.906  0.00  0.00    +0.001 A 
ATOM     29  C   UNL     1       2.269   7.243   8.990  0.00  0.00    +0.001 A 
ATOM     30  C   UNL     1       3.133   6.919   7.989  0.00  0.00    +0.008 A 
ATOM     31  C   UNL     1       3.222   7.742   6.854  0.00  0.00    -0.016 A 
ATOM     32  C   UNL     1       4.103   7.440   5.801  0.00  0.00    +0.037 A 
ATOM     33  C   UNL     1       4.162   8.261   4.717  0.00  0.00    +0.106 A 
ATOM     34  C   UNL     1       3.366   9.402   4.636  0.00  0.00    +0.029 A 
ATOM     35  C   UNL     1       2.498   9.723   5.633  0.00  0.00    +0.010 A 
ATOM     36  C   UNL     1       2.408   8.899   6.769  0.00  0.00    -0.018 A 
ATOM     37  C   UNL     1       1.528   9.202   7.822  0.00  0.00    +0.008 A 
ENDBRANCH  25  33
ENDBRANCH   1  25
TORSDOF 6
