REMARK  Name = ZINC05936621
REMARK  7 active torsions:
REMARK  status: ('A' for Active; 'I' for Inactive)
REMARK    1  A    between atoms: C_1  and  C_2
REMARK    2  A    between atoms: C_5  and  C_8
REMARK    3  A    between atoms: C_11  and  S_14
REMARK    4  A    between atoms: N_12  and  N_13
REMARK    5  A    between atoms: S_14  and  C_15
REMARK    6  A    between atoms: C_15  and  C_16
REMARK    7  A    between atoms: C_17  and  C_26
REMARK                            x       y       z     vdW  Elec       q    Type
REMARK                         _______ _______ _______ _____ _____    ______ ____
ROOT
ATOM      1  C   UNL     1      -0.018   1.474   0.010  0.00  0.00    +0.182 A 
ATOM      2  N   UNL     1       1.027   2.269   0.004  0.00  0.00    -0.127 NA
ATOM      3  N   UNL     1       0.645   3.496   0.015  0.00  0.00    -0.121 NA
ATOM      4  C   UNL     1      -0.668   3.560   0.028  0.00  0.00    +0.209 A 
ATOM      5  N   UNL     1      -1.135   2.277   0.019  0.00  0.00    -0.224 N 
ENDROOT
BRANCH   1  10
ATOM      6  C   UNL     1       0.060  -4.280  -0.022  0.00  0.00    +0.044 C 
ATOM      7  C   UNL     1       0.040  -2.773  -0.013  0.00  0.00    -0.050 A 
ATOM      8  C   UNL     1       1.192  -2.070   0.291  0.00  0.00    +0.004 A 
ATOM      9  C   UNL     1       1.180  -0.691   0.300  0.00  0.00    +0.012 A 
ATOM     10  C   UNL     1       0.002  -0.004   0.002  0.00  0.00    +0.021 A 
ATOM     11  C   UNL     1      -1.158  -0.719  -0.298  0.00  0.00    +0.012 A 
ATOM     12  C   UNL     1      -1.132  -2.098  -0.309  0.00  0.00    +0.004 A 
ENDBRANCH   1  10
BRANCH   5  13
ATOM     13  N   UNL     1      -2.441   1.874   0.022  0.00  0.00    -0.295 N 
ATOM     14  H   UNL     1      -2.783   1.762   0.964  0.00  0.00    +0.163 HD
ATOM     15  H   UNL     1      -3.019   2.517  -0.498  0.00  0.00    +0.163 HD
ENDBRANCH   5  13
BRANCH   4  16
ATOM     16  S   UNL     1      -1.642   5.027   0.045  0.00  0.00    -0.078 S 
BRANCH  16  17
ATOM     17  C   UNL     1      -0.331   6.276   0.040  0.00  0.00    +0.134 C 
BRANCH  17  18
ATOM     18  C   UNL     1      -0.947   7.651   0.053  0.00  0.00    +0.073 A 
ATOM     19  C   UNL     1      -1.235   8.291  -1.155  0.00  0.00    +0.061 A 
ATOM     20  N   UNL     1      -1.776   9.487  -1.167  0.00  0.00    -0.249 NA
ATOM     21  C   UNL     1      -2.045  10.105  -0.012  0.00  0.00    +0.089 A 
ATOM     22  C   UNL     1      -2.618  11.389   0.008  0.00  0.00    +0.030 A 
ATOM     23  C   UNL     1      -2.880  11.992   1.200  0.00  0.00    +0.002 A 
ATOM     24  C   UNL     1      -2.588  11.355   2.405  0.00  0.00    +0.002 A 
ATOM     25  C   UNL     1      -2.032  10.113   2.425  0.00  0.00    +0.030 A 
ATOM     26  C   UNL     1      -1.748   9.458   1.214  0.00  0.00    +0.090 A 
ATOM     27  N   UNL     1      -1.202   8.237   1.200  0.00  0.00    -0.247 NA
ATOM     28  C   UNL     1      -0.927   7.598  -2.457  0.00  0.00    +0.067 C 
ENDBRANCH  17  18
ENDBRANCH  16  17
ENDBRANCH   4  16
TORSDOF 5
