REMARK  Name = ZINC20418927
REMARK  11 active torsions:
REMARK  status: ('A' for Active; 'I' for Inactive)
REMARK    1  A    between atoms: C_1  and  C_2
REMARK    2  A    between atoms: C_3  and  C_33
REMARK    3  A    between atoms: C_4  and  C_24
REMARK    4  A    between atoms: C_10  and  C_15
REMARK    5  A    between atoms: C_18  and  N_21
REMARK    6  A    between atoms: N_21  and  C_22
REMARK    7  A    between atoms: N_21  and  C_23
REMARK    8  A    between atoms: C_27  and  N_30
REMARK    9  A    between atoms: C_33  and  O_35
REMARK   10  A    between atoms: O_35  and  C_36
REMARK   11  A    between atoms: C_36  and  C_37
REMARK                            x       y       z     vdW  Elec       q    Type
REMARK                         _______ _______ _______ _____ _____    ______ ____
ROOT
ATOM      1  C   UNL     1      -3.000   6.777  -1.163  0.00  0.00    +0.061 C 
ATOM      2  C   UNL     1      -2.608   5.323  -1.190  0.00  0.00    +0.016 C 
ATOM      3  C   UNL     1      -2.591   4.657  -2.357  0.00  0.00    +0.065 C 
ATOM      4  C   UNL     1      -2.213   3.206  -2.421  0.00  0.00    +0.092 C 
ATOM      5  C   UNL     1      -1.485   2.781  -1.171  0.00  0.00    +0.024 C 
ATOM      6  C   UNL     1      -1.547   3.528  -0.049  0.00  0.00    +0.016 C 
ATOM      7  N   UNL     1      -2.273   4.689  -0.026  0.00  0.00    -0.321 N 
ATOM      8  C   UNL     1      -0.820   3.109   1.205  0.00  0.00    +0.059 C 
ATOM      9  C   UNL     1      -0.734   1.582   1.266  0.00  0.00    +0.032 C 
ATOM     10  C   UNL     1      -0.013   1.086   0.008  0.00  0.00    +0.088 C 
ATOM     11  C   UNL     1      -0.744   1.586  -1.208  0.00  0.00    +0.162 C 
ATOM     12  O   UNL     1      -0.694   0.946  -2.240  0.00  0.00    -0.292 OA
ATOM     13  H   UNL     1      -2.586   5.110   0.940  0.00  0.00    +0.152 HD
ENDROOT
BRANCH   9  14
ATOM     14  C   UNL     1       0.039   1.164   2.490  0.00  0.00    -0.043 A 
ATOM     15  C   UNL     1       1.344   1.589   2.661  0.00  0.00    +0.006 A 
ATOM     16  C   UNL     1       2.053   1.212   3.784  0.00  0.00    +0.023 A 
ATOM     17  C   UNL     1       1.457   0.398   4.739  0.00  0.00    +0.029 A 
ATOM     18  C   UNL     1       0.148  -0.031   4.562  0.00  0.00    +0.023 A 
ATOM     19  C   UNL     1      -0.557   0.353   3.439  0.00  0.00    +0.006 A 
BRANCH  17  20
ATOM     20  N   UNL     1       2.173   0.011   5.874  0.00  0.00    -0.336 N 
ATOM     21  C   UNL     1       1.543  -0.848   6.880  0.00  0.00    +0.129 C 
ATOM     22  C   UNL     1       3.554   0.465   6.059  0.00  0.00    +0.129 C 
ENDBRANCH  17  20
ENDBRANCH   9  14
BRANCH   4  23
ATOM     23  C   UNL     1      -3.462   2.377  -2.572  0.00  0.00    -0.035 A 
ATOM     24  C   UNL     1      -4.431   2.400  -1.586  0.00  0.00    +0.007 A 
ATOM     25  C   UNL     1      -5.579   1.643  -1.726  0.00  0.00    +0.033 A 
ATOM     26  C   UNL     1      -5.754   0.855  -2.849  0.00  0.00    +0.126 A 
ATOM     27  C   UNL     1      -4.783   0.828  -3.833  0.00  0.00    +0.033 A 
ATOM     28  C   UNL     1      -3.638   1.589  -3.695  0.00  0.00    +0.007 A 
BRANCH  26  29
ATOM     29  N   UNL     1      -6.981   0.042  -2.998  0.00  0.00    +0.056 N 
ATOM     30  O   UNL     1      -7.136  -0.652  -3.987  0.00  0.00    -0.126 OA
ATOM     31  O   UNL     1      -7.837   0.065  -2.131  0.00  0.00    -0.126 OA
ENDBRANCH  26  29
ENDBRANCH   4  23
BRANCH   3  32
ATOM     32  C   UNL     1      -2.933   5.338  -3.549  0.00  0.00    +0.338 C 
ATOM     33  O   UNL     1      -3.240   6.515  -3.511  0.00  0.00    -0.245 OA
BRANCH  32  34
ATOM     34  O   UNL     1      -2.920   4.682  -4.728  0.00  0.00    -0.459 OA
BRANCH  34  35
ATOM     35  C   UNL     1      -3.277   5.432  -5.891  0.00  0.00    +0.264 C 
BRANCH  35  36
ATOM     36  C   UNL     1      -3.205   4.527  -7.123  0.00  0.00    +0.156 C 
ATOM     37  C   UNL     1      -3.708   5.290  -8.364  0.00  0.00    +0.037 C 
ATOM     38  C   UNL     1      -2.509   5.255  -9.343  0.00  0.00    +0.031 C 
ATOM     39  C   UNL     1      -1.688   4.054  -8.808  0.00  0.00    +0.160 C 
ATOM     40  O   UNL     1      -1.840   4.153  -7.376  0.00  0.00    -0.373 OA
ENDBRANCH  35  36
ENDBRANCH  34  35
ENDBRANCH  32  34
ENDBRANCH   3  32
TORSDOF 8
