REMARK  Name = ZINC22798496
REMARK  7 active torsions:
REMARK  status: ('A' for Active; 'I' for Inactive)
REMARK    1  A    between atoms: C_3  and  C_8
REMARK    2  A    between atoms: C_8  and  C_10
REMARK    3  A    between atoms: C_8  and  N_24
REMARK    4  A    between atoms: C_16  and  C_18
REMARK    5  A    between atoms: N_27  and  C_30
REMARK    6  A    between atoms: C_30  and  C_31
REMARK    7  A    between atoms: C_31  and  O_32
REMARK                            x       y       z     vdW  Elec       q    Type
REMARK                         _______ _______ _______ _____ _____    ______ ____
ROOT
ATOM      1  C   UNL     1      -8.058   0.329   0.237  0.00  0.00    +0.006 C 
ENDROOT
BRANCH   1   2
ATOM      2  C   UNL     1      -6.556   0.393   0.339  0.00  0.00    +0.050 A 
ATOM      3  C   UNL     1      -5.759   1.465   0.408  0.00  0.00    +0.282 A 
ATOM      4  N   UNL     1      -4.396   1.322   0.497  0.00  0.00    -0.169 N 
ATOM      5  C   UNL     1      -3.903   0.046   0.512  0.00  0.00    +0.200 A 
ATOM      6  S   UNL     1      -5.374  -0.945   0.399  0.00  0.00    -0.050 S 
ATOM      7  N   UNL     1      -2.603   0.077   0.594  0.00  0.00    -0.197 NA
ATOM      8  C   UNL     1      -2.193   1.352   0.645  0.00  0.00    +0.218 A 
ATOM      9  N   UNL     1      -3.242   2.143   0.586  0.00  0.00    -0.138 NA
ATOM     10  O   UNL     1      -6.305   2.711   0.390  0.00  0.00    -0.265 OA
BRANCH   8  11
ATOM     11  C   UNL     1      -0.787   1.798   0.746  0.00  0.00    +0.173 A 
ATOM     12  C   UNL     1       0.304   0.989   0.807  0.00  0.00    +0.053 A 
ATOM     13  C   UNL     1       1.430   1.833   0.888  0.00  0.00    +0.042 A 
ATOM     14  C   UNL     1       0.975   3.101   0.878  0.00  0.00    +0.196 A 
ATOM     15  O   UNL     1      -0.365   3.076   0.796  0.00  0.00    -0.460 OA
ENDBRANCH   8  11
ENDBRANCH   1   2
BRANCH   1  18
ATOM     16  C   UNL     1      -8.762  -1.700  -2.868  0.00  0.00    +0.001 A 
ATOM     17  C   UNL     1      -8.397  -1.359  -1.579  0.00  0.00    +0.002 A 
ATOM     18  C   UNL     1      -8.451  -0.040  -1.170  0.00  0.00    -0.055 A 
ATOM     19  C   UNL     1      -8.861   0.941  -2.054  0.00  0.00    +0.017 A 
ATOM     20  C   UNL     1      -9.221   0.602  -3.345  0.00  0.00    +0.018 A 
ATOM     21  C   UNL     1      -9.171  -0.720  -3.752  0.00  0.00    +0.015 A 
ATOM     22 BR   UNL     1      -9.780   1.944  -4.554  0.00  0.00    -0.050 Br
ENDBRANCH   1  18
BRANCH   1  23
ATOM     23  N   UNL     1      -8.570  -0.683   1.170  0.00  0.00    +0.389 N 
ATOM     24  C   UNL     1     -10.025  -0.837   1.035  0.00  0.00    -0.062 C 
ATOM     25  C   UNL     1     -10.507  -1.953   1.964  0.00  0.00    +0.066 C 
ATOM     26  N   UNL     1     -10.142  -1.625   3.349  0.00  0.00    -0.304 NA
ATOM     27  C   UNL     1      -8.686  -1.471   3.485  0.00  0.00    +0.066 C 
ATOM     28  C   UNL     1      -8.205  -0.355   2.556  0.00  0.00    -0.062 C 
ATOM     29  H   UNL     1      -8.101  -1.645   0.914  0.00  0.00    -0.080 HD
BRANCH  26  30
ATOM     30  C   UNL     1     -10.653  -2.638   4.283  0.00  0.00    +0.112 C 
BRANCH  30  31
ATOM     31  C   UNL     1     -10.312  -4.034   3.758  0.00  0.00    +0.171 C 
BRANCH  31  32
ATOM     32  O   UNL     1      -8.895  -4.218   3.781  0.00  0.00    -0.394 OA
ATOM     33  H   UNL     1      -8.458  -5.167   3.438  0.00  0.00    +0.209 HD
ENDBRANCH  31  32
ENDBRANCH  30  31
ENDBRANCH  26  30
ENDBRANCH   1  23
TORSDOF 7
