REMARK  Name = ZINC25704422
REMARK  7 active torsions:
REMARK  status: ('A' for Active; 'I' for Inactive)
REMARK    1  A    between atoms: C_1  and  C_2
REMARK    2  A    between atoms: C_8  and  N_10
REMARK    3  A    between atoms: C_14  and  C_16
REMARK    4  A    between atoms: C_16  and  N_17
REMARK    5  A    between atoms: N_17  and  C_18
REMARK    6  A    between atoms: C_21  and  C_24
REMARK    7  A    between atoms: N_26  and  C_27
REMARK                            x       y       z     vdW  Elec       q    Type
REMARK                         _______ _______ _______ _____ _____    ______ ____
ROOT
ATOM      1  C   UNL     1       6.708   5.514  -2.268  0.00  0.00    +0.198 C 
ENDROOT
BRANCH   1   6
ATOM      2  N   UNL     1       3.507   2.069  -1.270  0.00  0.00    -0.296 N 
ATOM      3  C   UNL     1       3.769   3.297  -1.759  0.00  0.00    +0.306 C 
ATOM      4  O   UNL     1       2.864   3.984  -2.191  0.00  0.00    -0.252 OA
ATOM      5  N   UNL     1       5.033   3.764  -1.768  0.00  0.00    -0.239 N 
ATOM      6  C   UNL     1       5.295   4.992  -2.258  0.00  0.00    +0.237 C 
ATOM      7  O   UNL     1       4.392   5.678  -2.689  0.00  0.00    -0.274 OA
ATOM      8  H   UNL     1       4.326   1.447  -0.878  0.00  0.00    +0.151 HD
ATOM      9  H   UNL     1       5.852   3.142  -1.377  0.00  0.00    +0.159 HD
BRANCH   2  16
ATOM     10  C   UNL     1       2.870  -0.461  -2.526  0.00  0.00    +0.009 C 
ATOM     11  C   UNL     1       2.154   0.032  -1.268  0.00  0.00    +0.006 C 
ATOM     12  C   UNL     1       0.718  -0.497  -1.257  0.00  0.00    +0.005 C 
ATOM     13  C   UNL     1       0.002  -0.004   0.002  0.00  0.00    +0.000 C 
ATOM     14  C   UNL     1      -0.019   1.526   0.010  0.00  0.00    +0.002 C 
ATOM     15  C   UNL     1       1.417   2.055  -0.000  0.00  0.00    +0.022 C 
ATOM     16  C   UNL     1       2.133   1.562  -1.259  0.00  0.00    +0.077 C 
ENDBRANCH   2  16
ENDBRANCH   1   6
BRANCH   1  17
ATOM     17  N   UNL     1       6.728   6.860  -2.845  0.00  0.00    -0.335 N 
ATOM     18  H   UNL     1       5.791   7.326  -3.187  0.00  0.00    +0.147 HD
BRANCH  17  19
ATOM     19  C   UNL     1       7.929   7.550  -2.960  0.00  0.00    +0.028 A 
ATOM     20  C   UNL     1       9.113   6.962  -2.522  0.00  0.00    +0.023 A 
ATOM     21  C   UNL     1      10.304   7.640  -2.640  0.00  0.00    +0.015 A 
ATOM     22  C   UNL     1      10.325   8.925  -3.190  0.00  0.00    +0.037 A 
ATOM     23  C   UNL     1       9.134   9.515  -3.624  0.00  0.00    +0.015 A 
ATOM     24  C   UNL     1       7.946   8.830  -3.509  0.00  0.00    +0.023 A 
BRANCH  22  25
ATOM     25  C   UNL     1      11.600   9.657  -3.311  0.00  0.00    +0.244 C 
ATOM     26  O   UNL     1      11.616  10.775  -3.790  0.00  0.00    -0.270 OA
ATOM     27  N   UNL     1      12.747   9.087  -2.893  0.00  0.00    -0.308 N 
ATOM     28  H   UNL     1      12.732   8.075  -2.460  0.00  0.00    +0.149 HD
BRANCH  27  29
ATOM     29  C   UNL     1      14.013   9.814  -3.013  0.00  0.00    +0.073 C 
ATOM     30  C   UNL     1      15.227   9.037  -3.527  0.00  0.00    +0.024 C 
ATOM     31  C   UNL     1      15.140   9.434  -2.051  0.00  0.00    +0.024 C 
ENDBRANCH  27  29
ENDBRANCH  22  25
ENDBRANCH  17  19
ENDBRANCH   1  17
TORSDOF 6
