REMARK  Name = ZINC44855279
REMARK  7 active torsions:
REMARK  status: ('A' for Active; 'I' for Inactive)
REMARK    1  A    between atoms: C_1  and  C_2
REMARK    2  A    between atoms: C_8  and  N_15
REMARK    3  A    between atoms: C_11  and  C_13
REMARK    4  A    between atoms: C_11  and  C_14
REMARK    5  A    between atoms: C_16  and  C_18
REMARK    6  A    between atoms: C_21  and  C_24
REMARK    7  A    between atoms: C_24  and  N_25
REMARK                            x       y       z     vdW  Elec       q    Type
REMARK                         _______ _______ _______ _____ _____    ______ ____
ROOT
ATOM      1  N   UNL     1       0.960  -2.140   3.437  0.00  0.00    -0.304 N 
ATOM      2  C   UNL     1       0.536  -1.087   4.163  0.00  0.00    +0.245 C 
ATOM      3  O   UNL     1      -0.609  -0.695   4.054  0.00  0.00    -0.270 OA
ATOM      4  H   UNL     1       1.874  -2.452   3.524  0.00  0.00    +0.150 HD
ENDROOT
BRANCH   1  12
ATOM      5  C   UNL     1      -0.018   1.503   0.010  0.00  0.00    +0.044 C 
ATOM      6  C   UNL     1       0.002  -0.004   0.002  0.00  0.00    -0.050 A 
ATOM      7  C   UNL     1       0.006  -0.689  -1.199  0.00  0.00    +0.007 A 
ATOM      8  C   UNL     1       0.026  -2.069  -1.206  0.00  0.00    +0.046 A 
ATOM      9  C   UNL     1       0.042  -2.774  -0.006  0.00  0.00    +0.126 A 
ATOM     10  C   UNL     1       0.035  -2.086   1.194  0.00  0.00    +0.015 A 
ATOM     11  C   UNL     1       0.023  -0.701   1.194  0.00  0.00    +0.012 A 
ATOM     12  C   UNL     1       0.041  -2.812   2.515  0.00  0.00    +0.111 C 
ATOM     13  C   UNL     1       0.497  -4.258   2.308  0.00  0.00    +0.074 C 
ATOM     14  C   UNL     1      -0.290  -4.847   1.130  0.00  0.00    +0.107 C 
ATOM     15  O   UNL     1       0.068  -4.132  -0.053  0.00  0.00    -0.486 OA
ATOM     16  C   UNL     1      -1.791  -4.699   1.387  0.00  0.00    +0.055 C 
ATOM     17  C   UNL     1       0.061  -6.327   0.963  0.00  0.00    +0.055 C 
ENDBRANCH   1  12
BRANCH   2  18
ATOM     18  C   UNL     1       1.464  -0.408   5.093  0.00  0.00    +0.037 A 
ATOM     19  C   UNL     1       2.782  -0.852   5.217  0.00  0.00    +0.013 A 
ATOM     20  C   UNL     1       3.643  -0.214   6.086  0.00  0.00    +0.005 A 
ATOM     21  C   UNL     1       3.203   0.863   6.834  0.00  0.00    -0.033 A 
ATOM     22  C   UNL     1       1.898   1.308   6.717  0.00  0.00    +0.005 A 
ATOM     23  C   UNL     1       1.028   0.683   5.847  0.00  0.00    +0.013 A 
BRANCH  21  24
ATOM     24  C   UNL     1       4.148   1.554   7.782  0.00  0.00    +0.120 C 
BRANCH  24  25
ATOM     25  N   UNL     1       4.841   2.641   7.076  0.00  0.00    -0.294 NA
ATOM     26  C   UNL     1       5.924   3.199   7.902  0.00  0.00    +0.090 C 
ATOM     27  C   UNL     1       6.828   4.047   7.007  0.00  0.00    +0.051 C 
ATOM     28  C   UNL     1       5.997   5.017   6.207  0.00  0.00    -0.042 A 
ATOM     29  C   UNL     1       6.630   6.099   5.614  0.00  0.00    +0.004 A 
ATOM     30  C   UNL     1       5.906   7.009   4.870  0.00  0.00    +0.000 A 
ATOM     31  C   UNL     1       4.543   6.839   4.713  0.00  0.00    +0.000 A 
ATOM     32  C   UNL     1       3.912   5.763   5.303  0.00  0.00    +0.005 A 
ATOM     33  C   UNL     1       4.637   4.849   6.054  0.00  0.00    -0.030 A 
ATOM     34  C   UNL     1       3.902   3.698   6.688  0.00  0.00    +0.120 C 
ENDBRANCH  24  25
ENDBRANCH  21  24
ENDBRANCH   2  18
TORSDOF 4
