REMARK  Name = ZINC16666337
REMARK  8 active torsions:
REMARK  status: ('A' for Active; 'I' for Inactive)
REMARK    1  A    between atoms: C_1  and  C_2
REMARK    2  A    between atoms: C_6  and  N_9
REMARK    3  A    between atoms: C_7  and  C_8
REMARK    4  A    between atoms: N_9  and  S_10
REMARK    5  A    between atoms: S_10  and  C_13
REMARK    6  A    between atoms: C_16  and  N_20
REMARK    7  A    between atoms: C_18  and  C_19
REMARK    8  A    between atoms: C_23  and  C_29
REMARK                            x       y       z     vdW  Elec       q    Type
REMARK                         _______ _______ _______ _____ _____    ______ ____
ROOT
ATOM      1  C   UNL     1       0.100  -0.031  -0.232  0.00  0.00    +0.111 A 
ATOM      2  C   UNL     1       1.248  -0.797  -0.134  0.00  0.00    +0.031 A 
ATOM      3  C   UNL     1       2.487  -0.211  -0.302  0.00  0.00    +0.027 A 
ATOM      4  C   UNL     1       2.580   1.149  -0.569  0.00  0.00    +0.060 A 
ATOM      5  C   UNL     1       1.427   1.915  -0.666  0.00  0.00    +0.030 A 
ATOM      6  C   UNL     1       0.190   1.323  -0.497  0.00  0.00    -0.022 A 
ATOM      7  C   UNL     1      -1.063   2.153  -0.608  0.00  0.00    +0.046 C 
ENDROOT
BRANCH   4   8
ATOM      8  N   UNL     1       3.834   1.745  -0.741  0.00  0.00    -0.144 N 
ATOM      9  C   UNL     1       4.088   2.864  -1.435  0.00  0.00    +0.243 C 
ATOM     10  O   UNL     1       3.198   3.448  -2.017  0.00  0.00    -0.273 OA
ATOM     11  C   UNL     1       5.496   3.377  -1.476  0.00  0.00    +0.097 C 
ATOM     12  C   UNL     1       6.456   2.222  -1.085  0.00  0.00    +0.201 C 
ATOM     13  S   UNL     1       5.283   1.191  -0.109  0.00  0.00    +0.053 S 
ATOM     14  O   UNL     1       5.280   1.579   1.258  0.00  0.00    -0.155 OA
ATOM     15  O   UNL     1       5.372  -0.175  -0.490  0.00  0.00    -0.155 OA
ATOM     16  C   UNL     1       5.652   4.533  -0.486  0.00  0.00    +0.019 C 
ENDBRANCH   4   8
BRANCH   1  17
ATOM     17  S   UNL     1      -1.479  -0.782  -0.017  0.00  0.00    +0.073 S 
ATOM     18  O   UNL     1      -1.244  -2.166   0.204  0.00  0.00    -0.150 OA
ATOM     19  O   UNL     1      -2.191   0.027   0.909  0.00  0.00    -0.150 OA
BRANCH  17  20
ATOM     20  N   UNL     1      -2.279  -0.662  -1.462  0.00  0.00    -0.216 N 
ATOM     21  H   UNL     1      -3.119  -0.181  -1.513  0.00  0.00    +0.174 HD
BRANCH  20  27
ATOM     22  C   UNL     1      -1.522  -0.561  -6.317  0.00  0.00    +0.044 C 
ATOM     23  C   UNL     1      -1.361  -1.228  -4.975  0.00  0.00    -0.046 A 
ATOM     24  C   UNL     1      -0.681  -2.429  -4.878  0.00  0.00    +0.004 A 
ATOM     25  C   UNL     1      -0.531  -3.044  -3.649  0.00  0.00    +0.002 A 
ATOM     26  C   UNL     1      -1.060  -2.461  -2.514  0.00  0.00    +0.025 A 
ATOM     27  C   UNL     1      -1.743  -1.255  -2.608  0.00  0.00    +0.051 A 
ATOM     28  C   UNL     1      -1.896  -0.642  -3.845  0.00  0.00    -0.025 A 
ATOM     29  C   UNL     1      -2.642   0.663  -3.954  0.00  0.00    +0.046 C 
ENDBRANCH  20  27
ENDBRANCH  17  20
ENDBRANCH   1  17
TORSDOF 4
