REMARK  Name = ZINC00843553
REMARK  8 active torsions:
REMARK  status: ('A' for Active; 'I' for Inactive)
REMARK    1  A    between atoms: C_1  and  O_2
REMARK    2  A    between atoms: O_2  and  C_3
REMARK    3  A    between atoms: C_6  and  C_9
REMARK    4  A    between atoms: C_20  and  C_22
REMARK    5  A    between atoms: C_25  and  O_30
REMARK    6  A    between atoms: C_27  and  O_28
REMARK    7  A    between atoms: O_28  and  C_29
REMARK    8  A    between atoms: O_30  and  C_31
REMARK                            x       y       z     vdW  Elec       q    Type
REMARK                         _______ _______ _______ _____ _____    ______ ____
ROOT
ATOM      1  C   UNL     1       2.517  -2.452  -4.416  0.00  0.00    +0.159 C 
ATOM      2  C   UNL     1       3.953  -2.732  -4.031  0.00  0.00    +0.027 C 
ATOM      3  C   UNL     1       4.379  -4.011  -4.058  0.00  0.00    +0.083 C 
ATOM      4  C   UNL     1       5.794  -4.270  -3.688  0.00  0.00    +0.042 A 
ATOM      5  C   UNL     1       6.240  -5.547  -3.377  0.00  0.00    +0.013 A 
ATOM      6  C   UNL     1       7.565  -5.742  -3.036  0.00  0.00    +0.001 A 
ATOM      7  C   UNL     1       8.441  -4.672  -3.005  0.00  0.00    +0.004 A 
ATOM      8  C   UNL     1       8.005  -3.397  -3.314  0.00  0.00    +0.046 A 
ATOM      9  C   UNL     1       6.681  -3.187  -3.658  0.00  0.00    +0.131 A 
ATOM     10  O   UNL     1       6.227  -1.947  -3.973  0.00  0.00    -0.479 OA
ATOM     11  C   UNL     1       4.880  -1.626  -3.621  0.00  0.00    +0.238 C 
ATOM     12  N   UNL     1       3.553  -5.027  -4.411  0.00  0.00    -0.213 NA
ATOM     13  C   UNL     1       2.296  -4.872  -4.757  0.00  0.00    +0.237 C 
ATOM     14  N   UNL     1       1.713  -3.625  -4.782  0.00  0.00    -0.208 N 
ATOM     15  N   UNL     1       0.390  -3.813  -5.186  0.00  0.00    -0.251 N 
ATOM     16  C   UNL     1       0.232  -5.151  -5.381  0.00  0.00    +0.203 C 
ATOM     17  N   UNL     1       1.348  -5.760  -5.132  0.00  0.00    -0.205 NA
ATOM     18  H   UNL     1      -0.284  -3.125  -5.305  0.00  0.00    +0.171 HD
ENDROOT
BRANCH   1  22
ATOM     19  C   UNL     1       0.610  -0.504  -1.125  0.00  0.00    +0.120 A 
ATOM     20  C   UNL     1       1.079   0.242  -2.197  0.00  0.00    +0.046 A 
ATOM     21  C   UNL     1       1.695  -0.391  -3.259  0.00  0.00    +0.009 A 
ATOM     22  C   UNL     1       1.845  -1.765  -3.255  0.00  0.00    -0.021 A 
ATOM     23  C   UNL     1       1.377  -2.510  -2.188  0.00  0.00    +0.009 A 
ATOM     24  C   UNL     1       0.766  -1.882  -1.121  0.00  0.00    +0.046 A 
BRANCH  19  26
ATOM     25  C   UNL     1      -0.123   1.538  -0.151  0.00  0.00    +0.277 C 
ATOM     26  O   UNL     1       0.004   0.116  -0.079  0.00  0.00    -0.495 OA
ENDBRANCH  19  26
ENDBRANCH   1  22
BRANCH  11  27
ATOM     27  C   UNL     1       4.789  -1.427  -2.130  0.00  0.00    +0.039 A 
ATOM     28  C   UNL     1       4.517  -2.502  -1.305  0.00  0.00    +0.015 A 
ATOM     29  C   UNL     1       4.433  -2.322   0.062  0.00  0.00    +0.046 A 
ATOM     30  C   UNL     1       4.622  -1.062   0.611  0.00  0.00    +0.124 A 
ATOM     31  C   UNL     1       4.895   0.018  -0.214  0.00  0.00    +0.091 A 
ATOM     32  C   UNL     1       4.984  -0.165  -1.586  0.00  0.00    +0.131 A 
BRANCH  32  33
ATOM     33  O   UNL     1       5.258   0.890  -2.397  0.00  0.00    -0.495 OA
ATOM     34  C   UNL     1       5.565   2.133  -1.762  0.00  0.00    +0.277 C 
ENDBRANCH  32  33
BRANCH  30  35
ATOM     35  O   UNL     1       4.539  -0.886   1.956  0.00  0.00    -0.495 OA
ATOM     36  C   UNL     1       4.254  -2.043   2.745  0.00  0.00    +0.277 C 
ENDBRANCH  30  35
ENDBRANCH  11  27
TORSDOF 5
