REMARK  Name = ZINC08843832
REMARK  6 active torsions:
REMARK  status: ('A' for Active; 'I' for Inactive)
REMARK    1  A    between atoms: C_1  and  C_2
REMARK    2  A    between atoms: C_2  and  O_3
REMARK    3  A    between atoms: O_3  and  C_4
REMARK    4  A    between atoms: C_4  and  C_6
REMARK    5  A    between atoms: C_10  and  N_11
REMARK    6  A    between atoms: C_12  and  C_14
REMARK                            x       y       z     vdW  Elec       q    Type
REMARK                         _______ _______ _______ _____ _____    ______ ____
ROOT
ATOM      1  C   UNL     1      -8.648   3.171   0.517  0.00  0.00    +0.091 A 
ATOM      2  C   UNL     1      -9.768   4.027   0.161  0.00  0.00    -0.021 A 
ATOM      3  C   UNL     1      -9.433   5.214  -0.389  0.00  0.00    -0.004 A 
ATOM      4  S   UNL     1      -7.663   5.210  -0.431  0.00  0.00    -0.077 S 
ATOM      5  C   UNL     1      -7.369   3.654   0.272  0.00  0.00    +0.086 A 
ATOM      6  C   UNL     1     -10.366   6.288  -0.857  0.00  0.00    +0.043 C 
ATOM      7  C   UNL     1     -11.776   5.689  -0.967  0.00  0.00    +0.005 C 
ATOM      8  C   UNL     1     -12.082   4.911   0.316  0.00  0.00    +0.005 C 
ATOM      9  C   UNL     1     -11.228   3.644   0.372  0.00  0.00    +0.037 C 
ENDROOT
BRANCH   5  10
ATOM     10  N   UNL     1      -6.153   3.037   0.522  0.00  0.00    -0.279 N 
ATOM     11  C   UNL     1      -5.003   3.664   0.208  0.00  0.00    +0.224 C 
ATOM     12  O   UNL     1      -5.031   4.768  -0.294  0.00  0.00    -0.275 OA
ATOM     13  H   UNL     1      -6.131   2.155   0.924  0.00  0.00    +0.155 HD
BRANCH  11  14
ATOM     14  C   UNL     1      -3.680   2.994   0.480  0.00  0.00    +0.117 C 
ATOM     15  C   UNL     1      -2.537   3.909   0.035  0.00  0.00    +0.055 C 
ATOM     16  C   UNL     1      -1.242   3.136   0.027  0.00  0.00    -0.005 A 
ATOM     17  C   UNL     1      -0.048   3.838   0.020  0.00  0.00    +0.007 A 
ATOM     18  C   UNL     1       1.157   3.162   0.008  0.00  0.00    +0.000 A 
ATOM     19  C   UNL     1       1.174   1.780   0.000  0.00  0.00    +0.004 A 
ATOM     20  C   UNL     1      -0.013   1.076   0.008  0.00  0.00    +0.046 A 
ATOM     21  C   UNL     1      -1.228   1.753   0.017  0.00  0.00    +0.124 A 
ATOM     22  O   UNL     1      -2.375   1.025   0.040  0.00  0.00    -0.491 OA
ATOM     23  C   UNL     1      -3.590   1.686  -0.317  0.00  0.00    +0.242 C 
ENDBRANCH  11  14
ENDBRANCH   5  10
BRANCH   1  24
ATOM     24  C   UNL     1      -8.861   1.852   1.116  0.00  0.00    +0.342 C 
ATOM     25  O   UNL     1      -8.928   1.736   2.325  0.00  0.00    -0.245 OA
BRANCH  24  26
ATOM     26  O   UNL     1      -8.981   0.765   0.327  0.00  0.00    -0.461 OA
BRANCH  26  28
ATOM     27  C   UNL     1      -9.303  -1.618  -0.061  0.00  0.00    +0.048 C 
ATOM     28  C   UNL     1      -9.190  -0.511   0.989  0.00  0.00    +0.229 C 
ENDBRANCH  26  28
ENDBRANCH  24  26
ENDBRANCH   1  24
TORSDOF 5
