REMARK  Name = ZINC08247560
REMARK  8 active torsions:
REMARK  status: ('A' for Active; 'I' for Inactive)
REMARK    1  A    between atoms: C_1  and  C_2
REMARK    2  A    between atoms: C_2  and  C_4
REMARK    3  A    between atoms: C_2  and  N_44
REMARK    4  A    between atoms: C_12  and  C_13
REMARK    5  A    between atoms: C_12  and  N_44
REMARK    6  A    between atoms: N_15  and  C_16
REMARK    7  A    between atoms: C_21  and  C_22
REMARK    8  A    between atoms: C_22  and  C_24
REMARK                            x       y       z     vdW  Elec       q    Type
REMARK                         _______ _______ _______ _____ _____    ______ ____
ROOT
ATOM      1  C   UNL     1       3.459   7.000  -2.285  0.00  0.00    +0.200 C 
ATOM      2  O   UNL     1       2.350   7.444  -2.493  0.00  0.00    -0.278 OA
ATOM      3  N   UNL     1       4.533   7.569  -2.869  0.00  0.00    -0.286 N 
ATOM      4  H   UNL     1       5.425   7.257  -2.652  0.00  0.00    +0.155 HD
ENDROOT
BRANCH   3   5
ATOM      5  C   UNL     1       4.361   8.606  -3.783  0.00  0.00    +0.048 A 
ATOM      6  C   UNL     1       3.341   9.527  -3.606  0.00  0.00    +0.073 A 
ATOM      7  C   UNL     1       3.168  10.559  -4.514  0.00  0.00    +0.168 A 
ATOM      8  C   UNL     1       4.022  10.678  -5.616  0.00  0.00    +0.167 A 
ATOM      9  C   UNL     1       5.040   9.768  -5.804  0.00  0.00    +0.062 A 
ATOM     10  C   UNL     1       5.226   8.725  -4.886  0.00  0.00    +0.042 A 
ATOM     11  O   UNL     1       3.639  11.767  -6.346  0.00  0.00    -0.453 OA
ATOM     12  C   UNL     1       2.301  12.070  -5.911  0.00  0.00    +0.466 C 
ATOM     13  O   UNL     1       2.258  11.573  -4.561  0.00  0.00    -0.453 OA
BRANCH  10  14
ATOM     14  C   UNL     1       6.310   7.760  -5.078  0.00  0.00    +0.162 C 
ATOM     15  O   UNL     1       6.408   6.802  -4.339  0.00  0.00    -0.292 OA
ATOM     16  C   UNL     1       7.305   7.956  -6.193  0.00  0.00    +0.091 C 
ENDBRANCH  10  14
ENDBRANCH   3   5
BRANCH   1  17
ATOM     17  C   UNL     1       3.637   5.813  -1.375  0.00  0.00    +0.016 C 
BRANCH  17  18
ATOM     18  N   UNL     1       2.318   5.387  -0.872  0.00  0.00    +0.389 N 
ATOM     19  H   UNL     1       1.886   6.161  -0.354  0.00  0.00    -0.084 HD
ATOM     20  H   UNL     1       1.719   5.130  -1.666  0.00  0.00    -0.084 HD
BRANCH  18  22
ATOM     21  C   UNL     1       2.776   4.706   1.441  0.00  0.00    -0.009 C 
ATOM     22  C   UNL     1       2.462   4.223   0.024  0.00  0.00    -0.043 C 
BRANCH  22  23
ATOM     23  C   UNL     1       1.172   3.443   0.033  0.00  0.00    -0.059 A 
ATOM     24  C   UNL     1      -0.038   4.111   0.036  0.00  0.00    +0.005 A 
ATOM     25  C   UNL     1      -1.222   3.398   0.044  0.00  0.00    +0.041 A 
ATOM     26  C   UNL     1      -1.197   2.014   0.043  0.00  0.00    +0.158 A 
ATOM     27  C   UNL     1       0.018   1.344   0.045  0.00  0.00    +0.159 A 
ATOM     28  C   UNL     1       1.202   2.062   0.037  0.00  0.00    +0.043 A 
ATOM     29  F   UNL     1       0.045  -0.006   0.049  0.00  0.00    -0.202 F 
ATOM     30  F   UNL     1      -2.353   1.316   0.045  0.00  0.00    -0.202 F 
ENDBRANCH  22  23
ENDBRANCH  18  22
ENDBRANCH  17  18
ENDBRANCH   1  17
TORSDOF 6
