REMARK  Name = ZINC02101926
REMARK  8 active torsions:
REMARK  status: ('A' for Active; 'I' for Inactive)
REMARK    1  A    between atoms: C_1  and  N_56
REMARK    2  A    between atoms: C_8  and  O_30
REMARK    3  A    between atoms: C_10  and  C_12
REMARK    4  A    between atoms: N_19  and  C_22
REMARK    5  A    between atoms: C_20  and  O_21
REMARK    6  A    between atoms: C_27  and  O_28
REMARK    7  A    between atoms: O_28  and  C_29
REMARK    8  A    between atoms: O_30  and  C_31
REMARK                            x       y       z     vdW  Elec       q    Type
REMARK                         _______ _______ _______ _____ _____    ______ ____
ROOT
ATOM      1  C   UNL     1      -1.153  -0.764   0.023  0.00  0.00    +0.068 A 
ATOM      2  C   UNL     1      -1.105  -2.169   0.008  0.00  0.00    +0.259 A 
ATOM      3  O   UNL     1      -2.137  -2.818  -0.010  0.00  0.00    -0.267 OA
ATOM      4  N   UNL     1       0.089  -2.794   0.014  0.00  0.00    -0.274 N 
ATOM      5  H   UNL     1       0.126  -3.793   0.003  0.00  0.00    +0.173 HD
ATOM      6  C   UNL     1       1.231  -2.083   0.034  0.00  0.00    +0.337 A 
ATOM      7  O   UNL     1       2.299  -2.666   0.039  0.00  0.00    -0.246 OA
ATOM      8  N   UNL     1       1.210  -0.738   0.043  0.00  0.00    -0.229 N 
ATOM      9  C   UNL     1       0.015  -0.061   0.043  0.00  0.00    +0.209 A 
ENDROOT
BRANCH   1  19
ATOM     10  C   UNL     1      -2.551  -0.023  -2.402  0.00  0.00    -0.095 C 
ATOM     11  C   UNL     1      -4.600   0.113  -1.114  0.00  0.00    -0.073 C 
ATOM     12  C   UNL     1      -5.382  -0.633  -0.033  0.00  0.00    +0.017 C 
ATOM     13  C   UNL     1      -4.589  -0.662   1.249  0.00  0.00    -0.040 A 
ATOM     14  C   UNL     1      -5.251  -0.973   2.427  0.00  0.00    +0.053 A 
ATOM     15  C   UNL     1      -4.566  -1.015   3.629  0.00  0.00    +0.170 A 
ATOM     16  C   UNL     1      -3.202  -0.743   3.654  0.00  0.00    +0.208 A 
ATOM     17  C   UNL     1      -2.542  -0.431   2.474  0.00  0.00    +0.167 A 
ATOM     18  C   UNL     1      -3.238  -0.390   1.269  0.00  0.00    -0.008 A 
ATOM     19  C   UNL     1      -2.477  -0.044   0.016  0.00  0.00    +0.007 C 
ATOM     20  O   UNL     1      -2.759  -0.848   4.942  0.00  0.00    -0.449 OA
ATOM     21  C   UNL     1      -3.780  -1.585   5.640  0.00  0.00    +0.467 C 
ATOM     22  O   UNL     1      -4.979  -1.290   4.901  0.00  0.00    -0.452 OA
ATOM     23  N   UNL     1      -3.242  -0.465  -1.169  0.00  0.00    +0.386 N 
ATOM     24  H   UNL     1      -3.314  -1.490  -1.176  0.00  0.00    -0.081 HD
BRANCH  17  25
ATOM     25  O   UNL     1      -1.209  -0.165   2.494  0.00  0.00    -0.491 OA
ATOM     26  C   UNL     1      -0.818   1.168   2.829  0.00  0.00    +0.277 C 
ENDBRANCH  17  25
ENDBRANCH   1  19
BRANCH   8  27
ATOM     27  C   UNL     1       2.416  -0.022   0.058  0.00  0.00    +0.096 A 
ATOM     28  C   UNL     1       3.007   0.320   1.266  0.00  0.00    +0.030 A 
ATOM     29  C   UNL     1       4.195   1.025   1.279  0.00  0.00    +0.002 A 
ATOM     30  C   UNL     1       4.799   1.391   0.090  0.00  0.00    +0.004 A 
ATOM     31  C   UNL     1       4.216   1.054  -1.118  0.00  0.00    +0.048 A 
ATOM     32  C   UNL     1       3.027   0.342  -1.139  0.00  0.00    +0.144 A 
BRANCH  32  33
ATOM     33  O   UNL     1       2.456   0.006  -2.326  0.00  0.00    -0.493 OA
ATOM     34  C   UNL     1       3.138   0.413  -3.513  0.00  0.00    +0.277 C 
ENDBRANCH  32  33
ENDBRANCH   8  27
BRANCH   9  35
ATOM     35  O   UNL     1      -0.003   1.289   0.057  0.00  0.00    -0.493 OA
ATOM     36  H   UNL     1       0.875   1.693   0.071  0.00  0.00    +0.294 HD
ENDBRANCH   9  35
TORSDOF 5
