REMARK  Name = ZINC01026238
REMARK  13 active torsions:
REMARK  status: ('A' for Active; 'I' for Inactive)
REMARK    1  A    between atoms: C_1  and  C_2
REMARK    2  A    between atoms: C_2  and  O_3
REMARK    3  A    between atoms: O_3  and  C_4
REMARK    4  A    between atoms: C_6  and  C_14
REMARK    5  A    between atoms: C_9  and  O_10
REMARK    6  A    between atoms: O_10  and  C_11
REMARK    7  A    between atoms: C_11  and  C_12
REMARK    8  A    between atoms: C_11  and  C_13
REMARK    9  A    between atoms: C_23  and  C_31
REMARK   10  A    between atoms: C_24  and  N_30
REMARK   11  A    between atoms: C_25  and  C_26
REMARK   12  A    between atoms: C_25  and  C_28
REMARK   13  A    between atoms: C_33  and  C_35
REMARK                            x       y       z     vdW  Elec       q    Type
REMARK                         _______ _______ _______ _____ _____    ______ ____
ROOT
ATOM      1  C   UNL     1      -2.736   0.027   0.717  0.00  0.00    +0.068 C 
ATOM      2  C   UNL     1      -3.565   0.521   1.903  0.00  0.00    +0.048 C 
ATOM      3  C   UNL     1      -2.846   0.346   3.217  0.00  0.00    +0.117 C 
ATOM      4  N   UNL     1      -2.356   1.629   3.733  0.00  0.00    -0.297 N 
ATOM      5  C   UNL     1      -3.331   2.729   3.839  0.00  0.00    +0.135 C 
ATOM      6  C   UNL     1      -3.928   2.925   2.468  0.00  0.00    -0.003 C 
ATOM      7  C   UNL     1      -4.010   1.926   1.611  0.00  0.00    -0.026 C 
ATOM      8  C   UNL     1      -4.564   2.184   0.254  0.00  0.00    +0.074 C 
ATOM      9  C   UNL     1      -4.363   1.270  -0.728  0.00  0.00    +0.054 C 
ATOM     10  C   UNL     1      -3.625  -0.019  -0.526  0.00  0.00    +0.188 C 
ATOM     11  C   UNL     1      -1.068   1.794   4.094  0.00  0.00    +0.213 C 
ATOM     12  O   UNL     1      -0.270   0.898   3.920  0.00  0.00    -0.276 OA
ATOM     13  C   UNL     1      -0.620   3.092   4.714  0.00  0.00    +0.109 C 
ENDROOT
BRANCH   1  16
ATOM     14  C   UNL     1      -0.713   2.978  -0.496  0.00  0.00    +0.162 A 
ATOM     15  C   UNL     1      -1.770   2.108  -0.282  0.00  0.00    +0.053 A 
ATOM     16  C   UNL     1      -1.583   0.969   0.479  0.00  0.00    -0.037 A 
ATOM     17  C   UNL     1      -0.342   0.690   1.019  0.00  0.00    +0.008 A 
ATOM     18  C   UNL     1       0.717   1.554   0.809  0.00  0.00    +0.050 A 
ATOM     19  C   UNL     1       0.536   2.700   0.051  0.00  0.00    +0.162 A 
BRANCH  14  20
ATOM     20  O   UNL     1      -0.896   4.102  -1.240  0.00  0.00    -0.489 OA
BRANCH  20  22
ATOM     21  C   UNL     1      -2.216   5.626  -2.572  0.00  0.00    +0.048 C 
ATOM     22  C   UNL     1      -2.204   4.323  -1.770  0.00  0.00    +0.226 C 
ENDBRANCH  20  22
ENDBRANCH  14  20
BRANCH  19  23
ATOM     23  O   UNL     1       1.576   3.551  -0.157  0.00  0.00    -0.486 OA
BRANCH  23  24
ATOM     24  C   UNL     1       2.801   3.255   0.517  0.00  0.00    +0.167 C 
ATOM     25  C   UNL     1       3.968   3.884  -0.247  0.00  0.00    +0.051 C 
ATOM     26  C   UNL     1       2.754   3.825   1.936  0.00  0.00    +0.051 C 
ENDBRANCH  23  24
ENDBRANCH  19  23
ENDBRANCH   1  16
BRANCH   9  27
ATOM     27  N   UNL     1      -4.861   1.540  -1.972  0.00  0.00    -0.358 N 
ATOM     28  H   UNL     1      -4.715   0.820  -2.791  0.00  0.00    +0.142 HD
ATOM     29  H   UNL     1      -5.407   2.477  -2.154  0.00  0.00    +0.142 HD
ENDBRANCH   9  27
BRANCH  10  30
ATOM     30  C   UNL     1      -2.786  -0.282  -1.707  0.00  0.00    +0.091 C 
ATOM     31  N   UNL     1      -2.139  -0.485  -2.618  0.00  0.00    -0.194 NA
ENDBRANCH  10  30
BRANCH  10  32
ATOM     32  C   UNL     1      -4.600  -1.112  -0.379  0.00  0.00    +0.091 C 
ATOM     33  N   UNL     1      -5.352  -1.956  -0.265  0.00  0.00    -0.194 NA
ENDBRANCH  10  32
BRANCH   8  34
ATOM     34  C   UNL     1      -5.300   3.383  -0.012  0.00  0.00    +0.101 C 
ATOM     35  N   UNL     1      -5.884   4.334  -0.223  0.00  0.00    -0.191 NA
ENDBRANCH   8  34
TORSDOF 9
