REMARK  Name = ZINC08991266
REMARK  6 active torsions:
REMARK  status: ('A' for Active; 'I' for Inactive)
REMARK    1  A    between atoms: C_1  and  C_2
REMARK    2  A    between atoms: C_5  and  C_8
REMARK    3  A    between atoms: N_19  and  C_20
REMARK    4  A    between atoms: C_20  and  C_21
REMARK    5  A    between atoms: C_24  and  O_27
REMARK    6  A    between atoms: O_27  and  C_28
REMARK                            x       y       z     vdW  Elec       q    Type
REMARK                         _______ _______ _______ _____ _____    ______ ____
ROOT
ATOM      1  C   UNL     1      -2.514   0.980   0.019  0.00  0.00    +0.193 C 
ATOM      2  N   UNL     1      -2.309  -0.312   0.687  0.00  0.00    -0.321 N 
ATOM      3  C   UNL     1      -2.221  -0.336   2.074  0.00  0.00    +0.041 A 
ATOM      4  C   UNL     1      -1.468  -1.284   2.744  0.00  0.00    +0.024 A 
ATOM      5  C   UNL     1      -1.407  -1.257   4.125  0.00  0.00    +0.002 A 
ATOM      6  C   UNL     1      -2.094  -0.290   4.842  0.00  0.00    +0.001 A 
ATOM      7  C   UNL     1      -2.851   0.661   4.189  0.00  0.00    +0.015 A 
ATOM      8  C   UNL     1      -2.922   0.645   2.798  0.00  0.00    +0.058 A 
ATOM      9  C   UNL     1      -3.718   1.635   2.050  0.00  0.00    +0.250 C 
ATOM     10  O   UNL     1      -4.529   2.334   2.627  0.00  0.00    -0.270 OA
ATOM     11  N   UNL     1      -3.538   1.755   0.719  0.00  0.00    -0.271 N 
ATOM     12  H   UNL     1      -2.237  -1.131   0.171  0.00  0.00    +0.148 HD
ENDROOT
BRANCH   1  17
ATOM     13  C   UNL     1       2.451   3.937  -0.001  0.00  0.00    +0.044 C 
ATOM     14  C   UNL     1       1.156   3.165   0.008  0.00  0.00    -0.050 A 
ATOM     15  C   UNL     1       1.175   1.783   0.000  0.00  0.00    +0.004 A 
ATOM     16  C   UNL     1      -0.013   1.076   0.008  0.00  0.00    +0.007 A 
ATOM     17  C   UNL     1      -1.219   1.751   0.017  0.00  0.00    -0.009 A 
ATOM     18  C   UNL     1      -1.238   3.133   0.030  0.00  0.00    +0.007 A 
ATOM     19  C   UNL     1      -0.050   3.840   0.022  0.00  0.00    +0.004 A 
ENDBRANCH   1  17
BRANCH  11  20
ATOM     20  C   UNL     1      -4.384   2.679  -0.041  0.00  0.00    +0.145 C 
BRANCH  20  21
ATOM     21  C   UNL     1      -5.614   1.954  -0.523  0.00  0.00    -0.030 A 
ATOM     22  C   UNL     1      -5.605   1.324  -1.754  0.00  0.00    +0.009 A 
ATOM     23  C   UNL     1      -6.730   0.654  -2.196  0.00  0.00    +0.046 A 
ATOM     24  C   UNL     1      -7.871   0.623  -1.408  0.00  0.00    +0.120 A 
ATOM     25  C   UNL     1      -7.879   1.261  -0.176  0.00  0.00    +0.046 A 
ATOM     26  C   UNL     1      -6.750   1.925   0.263  0.00  0.00    +0.009 A 
BRANCH  24  27
ATOM     27  O   UNL     1      -8.980  -0.031  -1.843  0.00  0.00    -0.495 OA
ATOM     28  C   UNL     1      -8.900  -0.665  -3.121  0.00  0.00    +0.277 C 
ENDBRANCH  24  27
ENDBRANCH  20  21
ENDBRANCH  11  20
TORSDOF 4
