REMARK  Name = ZINC62811948
REMARK  5 active torsions:
REMARK  status: ('A' for Active; 'I' for Inactive)
REMARK    1  A    between atoms: C_1  and  C_2
REMARK    2  A    between atoms: C_2  and  C_4
REMARK    3  A    between atoms: C_2  and  N_10
REMARK    4  A    between atoms: C_11  and  C_13
REMARK    5  A    between atoms: C_14  and  N_19
REMARK                            x       y       z     vdW  Elec       q    Type
REMARK                         _______ _______ _______ _____ _____    ______ ____
ROOT
ATOM      1  N   UNL     1      -1.372  -0.511   0.012  0.00  0.00    -0.303 N 
ATOM      2  C   UNL     1      -2.051  -0.643  -1.145  0.00  0.00    +0.266 C 
ATOM      3  O   UNL     1      -1.522  -0.341  -2.197  0.00  0.00    -0.268 OA
ATOM      4  H   UNL     1      -1.794  -0.752   0.852  0.00  0.00    +0.150 HD
ENDROOT
BRANCH   2   5
ATOM      5  C   UNL     1      -3.434  -1.153  -1.134  0.00  0.00    +0.167 A 
ATOM      6  C   UNL     1      -4.269  -1.351  -2.264  0.00  0.00    +0.075 A 
ATOM      7  C   UNL     1      -5.441  -1.830  -1.769  0.00  0.00    +0.128 A 
ATOM      8  N   UNL     1      -5.301  -1.909  -0.420  0.00  0.00    -0.282 N 
ATOM      9  H   UNL     1      -5.986  -2.221   0.192  0.00  0.00    +0.188 HD
ATOM     10  N   UNL     1      -4.128  -1.518  -0.072  0.00  0.00    -0.167 NA
BRANCH   6  11
ATOM     11  N   UNL     1      -3.952  -1.104  -3.608  0.00  0.00    -0.355 N 
ATOM     12  H   UNL     1      -3.076  -0.759  -3.845  0.00  0.00    +0.142 HD
ATOM     13  H   UNL     1      -4.607  -1.278  -4.301  0.00  0.00    +0.142 HD
ENDBRANCH   6  11
ENDBRANCH   2   5
BRANCH   1  15
ATOM     14  C   UNL     1      -0.019   1.526   0.010  0.00  0.00    +0.033 C 
ATOM     15  C   UNL     1       0.002  -0.004   0.002  0.00  0.00    +0.107 C 
BRANCH  15  16
ATOM     16  C   UNL     1       0.731  -0.503   1.223  0.00  0.00    +0.011 A 
ATOM     17  C   UNL     1       2.009  -0.938   1.335  0.00  0.00    +0.014 A 
ATOM     18  C   UNL     1       2.471  -1.355   2.570  0.00  0.00    +0.028 A 
ATOM     19  C   UNL     1       1.629  -1.315   3.633  0.00  0.00    +0.078 A 
ATOM     20  S   UNL     1       0.136  -0.668   2.898  0.00  0.00    -0.080 S 
ATOM     21 CL   UNL     1       1.927  -1.770   5.282  0.00  0.00    -0.076 Cl
ENDBRANCH  15  16
ENDBRANCH   1  15
TORSDOF 4
