REMARK  Name = ZINC25255338
REMARK  8 active torsions:
REMARK  status: ('A' for Active; 'I' for Inactive)
REMARK    1  A    between atoms: C_1  and  N_2
REMARK    2  A    between atoms: N_2  and  C_3
REMARK    3  A    between atoms: N_2  and  C_15
REMARK    4  A    between atoms: C_3  and  C_4
REMARK    5  A    between atoms: C_9  and  O_10
REMARK    6  A    between atoms: O_10  and  C_11
REMARK    7  A    between atoms: C_15  and  C_16
REMARK    8  A    between atoms: C_29  and  C_31
REMARK                            x       y       z     vdW  Elec       q    Type
REMARK                         _______ _______ _______ _____ _____    ______ ____
ROOT
ATOM      1  C   UNL     1       4.021   5.954   2.728  0.00  0.00    +0.204 C 
ATOM      2  O   UNL     1       3.255   5.639   3.615  0.00  0.00    -0.277 OA
ATOM      3  N   UNL     1       4.989   6.861   2.964  0.00  0.00    -0.259 N 
ATOM      4  C   UNL     1       5.880   7.234   1.948  0.00  0.00    +0.058 A 
ATOM      5  C   UNL     1       6.864   6.360   1.516  0.00  0.00    +0.025 A 
ATOM      6  C   UNL     1       7.749   6.754   0.529  0.00  0.00    +0.002 A 
ATOM      7  C   UNL     1       7.657   8.017  -0.026  0.00  0.00    +0.002 A 
ATOM      8  C   UNL     1       6.672   8.892   0.394  0.00  0.00    +0.025 A 
ATOM      9  C   UNL     1       5.775   8.501   1.374  0.00  0.00    +0.055 A 
ATOM     10  N   UNL     1       4.736   9.349   1.775  0.00  0.00    -0.284 N 
ATOM     11  C   UNL     1       4.494   9.561   3.087  0.00  0.00    +0.219 C 
ATOM     12  O   UNL     1       3.540  10.231   3.423  0.00  0.00    -0.275 OA
ATOM     13  C   UNL     1       5.400   8.973   4.136  0.00  0.00    +0.128 C 
ATOM     14  C   UNL     1       5.126   7.480   4.284  0.00  0.00    +0.194 C 
ATOM     15  H   UNL     1       4.110   9.847   1.021  0.00  0.00    +0.155 HD
ENDROOT
BRANCH  14  16
ATOM     16  C   UNL     1       6.287   6.825   5.034  0.00  0.00    +0.409 C 
ATOM     17  F   UNL     1       7.471   7.005   4.310  0.00  0.00    -0.169 F 
ATOM     18  F   UNL     1       6.419   7.415   6.296  0.00  0.00    -0.169 F 
ATOM     19  F   UNL     1       6.035   5.457   5.184  0.00  0.00    -0.169 F 
ENDBRANCH  14  16
BRANCH   1  20
ATOM     20  C   UNL     1       3.888   5.330   1.363  0.00  0.00    +0.019 C 
BRANCH  20  22
ATOM     21  C   UNL     1       3.044   3.240   2.244  0.00  0.00    -0.095 C 
ATOM     22  N   UNL     1       2.766   4.382   1.364  0.00  0.00    +0.386 N 
ATOM     23  H   UNL     1       1.882   4.906   1.757  0.00  0.00    -0.081 HD
BRANCH  22  24
ATOM     24  C   UNL     1       2.456   3.933   0.000  0.00  0.00    -0.039 C 
BRANCH  24  25
ATOM     25  C   UNL     1       1.160   3.164   0.008  0.00  0.00    -0.022 A 
ATOM     26  C   UNL     1       1.176   1.782   0.000  0.00  0.00    +0.005 A 
ATOM     27  C   UNL     1      -0.013   1.076   0.008  0.00  0.00    +0.000 A 
ATOM     28  C   UNL     1      -1.220   1.750   0.017  0.00  0.00    +0.004 A 
ATOM     29  C   UNL     1      -1.242   3.131   0.031  0.00  0.00    +0.046 A 
ATOM     30  C   UNL     1      -0.050   3.842   0.023  0.00  0.00    +0.131 A 
BRANCH  30  31
ATOM     31  O   UNL     1      -0.069   5.201   0.031  0.00  0.00    -0.406 OA
BRANCH  31  32
ATOM     32  C   UNL     1      -1.350   5.832   0.047  0.00  0.00    +0.575 C 
ATOM     33  F   UNL     1      -2.049   5.440   1.193  0.00  0.00    -0.133 F 
ATOM     34  F   UNL     1      -1.186   7.221   0.053  0.00  0.00    -0.133 F 
ATOM     35  F   UNL     1      -2.071   5.453  -1.091  0.00  0.00    -0.133 F 
ENDBRANCH  31  32
ENDBRANCH  30  31
ENDBRANCH  24  25
ENDBRANCH  22  24
ENDBRANCH  20  22
ENDBRANCH   1  20
TORSDOF 7
