REMARK  Name = ZINC07473112
REMARK  12 active torsions:
REMARK  status: ('A' for Active; 'I' for Inactive)
REMARK    1  A    between atoms: C_1  and  C_2
REMARK    2  A    between atoms: C_2  and  C_3
REMARK    3  A    between atoms: C_3  and  C_4
REMARK    4  A    between atoms: C_4  and  C_5
REMARK    5  A    between atoms: C_5  and  C_6
REMARK    6  A    between atoms: C_6  and  C_8
REMARK    7  A    between atoms: C_6  and  N_9
REMARK    8  A    between atoms: C_10  and  C_12
REMARK    9  A    between atoms: C_12  and  N_13
REMARK   10  A    between atoms: C_16  and  C_20
REMARK   11  A    between atoms: C_16  and  C_22
REMARK   12  A    between atoms: C_20  and  C_21
REMARK                            x       y       z     vdW  Elec       q    Type
REMARK                         _______ _______ _______ _____ _____    ______ ____
ROOT
ATOM      1  N   UNL     1       4.602   0.550   1.423  0.00  0.00    -0.215 N 
ATOM      2  C   UNL     1       4.837   0.685   2.743  0.00  0.00    +0.251 C 
ATOM      3  O   UNL     1       4.395   1.539   3.482  0.00  0.00    -0.272 OA
ATOM      4  C   UNL     1       5.766  -0.454   3.112  0.00  0.00    +0.138 C 
ATOM      5  N   UNL     1       5.973  -1.160   1.836  0.00  0.00    -0.281 N 
ATOM      6  C   UNL     1       5.253  -0.500   0.911  0.00  0.00    +0.310 C 
ATOM      7  O   UNL     1       5.201  -0.822  -0.260  0.00  0.00    -0.252 OA
ATOM      8  H   UNL     1       6.521  -1.947   1.692  0.00  0.00    +0.152 HD
ENDROOT
BRANCH   4   9
ATOM      9  C   UNL     1       7.073   0.083   3.639  0.00  0.00    -0.015 A 
ATOM     10  C   UNL     1       7.261   0.229   5.000  0.00  0.00    +0.009 A 
ATOM     11  C   UNL     1       8.461   0.715   5.484  0.00  0.00    +0.039 A 
ATOM     12  C   UNL     1       9.470   1.068   4.604  0.00  0.00    +0.123 A 
ATOM     13  C   UNL     1       9.278   0.927   3.240  0.00  0.00    +0.039 A 
ATOM     14  C   UNL     1       8.079   0.434   2.759  0.00  0.00    +0.009 A 
ATOM     15  F   UNL     1      10.640   1.550   5.076  0.00  0.00    -0.205 F 
ENDBRANCH   4   9
BRANCH   4  16
ATOM     16  C   UNL     1       5.110  -1.378   4.139  0.00  0.00    +0.037 C 
ATOM     17  C   UNL     1       3.823  -1.961   3.552  0.00  0.00    +0.007 C 
ENDBRANCH   4  16
BRANCH   1  18
ATOM     18  C   UNL     1       3.745   1.447   0.644  0.00  0.00    +0.213 C 
BRANCH  18  20
ATOM     19  N   UNL     1       1.362   1.593  -0.002  0.00  0.00    -0.311 N 
ATOM     20  C   UNL     1       2.331   0.926   0.654  0.00  0.00    +0.231 C 
ATOM     21  O   UNL     1       2.066  -0.095   1.254  0.00  0.00    -0.274 OA
ATOM     22  H   UNL     1       1.574   2.409  -0.482  0.00  0.00    +0.149 HD
BRANCH  19  23
ATOM     23  C   UNL     1      -0.013   1.086   0.008  0.00  0.00    +0.070 C 
ATOM     24  C   UNL     1      -0.729   1.579   1.267  0.00  0.00    +0.028 C 
BRANCH  23  25
ATOM     25  C   UNL     1      -0.753   1.593  -1.232  0.00  0.00    +0.022 C 
BRANCH  25  26
ATOM     26  C   UNL     1      -0.111   0.998  -2.487  0.00  0.00    +0.002 C 
BRANCH  26  27
ATOM     27  C   UNL     1      -0.851   1.505  -3.727  0.00  0.00    -0.000 C 
BRANCH  27  29
ATOM     28  C   UNL     1      -0.950   1.417  -6.221  0.00  0.00    +0.004 C 
ATOM     29  C   UNL     1      -0.210   0.910  -4.982  0.00  0.00    -0.003 C 
ENDBRANCH  27  29
ENDBRANCH  26  27
ENDBRANCH  25  26
ENDBRANCH  23  25
ENDBRANCH  19  23
ENDBRANCH  18  20
ENDBRANCH   1  18
TORSDOF 9
