REMARK  Name = ZINC38700793
REMARK  13 active torsions:
REMARK  status: ('A' for Active; 'I' for Inactive)
REMARK    1  A    between atoms: C_1  and  C_2
REMARK    2  A    between atoms: C_2  and  C_3
REMARK    3  A    between atoms: C_3  and  C_4
REMARK    4  A    between atoms: C_4  and  O_5
REMARK    5  A    between atoms: O_5  and  C_6
REMARK    6  A    between atoms: C_11  and  C_12
REMARK    7  A    between atoms: C_17  and  O_26
REMARK    8  A    between atoms: C_21  and  N_25
REMARK    9  A    between atoms: C_22  and  C_23
REMARK   10  A    between atoms: O_26  and  C_27
REMARK   11  A    between atoms: C_27  and  C_29
REMARK   12  A    between atoms: C_30  and  C_39
REMARK   13  A    between atoms: C_34  and  C_38
REMARK                            x       y       z     vdW  Elec       q    Type
REMARK                         _______ _______ _______ _____ _____    ______ ____
ROOT
ATOM      1  C   UNL     1       2.717  -3.472  -4.795  0.00  0.00    +0.101 C 
ATOM      2  C   UNL     1       4.203  -3.694  -4.897  0.00  0.00    +0.008 A 
ATOM      3  C   UNL     1       5.044  -3.105  -3.969  0.00  0.00    +0.012 A 
ATOM      4  C   UNL     1       6.409  -3.297  -4.047  0.00  0.00    +0.047 A 
ATOM      5  C   UNL     1       6.942  -4.084  -5.058  0.00  0.00    +0.136 A 
ATOM      6  C   UNL     1       6.103  -4.677  -5.987  0.00  0.00    +0.093 A 
ATOM      7  C   UNL     1       4.730  -4.482  -5.908  0.00  0.00    +0.138 A 
ATOM      8  O   UNL     1       3.922  -5.068  -6.826  0.00  0.00    -0.441 OA
ATOM      9  C   UNL     1       2.676  -4.604  -7.015  0.00  0.00    +0.199 C 
ATOM     10  C   UNL     1       2.050  -3.844  -6.090  0.00  0.00    +0.098 C 
ENDROOT
BRANCH   1  16
ATOM     11  C   UNL     1       1.520  -3.727  -2.607  0.00  0.00    +0.125 A 
ATOM     12  C   UNL     1       1.003  -4.514  -1.588  0.00  0.00    +0.046 A 
ATOM     13  C   UNL     1       1.131  -5.888  -1.645  0.00  0.00    +0.004 A 
ATOM     14  C   UNL     1       1.773  -6.480  -2.718  0.00  0.00    +0.001 A 
ATOM     15  C   UNL     1       2.290  -5.698  -3.734  0.00  0.00    +0.008 A 
ATOM     16  C   UNL     1       2.159  -4.323  -3.684  0.00  0.00    +0.007 A 
BRANCH  11  17
ATOM     17  O   UNL     1       1.395  -2.375  -2.553  0.00  0.00    -0.492 OA
BRANCH  17  18
ATOM     18  C   UNL     1       0.725  -1.831  -1.414  0.00  0.00    +0.229 C 
BRANCH  18  19
ATOM     19  C   UNL     1       0.682  -0.305  -1.529  0.00  0.00    +0.041 C 
BRANCH  19  21
ATOM     20  C   UNL     1      -0.079   1.803  -0.425  0.00  0.00    +0.004 C 
ATOM     21  C   UNL     1      -0.035   0.278  -0.310  0.00  0.00    -0.000 C 
ENDBRANCH  19  21
ENDBRANCH  18  19
ENDBRANCH  17  18
ENDBRANCH  11  17
ENDBRANCH   1  16
BRANCH   9  22
ATOM     22  N   UNL     1       2.020  -4.913  -8.180  0.00  0.00    -0.328 N 
ATOM     23  H   UNL     1       2.456  -5.459  -8.853  0.00  0.00    +0.145 HD
ATOM     24  H   UNL     1       1.119  -4.585  -8.331  0.00  0.00    +0.145 HD
ENDBRANCH   9  22
BRANCH  10  25
ATOM     25  C   UNL     1       0.720  -3.382  -6.352  0.00  0.00    +0.101 C 
ATOM     26  N   UNL     1      -0.335  -3.015  -6.559  0.00  0.00    -0.191 NA
ENDBRANCH  10  25
BRANCH   5  27
ATOM     27  O   UNL     1       8.286  -4.274  -5.136  0.00  0.00    -0.420 OA
BRANCH  27  28
ATOM     28  C   UNL     1       8.947  -3.706  -6.165  0.00  0.00    +0.380 C 
ATOM     29  O   UNL     1       8.360  -2.963  -6.928  0.00  0.00    -0.241 OA
BRANCH  28  30
ATOM     30  C   UNL     1      10.374  -3.984  -6.364  0.00  0.00    +0.216 A 
ATOM     31  C   UNL     1      11.141  -3.466  -7.359  0.00  0.00    +0.010 A 
ATOM     32  C   UNL     1      12.482  -4.015  -7.165  0.00  0.00    +0.024 A 
ATOM     33  C   UNL     1      13.699  -3.875  -7.837  0.00  0.00    +0.012 A 
ATOM     34  C   UNL     1      14.802  -4.544  -7.388  0.00  0.00    +0.004 A 
ATOM     35  C   UNL     1      14.721  -5.361  -6.268  0.00  0.00    -0.047 A 
ATOM     36  C   UNL     1      13.531  -5.513  -5.591  0.00  0.00    +0.050 A 
ATOM     37  C   UNL     1      12.395  -4.842  -6.029  0.00  0.00    +0.137 A 
ATOM     38  O   UNL     1      11.125  -4.789  -5.583  0.00  0.00    -0.448 OA
ATOM     39  C   UNL     1      15.949  -6.091  -5.789  0.00  0.00    +0.044 C 
ATOM     40  C   UNL     1      10.698  -2.519  -8.444  0.00  0.00    +0.048 C 
ENDBRANCH  28  30
ENDBRANCH  27  28
ENDBRANCH   5  27
TORSDOF 10
