REMARK  Name = ZINC36660266
REMARK  13 active torsions:
REMARK  status: ('A' for Active; 'I' for Inactive)
REMARK    1  A    between atoms: C_1  and  C_2
REMARK    2  A    between atoms: C_2  and  C_3
REMARK    3  A    between atoms: N_12  and  C_13
REMARK    4  A    between atoms: C_13  and  C_14
REMARK    5  A    between atoms: C_14  and  N_15
REMARK    6  A    between atoms: N_15  and  C_16
REMARK    7  A    between atoms: N_15  and  C_18
REMARK    8  A    between atoms: C_16  and  C_17
REMARK    9  A    between atoms: C_18  and  C_19
REMARK   10  A    between atoms: C_20  and  C_22
REMARK   11  A    between atoms: N_27  and  S_28
REMARK   12  A    between atoms: S_28  and  C_31
REMARK   13  A    between atoms: C_34  and  C_37
REMARK                            x       y       z     vdW  Elec       q    Type
REMARK                         _______ _______ _______ _____ _____    ______ ____
ROOT
ATOM      1  C   UNL     1      -0.336  -2.206  -1.574  0.00  0.00    -0.046 A 
ATOM      2  C   UNL     1      -0.640  -2.532  -2.888  0.00  0.00    +0.006 A 
ATOM      3  C   UNL     1       0.340  -2.841  -3.795  0.00  0.00    +0.029 A 
ATOM      4  C   UNL     1       1.702  -2.837  -3.416  0.00  0.00    +0.080 A 
ATOM      5  C   UNL     1       1.975  -2.501  -2.070  0.00  0.00    +0.041 A 
ATOM      6  C   UNL     1       0.987  -2.187  -1.170  0.00  0.00    +0.021 A 
ATOM      7  S   UNL     1       3.747  -2.608  -2.005  0.00  0.00    -0.052 S 
ATOM      8  C   UNL     1       4.006  -3.077  -3.709  0.00  0.00    +0.168 A 
ATOM      9  N   UNL     1       2.781  -3.115  -4.179  0.00  0.00    -0.224 NA
ATOM     10  N   UNL     1       5.198  -3.336  -4.368  0.00  0.00    -0.251 N 
ATOM     11  C   UNL     1       6.368  -3.243  -3.705  0.00  0.00    +0.240 C 
ATOM     12  O   UNL     1       6.373  -3.028  -2.512  0.00  0.00    -0.273 OA
ENDROOT
BRANCH  11  13
ATOM     13  C   UNL     1       7.669  -3.408  -4.447  0.00  0.00    +0.166 C 
ATOM     14  C   UNL     1       8.088  -4.893  -4.449  0.00  0.00    +0.031 C 
ATOM     15  C   UNL     1       9.628  -4.820  -4.269  0.00  0.00    +0.019 C 
ATOM     16  C   UNL     1       9.773  -3.601  -3.324  0.00  0.00    +0.110 C 
ATOM     17  N   UNL     1       8.731  -2.652  -3.768  0.00  0.00    -0.165 NA
BRANCH  17  18
ATOM     18  S   UNL     1       8.754  -1.012  -3.540  0.00  0.00    +0.062 S 
ATOM     19  O   UNL     1      10.120  -0.624  -3.516  0.00  0.00    -0.153 OA
ATOM     20  O   UNL     1       7.821  -0.461  -4.460  0.00  0.00    -0.153 OA
BRANCH  18  21
ATOM     21  C   UNL     1       8.114  -0.701  -1.928  0.00  0.00    +0.106 A 
ATOM     22  C   UNL     1       6.781  -0.371  -1.765  0.00  0.00    +0.029 A 
ATOM     23  C   UNL     1       6.279  -0.127  -0.500  0.00  0.00    +0.005 A 
ATOM     24  C   UNL     1       7.109  -0.214   0.602  0.00  0.00    -0.050 A 
ATOM     25  C   UNL     1       8.442  -0.546   0.439  0.00  0.00    +0.005 A 
ATOM     26  C   UNL     1       8.943  -0.794  -0.825  0.00  0.00    +0.029 A 
ATOM     27  C   UNL     1       6.562   0.052   1.980  0.00  0.00    +0.044 C 
ENDBRANCH  18  21
ENDBRANCH  17  18
ENDBRANCH  11  13
BRANCH   1  29
ATOM     28  C   UNL     1      -1.712  -0.367  -0.642  0.00  0.00    +0.009 C 
ATOM     29  C   UNL     1      -1.434  -1.871  -0.599  0.00  0.00    +0.032 C 
ENDBRANCH   1  29
BRANCH  10  30
ATOM     30  C   UNL     1       5.186  -3.709  -5.785  0.00  0.00    +0.097 C 
BRANCH  30  31
ATOM     31  C   UNL     1       5.159  -2.445  -6.645  0.00  0.00    -0.059 C 
BRANCH  31  32
ATOM     32  N   UNL     1       5.146  -2.819  -8.066  0.00  0.00    +0.380 N 
ATOM     33  H   UNL     1       5.931  -3.422  -8.261  0.00  0.00    -0.082 HD
BRANCH  32  34
ATOM     34  C   UNL     1       3.897  -3.527  -8.375  0.00  0.00    -0.082 C 
ATOM     35  C   UNL     1       3.953  -4.058  -9.809  0.00  0.00    -0.017 C 
ENDBRANCH  32  34
BRANCH  32  36
ATOM     36  C   UNL     1       5.241  -1.609  -8.892  0.00  0.00    -0.082 C 
ATOM     37  C   UNL     1       6.604  -0.948  -8.675  0.00  0.00    -0.017 C 
ENDBRANCH  32  36
ENDBRANCH  31  32
ENDBRANCH  30  31
ENDBRANCH  10  30
TORSDOF 9
