REMARK  Name = ZINC35999505
REMARK  4 active torsions:
REMARK  status: ('A' for Active; 'I' for Inactive)
REMARK    1  A    between atoms: C_1  and  C_2
REMARK    2  A    between atoms: C_2  and  C_3
REMARK    3  A    between atoms: C_2  and  C_4
REMARK    4  A    between atoms: C_7  and  C_10
REMARK                            x       y       z     vdW  Elec       q    Type
REMARK                         _______ _______ _______ _____ _____    ______ ____
ROOT
ATOM      1  C   UNL     1       2.707  -1.868  -4.752  0.00  0.00    +0.032 C 
ATOM      2  C   UNL     1       2.693  -3.396  -4.766  0.00  0.00    +0.064 C 
ATOM      3  C   UNL     1       3.397  -3.851  -6.036  0.00  0.00    +0.048 C 
ATOM      4  N   UNL     1       2.770  -4.653  -6.817  0.00  0.00    -0.282 NA
ATOM      5  C   UNL     1       3.281  -5.105  -8.117  0.00  0.00    +0.126 C 
ATOM      6  C   UNL     1       2.234  -6.091  -8.681  0.00  0.00    +0.028 C 
ATOM      7  C   UNL     1       1.944  -7.141  -7.605  0.00  0.00    +0.002 C 
ATOM      8  C   UNL     1       3.215  -7.913  -7.253  0.00  0.00    +0.002 C 
ATOM      9  C   UNL     1       4.306  -6.944  -6.780  0.00  0.00    +0.024 C 
ATOM     10  C   UNL     1       4.564  -5.912  -7.883  0.00  0.00    +0.094 C 
ATOM     11  N   UNL     1       5.695  -5.051  -7.654  0.00  0.00    -0.344 N 
ATOM     12  C   UNL     1       5.697  -3.892  -7.027  0.00  0.00    +0.081 C 
ATOM     13  C   UNL     1       4.741  -3.318  -6.260  0.00  0.00    +0.052 C 
ATOM     14  C   UNL     1       5.069  -2.088  -5.619  0.00  0.00    +0.167 C 
ATOM     15  O   UNL     1       6.186  -1.639  -5.779  0.00  0.00    -0.292 OA
ATOM     16  C   UNL     1       4.121  -1.322  -4.764  0.00  0.00    +0.088 C 
ATOM     17  H   UNL     1       6.549  -5.358  -7.998  0.00  0.00    +0.146 HD
ENDROOT
BRANCH   1  21
ATOM     18  C   UNL     1       0.707  -0.490  -1.238  0.00  0.00    -0.045 A 
ATOM     19  C   UNL     1       0.222  -0.151  -2.487  0.00  0.00    +0.004 A 
ATOM     20  C   UNL     1       0.869  -0.597  -3.624  0.00  0.00    +0.004 A 
ATOM     21  C   UNL     1       2.002  -1.381  -3.513  0.00  0.00    -0.043 A 
ATOM     22  C   UNL     1       2.488  -1.720  -2.263  0.00  0.00    +0.004 A 
ATOM     23  C   UNL     1       1.843  -1.270  -1.126  0.00  0.00    +0.004 A 
BRANCH  18  25
ATOM     24  C   UNL     1      -0.019   1.526   0.010  0.00  0.00    +0.012 C 
ATOM     25  C   UNL     1       0.002  -0.004   0.002  0.00  0.00    +0.013 C 
ATOM     26  C   UNL     1      -1.433  -0.534   0.013  0.00  0.00    +0.012 C 
ENDBRANCH  18  25
ENDBRANCH   1  21
TORSDOF 2
