REMARK  Name = ZINC12275004
REMARK  4 active torsions:
REMARK  status: ('A' for Active; 'I' for Inactive)
REMARK    1  A    between atoms: C_6  and  C_7
REMARK    2  A    between atoms: C_14  and  C_15
REMARK    3  A    between atoms: C_19  and  C_20
REMARK    4  A    between atoms: C_19  and  O_27
REMARK                            x       y       z     vdW  Elec       q    Type
REMARK                         _______ _______ _______ _____ _____    ______ ____
ROOT
ATOM      1  C   UNL     1      -0.753   1.157  -0.258  0.00  0.00    +0.070 C 
ATOM      2  C   UNL     1       0.724   1.494  -0.077  0.00  0.00    +0.110 C 
ATOM      3  C   UNL     1       0.985   2.958  -0.310  0.00  0.00    +0.224 C 
ATOM      4  O   UNL     1       1.768   3.563   0.391  0.00  0.00    -0.275 OA
ATOM      5  N   UNL     1       0.324   3.594  -1.326  0.00  0.00    -0.231 N 
ATOM      6  C   UNL     1      -0.730   2.943  -1.950  0.00  0.00    +0.087 C 
ATOM      7  C   UNL     1      -1.274   1.771  -1.538  0.00  0.00    +0.065 C 
ATOM      8  S   UNL     1      -1.211   3.950  -3.324  0.00  0.00    -0.104 S 
ATOM      9  C   UNL     1      -0.065   5.359  -3.075  0.00  0.00    +0.136 C 
ATOM     10  C   UNL     1       0.691   4.913  -1.811  0.00  0.00    +0.175 C 
ENDROOT
BRANCH   1  16
ATOM     11  C   UNL     1      -1.433   3.036   1.248  0.00  0.00    +0.007 A 
ATOM     12  C   UNL     1      -2.155   3.537   2.315  0.00  0.00    +0.038 A 
ATOM     13  C   UNL     1      -2.974   2.698   3.050  0.00  0.00    +0.123 A 
ATOM     14  C   UNL     1      -3.074   1.358   2.713  0.00  0.00    +0.038 A 
ATOM     15  C   UNL     1      -2.355   0.861   1.642  0.00  0.00    +0.007 A 
ATOM     16  C   UNL     1      -1.537   1.700   0.909  0.00  0.00    -0.039 A 
ATOM     17  F   UNL     1      -3.676   3.185   4.097  0.00  0.00    -0.205 F 
ENDBRANCH   1  16
BRANCH  10  18
ATOM     18  C   UNL     1       0.427   5.916  -0.717  0.00  0.00    +0.004 A 
ATOM     19  C   UNL     1      -0.747   5.853   0.009  0.00  0.00    +0.011 A 
ATOM     20  C   UNL     1      -0.988   6.769   1.016  0.00  0.00    +0.039 A 
ATOM     21  C   UNL     1      -0.056   7.756   1.290  0.00  0.00    +0.123 A 
ATOM     22  C   UNL     1       1.117   7.821   0.558  0.00  0.00    +0.039 A 
ATOM     23  C   UNL     1       1.358   6.901  -0.445  0.00  0.00    +0.011 A 
ATOM     24  F   UNL     1      -0.293   8.655   2.270  0.00  0.00    -0.205 F 
ENDBRANCH  10  18
BRANCH   7  25
ATOM     25  C   UNL     1      -2.311   1.134  -2.293  0.00  0.00    +0.098 C 
ATOM     26  N   UNL     1      -3.134   0.629  -2.892  0.00  0.00    -0.191 NA
ENDBRANCH   7  25
BRANCH  10  27
ATOM     27  O   UNL     1       2.092   4.918  -2.095  0.00  0.00    -0.366 OA
ATOM     28  H   UNL     1       2.423   5.764  -2.425  0.00  0.00    +0.212 HD
ENDBRANCH  10  27
TORSDOF 4
