REMARK  Name = ZINC02289059
REMARK  11 active torsions:
REMARK  status: ('A' for Active; 'I' for Inactive)
REMARK    1  A    between atoms: C_1  and  C_2
REMARK    2  A    between atoms: C_2  and  C_24
REMARK    3  A    between atoms: C_4  and  C_14
REMARK    4  A    between atoms: C_17  and  O_22
REMARK    5  A    between atoms: C_19  and  O_20
REMARK    6  A    between atoms: O_20  and  C_21
REMARK    7  A    between atoms: O_22  and  C_23
REMARK    8  A    between atoms: C_27  and  O_32
REMARK    9  A    between atoms: C_29  and  O_30
REMARK   10  A    between atoms: O_30  and  C_31
REMARK   11  A    between atoms: O_32  and  C_33
REMARK                            x       y       z     vdW  Elec       q    Type
REMARK                         _______ _______ _______ _____ _____    ______ ____
ROOT
ATOM      1  C   UNL     1       0.012   1.228  -0.161  0.00  0.00    +0.037 C 
ATOM      2  C   UNL     1       0.071  -0.261   0.183  0.00  0.00    +0.060 C 
ATOM      3  C   UNL     1      -1.341  -0.821   0.225  0.00  0.00    +0.057 C 
ATOM      4  C   UNL     1      -2.243  -0.056   1.179  0.00  0.00    +0.107 C 
ATOM      5  N   UNL     1      -1.785  -0.207   2.564  0.00  0.00    -0.335 N 
ATOM      6  C   UNL     1      -0.764   0.638   3.030  0.00  0.00    +0.049 A 
ATOM      7  C   UNL     1      -1.011   1.574   4.019  0.00  0.00    +0.025 A 
ATOM      8  C   UNL     1       0.014   2.393   4.458  0.00  0.00    +0.002 A 
ATOM      9  C   UNL     1       1.280   2.280   3.914  0.00  0.00    +0.002 A 
ATOM     10  C   UNL     1       1.533   1.346   2.925  0.00  0.00    +0.025 A 
ATOM     11  C   UNL     1       0.512   0.524   2.481  0.00  0.00    +0.049 A 
ATOM     12  N   UNL     1       0.739  -0.431   1.476  0.00  0.00    -0.333 N 
ATOM     13  H   UNL     1      -2.179  -0.875   3.146  0.00  0.00    +0.147 HD
ATOM     14  H   UNL     1       1.325  -1.188   1.635  0.00  0.00    +0.147 HD
ENDROOT
BRANCH   4  15
ATOM     15  C   UNL     1      -3.649  -0.585   1.063  0.00  0.00    +0.015 A 
ATOM     16  C   UNL     1      -4.081  -1.589   1.909  0.00  0.00    +0.012 A 
ATOM     17  C   UNL     1      -5.370  -2.076   1.805  0.00  0.00    +0.046 A 
ATOM     18  C   UNL     1      -6.234  -1.558   0.850  0.00  0.00    +0.124 A 
ATOM     19  C   UNL     1      -5.803  -0.552   0.001  0.00  0.00    +0.091 A 
ATOM     20  C   UNL     1      -4.511  -0.060   0.111  0.00  0.00    +0.128 A 
BRANCH  20  21
ATOM     21  O   UNL     1      -4.087   0.931  -0.717  0.00  0.00    -0.495 OA
ATOM     22  C   UNL     1      -5.028   1.424  -1.673  0.00  0.00    +0.277 C 
ENDBRANCH  20  21
BRANCH  18  23
ATOM     23  O   UNL     1      -7.501  -2.038   0.748  0.00  0.00    -0.495 OA
ATOM     24  C   UNL     1      -7.877  -3.076   1.656  0.00  0.00    +0.277 C 
ENDBRANCH  18  23
ENDBRANCH   4  15
BRANCH   2  25
ATOM     25  C   UNL     1       0.858  -0.984  -0.880  0.00  0.00    +0.017 A 
ATOM     26  C   UNL     1       2.021  -1.652  -0.544  0.00  0.00    +0.013 A 
ATOM     27  C   UNL     1       2.744  -2.315  -1.516  0.00  0.00    +0.046 A 
ATOM     28  C   UNL     1       2.305  -2.313  -2.833  0.00  0.00    +0.124 A 
ATOM     29  C   UNL     1       1.139  -1.645  -3.172  0.00  0.00    +0.091 A 
ATOM     30  C   UNL     1       0.411  -0.984  -2.194  0.00  0.00    +0.129 A 
BRANCH  30  31
ATOM     31  O   UNL     1      -0.735  -0.333  -2.522  0.00  0.00    -0.495 OA
ATOM     32  C   UNL     1      -1.135  -0.374  -3.894  0.00  0.00    +0.277 C 
ENDBRANCH  30  31
BRANCH  28  33
ATOM     33  O   UNL     1       3.017  -2.966  -3.789  0.00  0.00    -0.495 OA
ATOM     34  C   UNL     1       4.208  -3.633  -3.368  0.00  0.00    +0.277 C 
ENDBRANCH  28  33
ENDBRANCH   2  25
TORSDOF 6
