REMARK  Name = ZINC38971743
REMARK  4 active torsions:
REMARK  status: ('A' for Active; 'I' for Inactive)
REMARK    1  A    between atoms: C_6  and  C_7
REMARK    2  A    between atoms: N_13  and  N_14
REMARK    3  A    between atoms: C_15  and  C_16
REMARK    4  A    between atoms: C_21  and  O_22
REMARK                            x       y       z     vdW  Elec       q    Type
REMARK                         _______ _______ _______ _____ _____    ______ ____
ROOT
ATOM      1  C   UNL     1      -1.414  -0.846  -0.065  0.00  0.00    +0.264 C 
ATOM      2  N   UNL     1      -2.308  -0.049   0.790  0.00  0.00    -0.189 NA
ATOM      3  N   UNL     1      -2.455  -0.650   1.857  0.00  0.00    -0.219 N 
ATOM      4  C   UNL     1      -1.770  -1.824   1.914  0.00  0.00    +0.174 C 
ATOM      5  S   UNL     1      -1.764  -2.892   3.253  0.00  0.00    -0.015 S 
ATOM      6  N   UNL     1      -1.093  -2.027   0.758  0.00  0.00    -0.172 N 
ATOM      7  H   UNL     1      -3.005  -0.319   2.584  0.00  0.00    +0.176 HD
ENDROOT
BRANCH   1  13
ATOM      8  C   UNL     1      -0.218   1.302  -0.533  0.00  0.00    +0.010 A 
ATOM      9  C   UNL     1       0.930   2.014  -0.829  0.00  0.00    +0.039 A 
ATOM     10  C   UNL     1       2.135   1.350  -0.981  0.00  0.00    +0.123 A 
ATOM     11  C   UNL     1       2.190  -0.026  -0.835  0.00  0.00    +0.039 A 
ATOM     12  C   UNL     1       1.041  -0.735  -0.539  0.00  0.00    +0.010 A 
ATOM     13  C   UNL     1      -0.162  -0.071  -0.388  0.00  0.00    -0.002 A 
ATOM     14  F   UNL     1       3.257   2.044  -1.271  0.00  0.00    -0.205 F 
ENDBRANCH   1  13
BRANCH   6  15
ATOM     15  N   UNL     1      -0.275  -3.112   0.419  0.00  0.00    -0.183 NA
ATOM     16  C   UNL     1      -0.183  -4.132   1.219  0.00  0.00    +0.142 C 
BRANCH  16  17
ATOM     17  C   UNL     1       0.798  -5.196   0.946  0.00  0.00    +0.038 A 
ATOM     18  C   UNL     1       0.895  -6.298   1.800  0.00  0.00    +0.028 A 
ATOM     19  C   UNL     1       1.815  -7.292   1.538  0.00  0.00    +0.020 A 
ATOM     20  C   UNL     1       2.644  -7.202   0.432  0.00  0.00    +0.034 A 
ATOM     21  C   UNL     1       2.557  -6.117  -0.421  0.00  0.00    +0.061 A 
ATOM     22  C   UNL     1       1.634  -5.113  -0.176  0.00  0.00    +0.139 A 
ATOM     23 BR   UNL     1       3.694  -6.007  -1.928  0.00  0.00    -0.046 Br
ATOM     24 BR   UNL     1       1.947  -8.781   2.696  0.00  0.00    -0.050 Br
BRANCH  22  25
ATOM     25  O   UNL     1       1.544  -4.050  -1.016  0.00  0.00    -0.505 OA
ATOM     26  H   UNL     1       2.120  -3.310  -0.778  0.00  0.00    +0.292 HD
ENDBRANCH  22  25
ENDBRANCH  16  17
ENDBRANCH   6  15
TORSDOF 4
