REMARK  Name = ZINC49739064
REMARK  5 active torsions:
REMARK  status: ('A' for Active; 'I' for Inactive)
REMARK    1  A    between atoms: C_1  and  O_2
REMARK    2  A    between atoms: O_2  and  C_3
REMARK    3  A    between atoms: C_8  and  C_9
REMARK    4  A    between atoms: N_11  and  C_12
REMARK    5  A    between atoms: C_12  and  C_13
REMARK                            x       y       z     vdW  Elec       q    Type
REMARK                         _______ _______ _______ _____ _____    ______ ____
ROOT
ATOM      1  C   UNL     1       2.764  -0.572   0.193  0.00  0.00    +0.249 C 
ATOM      2  O   UNL     1       2.868  -1.378   1.097  0.00  0.00    -0.270 OA
ATOM      3  N   UNL     1       3.372   0.627   0.285  0.00  0.00    -0.307 N 
ATOM      4  H   UNL     1       3.289   1.270  -0.437  0.00  0.00    +0.149 HD
ENDROOT
BRANCH   1  10
ATOM      5  C   UNL     1       0.605  -0.606  -1.054  0.00  0.00    +0.152 A 
ATOM      6  C   UNL     1      -0.129  -0.921  -2.189  0.00  0.00    +0.083 A 
ATOM      7  C   UNL     1       0.486  -1.534  -3.264  0.00  0.00    +0.025 A 
ATOM      8  C   UNL     1       1.836  -1.838  -3.219  0.00  0.00    +0.022 A 
ATOM      9  C   UNL     1       2.581  -1.533  -2.099  0.00  0.00    +0.057 A 
ATOM     10  C   UNL     1       1.972  -0.907  -1.006  0.00  0.00    +0.098 A 
ATOM     11 CL   UNL     1       4.273  -1.918  -2.049  0.00  0.00    -0.083 Cl
ATOM     12 CL   UNL     1      -1.823  -0.545  -2.258  0.00  0.00    -0.080 Cl
BRANCH   5  14
ATOM     13  C   UNL     1      -0.017   1.425   0.010  0.00  0.00    +0.277 C 
ATOM     14  O   UNL     1       0.002  -0.004   0.002  0.00  0.00    -0.493 OA
ENDBRANCH   5  14
ENDBRANCH   1  10
BRANCH   3  15
ATOM     15  C   UNL     1       4.159   0.960   1.475  0.00  0.00    +0.158 C 
BRANCH  15  16
ATOM     16  C   UNL     1       4.737   2.368   1.327  0.00  0.00    +0.276 C 
ATOM     17  C   UNL     1       5.544   2.711   2.554  0.00  0.00    +0.260 C 
ATOM     18  O   UNL     1       5.025   3.295   3.481  0.00  0.00    -0.271 OA
ATOM     19  N   UNL     1       6.847   2.364   2.615  0.00  0.00    -0.279 N 
ATOM     20  C   UNL     1       7.460   1.804   1.486  0.00  0.00    +0.076 A 
ATOM     21  C   UNL     1       8.718   1.230   1.579  0.00  0.00    +0.027 A 
ATOM     22  C   UNL     1       9.303   0.670   0.459  0.00  0.00    +0.002 A 
ATOM     23  C   UNL     1       8.636   0.679  -0.752  0.00  0.00    +0.004 A 
ATOM     24  C   UNL     1       7.383   1.254  -0.853  0.00  0.00    +0.047 A 
ATOM     25  C   UNL     1       6.793   1.823   0.263  0.00  0.00    +0.143 A 
ATOM     26  O   UNL     1       5.575   2.419   0.171  0.00  0.00    -0.476 OA
ATOM     27  H   UNL     1       7.353   2.501   3.432  0.00  0.00    +0.155 HD
ENDBRANCH  15  16
ENDBRANCH   3  15
TORSDOF 4
