REMARK  Name = ZINC33478938
REMARK  7 active torsions:
REMARK  status: ('A' for Active; 'I' for Inactive)
REMARK    1  A    between atoms: C_1  and  C_2
REMARK    2  A    between atoms: C_2  and  C_4
REMARK    3  A    between atoms: C_7  and  N_10
REMARK    4  A    between atoms: C_15  and  C_27
REMARK    5  A    between atoms: C_18  and  C_23
REMARK    6  A    between atoms: C_18  and  C_24
REMARK    7  A    between atoms: C_32  and  O_33
REMARK                            x       y       z     vdW  Elec       q    Type
REMARK                         _______ _______ _______ _____ _____    ______ ____
ROOT
ATOM      1  N   UNL     1       2.505   4.310  -0.314  0.00  0.00    -0.210 N 
ATOM      2  C   UNL     1       3.685   3.682  -0.261  0.00  0.00    +0.229 C 
ATOM      3  O   UNL     1       3.856   2.495  -0.439  0.00  0.00    -0.275 OA
ATOM      4  C   UNL     1       4.773   4.683   0.055  0.00  0.00    +0.077 C 
ATOM      5  C   UNL     1       5.320   4.403   1.470  0.00  0.00    -0.023 C 
ATOM      6  N   UNL     1       5.388   5.737   2.119  0.00  0.00    +0.395 N 
ATOM      7  C   UNL     1       4.152   6.426   1.667  0.00  0.00    +0.045 C 
ATOM      8  C   UNL     1       4.000   6.023   0.185  0.00  0.00    +0.086 C 
ATOM      9  C   UNL     1       2.564   5.625  -0.077  0.00  0.00    +0.229 C 
ATOM     10  O   UNL     1       1.616   6.380  -0.072  0.00  0.00    -0.275 OA
ATOM     11  C   UNL     1       2.947   5.945   2.477  0.00  0.00    +0.002 C 
ATOM     12  H   UNL     1       5.414   5.612   3.212  0.00  0.00    -0.083 HD
ATOM     13  H   UNL     1       6.297   6.260   1.788  0.00  0.00    -0.083 HD
ENDROOT
BRANCH   1  17
ATOM     14  C   UNL     1      -1.071   2.331  -1.138  0.00  0.00    +0.017 A 
ATOM     15  C   UNL     1      -0.088   2.448  -2.129  0.00  0.00    +0.013 A 
ATOM     16  C   UNL     1       1.089   3.104  -1.853  0.00  0.00    +0.024 A 
ATOM     17  C   UNL     1       1.307   3.645  -0.590  0.00  0.00    +0.044 A 
ATOM     18  C   UNL     1       0.336   3.527   0.400  0.00  0.00    +0.024 A 
ATOM     19  C   UNL     1      -0.845   2.873   0.133  0.00  0.00    +0.013 A 
BRANCH  14  21
ATOM     20  C   UNL     1      -3.389   1.514  -0.362  0.00  0.00    +0.091 C 
ATOM     21  C   UNL     1      -2.333   1.638  -1.430  0.00  0.00    +0.160 C 
ATOM     22  O   UNL     1      -2.525   1.166  -2.531  0.00  0.00    -0.292 OA
ENDBRANCH  14  21
ENDBRANCH   1  17
BRANCH   5  23
ATOM     23  C   UNL     1       6.694   3.788   1.389  0.00  0.00    -0.019 A 
ATOM     24  C   UNL     1       7.814   4.596   1.389  0.00  0.00    +0.005 A 
ATOM     25  C   UNL     1       9.075   4.032   1.319  0.00  0.00    +0.000 A 
ATOM     26  C   UNL     1       9.217   2.659   1.240  0.00  0.00    +0.004 A 
ATOM     27  C   UNL     1       8.100   1.847   1.235  0.00  0.00    +0.045 A 
ATOM     28  C   UNL     1       6.834   2.410   1.310  0.00  0.00    +0.118 A 
BRANCH  28  29
ATOM     29  O   UNL     1       5.733   1.613   1.305  0.00  0.00    -0.507 OA
ATOM     30  H   UNL     1       5.845   0.521   1.242  0.00  0.00    +0.292 HD
ENDBRANCH  28  29
ENDBRANCH   5  23
BRANCH   7  31
ATOM     31  C   UNL     1       4.309   7.920   1.791  0.00  0.00    +0.346 C 
ATOM     32  O   UNL     1       3.869   8.647   0.932  0.00  0.00    -0.248 OA
ATOM     33  O   UNL     1       4.936   8.442   2.856  0.00  0.00    -0.248 OA
ENDBRANCH   7  31
TORSDOF 5
