REMARK  Name = ZINC09273627
REMARK  11 active torsions:
REMARK  status: ('A' for Active; 'I' for Inactive)
REMARK    1  A    between atoms: C_1  and  C_2
REMARK    2  A    between atoms: C_2  and  N_60
REMARK    3  A    between atoms: C_3  and  C_4
REMARK    4  A    between atoms: C_3  and  N_60
REMARK    5  A    between atoms: C_5  and  C_6
REMARK    6  A    between atoms: C_5  and  N_60
REMARK    7  A    between atoms: C_6  and  C_7
REMARK    8  A    between atoms: C_7  and  N_8
REMARK    9  A    between atoms: C_9  and  C_27
REMARK   10  A    between atoms: C_12  and  C_13
REMARK   11  A    between atoms: C_12  and  O_22
REMARK                            x       y       z     vdW  Elec       q    Type
REMARK                         _______ _______ _______ _____ _____    ______ ____
ROOT
ATOM      1  N   UNL     1       2.073   1.799  -0.946  0.00  0.00    -0.284 N 
ATOM      2  C   UNL     1       0.729   1.261  -1.177  0.00  0.00    +0.145 C 
ATOM      3  C   UNL     1       0.340   1.659  -2.583  0.00  0.00    +0.074 C 
ATOM      4  C   UNL     1      -0.849   1.367  -3.232  0.00  0.00    +0.168 C 
ATOM      5  C   UNL     1       1.424   2.383  -3.097  0.00  0.00    +0.249 C 
ATOM      6  O   UNL     1       1.490   2.874  -4.210  0.00  0.00    -0.282 OA
ATOM      7  C   UNL     1       2.478   2.447  -2.051  0.00  0.00    +0.288 C 
ATOM      8  O   UNL     1       3.550   3.004  -2.177  0.00  0.00    -0.266 OA
ENDROOT
BRANCH   4   9
ATOM      9  C   UNL     1      -1.023   1.732  -4.637  0.00  0.00    +0.171 A 
ATOM     10  C   UNL     1      -2.106   2.379  -5.154  0.00  0.00    +0.061 A 
ATOM     11  C   UNL     1      -1.866   2.536  -6.542  0.00  0.00    +0.021 A 
ATOM     12  C   UNL     1      -2.593   3.112  -7.590  0.00  0.00    +0.011 A 
ATOM     13  C   UNL     1      -2.081   3.099  -8.856  0.00  0.00    +0.001 A 
ATOM     14  C   UNL     1      -0.846   2.519  -9.111  0.00  0.00    +0.004 A 
ATOM     15  C   UNL     1      -0.113   1.947  -8.093  0.00  0.00    +0.047 A 
ATOM     16  C   UNL     1      -0.613   1.947  -6.797  0.00  0.00    +0.136 A 
ATOM     17  O   UNL     1      -0.139   1.476  -5.626  0.00  0.00    -0.452 OA
ENDBRANCH   4   9
BRANCH   2  18
ATOM     18  C   UNL     1      -0.241   1.851  -0.186  0.00  0.00    -0.021 A 
ATOM     19  C   UNL     1      -0.141   3.183   0.170  0.00  0.00    +0.006 A 
ATOM     20  C   UNL     1      -1.033   3.725   1.076  0.00  0.00    +0.002 A 
ATOM     21  C   UNL     1      -2.019   2.934   1.634  0.00  0.00    +0.020 A 
ATOM     22  C   UNL     1      -2.117   1.600   1.282  0.00  0.00    +0.041 A 
ATOM     23  C   UNL     1      -1.227   1.058   0.371  0.00  0.00    +0.025 A 
ATOM     24 CL   UNL     1      -3.355   0.605   1.982  0.00  0.00    -0.084 Cl
ENDBRANCH   2  18
BRANCH   4  25
ATOM     25  O   UNL     1      -1.847   0.745  -2.566  0.00  0.00    -0.503 OA
ATOM     26  H   UNL     1      -2.625   0.612  -3.180  0.00  0.00    +0.292 HD
ENDBRANCH   4  25
BRANCH   1  27
ATOM     27  C   UNL     1       2.847   1.653   0.288  0.00  0.00    +0.107 C 
BRANCH  27  28
ATOM     28  C   UNL     1       3.693   0.380   0.212  0.00  0.00    +0.000 C 
BRANCH  28  29
ATOM     29  C   UNL     1       4.503   0.228   1.502  0.00  0.00    -0.077 C 
BRANCH  29  30
ATOM     30  N   UNL     1       5.330  -0.993   1.404  0.00  0.00    +0.379 N 
ATOM     31  H   UNL     1       5.860  -0.967   0.526  0.00  0.00    -0.082 HD
BRANCH  30  33
ATOM     32  C   UNL     1       7.432  -0.087   2.261  0.00  0.00    -0.017 C 
ATOM     33  C   UNL     1       6.278  -1.053   2.536  0.00  0.00    -0.082 C 
ENDBRANCH  30  33
BRANCH  30  34
ATOM     34  C   UNL     1       4.464  -2.191   1.407  0.00  0.00    -0.082 C 
ATOM     35  C   UNL     1       5.284  -3.391   0.929  0.00  0.00    -0.017 C 
ENDBRANCH  30  34
ENDBRANCH  29  30
ENDBRANCH  28  29
ENDBRANCH  27  28
ENDBRANCH   1  27
TORSDOF 9
