REMARK  Name = ZINC63557881
REMARK  9 active torsions:
REMARK  status: ('A' for Active; 'I' for Inactive)
REMARK    1  A    between atoms: C_1  and  C_2
REMARK    2  A    between atoms: C_8  and  C_11
REMARK    3  A    between atoms: C_11  and  C_12
REMARK    4  A    between atoms: C_12  and  N_13
REMARK    5  A    between atoms: C_15  and  C_20
REMARK    6  A    between atoms: N_22  and  C_23
REMARK    7  A    between atoms: C_28  and  C_29
REMARK    8  A    between atoms: N_31  and  C_32
REMARK    9  A    between atoms: C_32  and  C_33
REMARK                            x       y       z     vdW  Elec       q    Type
REMARK                         _______ _______ _______ _____ _____    ______ ____
ROOT
ATOM      1  C   UNL     1      -1.508  -3.542   9.137  0.00  0.00    +0.222 C 
ATOM      2  O   UNL     1      -2.212  -4.519   8.996  0.00  0.00    -0.275 OA
ATOM      3  N   UNL     1      -1.295  -3.035  10.367  0.00  0.00    -0.285 N 
ATOM      4  H   UNL     1      -0.669  -2.304  10.490  0.00  0.00    +0.155 HD
ENDROOT
BRANCH   1   7
ATOM      5  N   UNL     1      -1.394  -2.599   5.614  0.00  0.00    -0.300 N 
ATOM      6  C   UNL     1      -1.250  -3.641   6.637  0.00  0.00    +0.121 C 
ATOM      7  C   UNL     1      -0.869  -2.895   7.935  0.00  0.00    +0.101 C 
ATOM      8  C   UNL     1      -1.466  -1.492   7.678  0.00  0.00    +0.110 C 
ATOM      9  C   UNL     1      -1.517  -1.382   6.170  0.00  0.00    +0.216 C 
ATOM     10  O   UNL     1      -1.652  -0.346   5.553  0.00  0.00    -0.276 OA
BRANCH   5  11
ATOM     11  C   UNL     1      -1.397  -2.853   4.171  0.00  0.00    +0.112 C 
BRANCH  11  12
ATOM     12  C   UNL     1       0.036  -2.781   3.638  0.00  0.00    +0.052 C 
BRANCH  12  20
ATOM     13  C   UNL     1      -0.097   1.520   0.008  0.00  0.00    +0.044 C 
ATOM     14  C   UNL     1      -0.059   0.014  -0.000  0.00  0.00    -0.050 A 
ATOM     15  C   UNL     1      -0.050  -0.662  -1.228  0.00  0.00    +0.005 A 
ATOM     16  C   UNL     1      -0.017  -2.008  -1.320  0.00  0.00    +0.026 A 
ATOM     17  C   UNL     1       0.011  -2.808  -0.144  0.00  0.00    +0.043 A 
ATOM     18  N   UNL     1       0.045  -4.107   0.027  0.00  0.00    -0.380 N 
ATOM     19  C   UNL     1       0.061  -4.389   1.467  0.00  0.00    +0.144 C 
ATOM     20  C   UNL     1       0.033  -3.042   2.153  0.00  0.00    -0.040 C 
ATOM     21  C   UNL     1       0.003  -2.118   1.166  0.00  0.00    -0.001 A 
ATOM     22  C   UNL     1      -0.028  -0.651   1.177  0.00  0.00    +0.013 A 
ATOM     23  H   UNL     1       0.056  -4.771  -0.680  0.00  0.00    +0.160 HD
ENDBRANCH  12  20
ENDBRANCH  11  12
ENDBRANCH   5  11
ENDBRANCH   1   7
BRANCH   3  24
ATOM     24  C   UNL     1      -1.975  -3.560  11.464  0.00  0.00    +0.046 A 
ATOM     25  C   UNL     1      -3.198  -4.195  11.288  0.00  0.00    +0.024 A 
ATOM     26  C   UNL     1      -3.870  -4.714  12.376  0.00  0.00    +0.002 A 
ATOM     27  C   UNL     1      -3.332  -4.608  13.649  0.00  0.00    +0.001 A 
ATOM     28  C   UNL     1      -2.120  -3.982  13.842  0.00  0.00    +0.015 A 
ATOM     29  C   UNL     1      -1.425  -3.456  12.750  0.00  0.00    +0.058 A 
BRANCH  29  30
ATOM     30  C   UNL     1      -0.124  -2.790  12.949  0.00  0.00    +0.246 C 
ATOM     31  O   UNL     1       0.432  -2.251  12.012  0.00  0.00    -0.270 OA
ATOM     32  N   UNL     1       0.448  -2.780  14.170  0.00  0.00    -0.307 N 
ATOM     33  H   UNL     1       0.004  -3.210  14.917  0.00  0.00    +0.149 HD
BRANCH  32  34
ATOM     34  C   UNL     1       1.740  -2.118  14.367  0.00  0.00    +0.139 C 
BRANCH  34  35
ATOM     35  C   UNL     1       2.155  -2.249  15.810  0.00  0.00    -0.030 A 
ATOM     36  C   UNL     1       1.778  -1.287  16.728  0.00  0.00    +0.005 A 
ATOM     37  C   UNL     1       2.159  -1.407  18.051  0.00  0.00    +0.000 A 
ATOM     38  C   UNL     1       2.917  -2.489  18.457  0.00  0.00    +0.000 A 
ATOM     39  C   UNL     1       3.294  -3.451  17.539  0.00  0.00    +0.000 A 
ATOM     40  C   UNL     1       2.909  -3.334  16.216  0.00  0.00    +0.005 A 
ENDBRANCH  34  35
ENDBRANCH  32  34
ENDBRANCH  29  30
ENDBRANCH   3  24
TORSDOF 8
