REMARK  Name = ZINC43466857
REMARK  4 active torsions:
REMARK  status: ('A' for Active; 'I' for Inactive)
REMARK    1  A    between atoms: C_1  and  C_2
REMARK    2  A    between atoms: C_8  and  C_10
REMARK    3  A    between atoms: N_12  and  N_13
REMARK    4  A    between atoms: N_16  and  C_17
REMARK                            x       y       z     vdW  Elec       q    Type
REMARK                         _______ _______ _______ _____ _____    ______ ____
ROOT
ATOM      1  C   UNL     1       1.921  -5.253   2.761  0.00  0.00    +0.267 C 
ATOM      2  O   UNL     1       2.866  -4.986   3.481  0.00  0.00    -0.268 OA
ATOM      3  N   UNL     1       1.532  -6.534   2.608  0.00  0.00    -0.229 N 
ATOM      4  H   UNL     1       0.779  -6.747   2.035  0.00  0.00    +0.173 HD
ENDROOT
BRANCH   1  12
ATOM      5  C   UNL     1      -0.019   1.526   0.010  0.00  0.00    +0.008 C 
ATOM      6  C   UNL     1       0.002  -0.004   0.002  0.00  0.00    -0.009 C 
ATOM      7  C   UNL     1      -1.435  -0.532   0.004  0.00  0.00    +0.009 C 
ATOM      8  C   UNL     1      -1.407  -2.041  -0.277  0.00  0.00    +0.043 C 
ATOM      9  C   UNL     1      -0.379  -2.671   0.616  0.00  0.00    -0.006 A 
ATOM     10  C   UNL     1       0.599  -2.027   1.315  0.00  0.00    -0.036 A 
ATOM     11  C   UNL     1       1.441  -2.819   2.082  0.00  0.00    +0.024 A 
ATOM     12  C   UNL     1       1.206  -4.181   2.062  0.00  0.00    +0.076 A 
ATOM     13  S   UNL     1      -0.192  -4.294   0.962  0.00  0.00    -0.088 S 
ATOM     14  C   UNL     1       0.742  -0.509   1.241  0.00  0.00    +0.039 C 
ENDBRANCH   1  12
BRANCH   3  15
ATOM     15  N   UNL     1       2.215  -7.558   3.277  0.00  0.00    -0.218 N 
ATOM     16  C   UNL     1       1.826  -8.840   3.123  0.00  0.00    +0.316 C 
ATOM     17  O   UNL     1       2.419  -9.729   3.704  0.00  0.00    -0.251 OA
ATOM     18  N   UNL     1       0.780  -9.136   2.327  0.00  0.00    -0.295 N 
ATOM     19  H   UNL     1       2.968  -7.345   3.850  0.00  0.00    +0.174 HD
ATOM     20  H   UNL     1       0.307  -8.427   1.864  0.00  0.00    +0.151 HD
BRANCH  18  21
ATOM     21  C   UNL     1       0.358 -10.528   2.160  0.00  0.00    +0.074 C 
ATOM     22  C   UNL     1       1.193 -11.187   1.060  0.00  0.00    +0.022 C 
ATOM     23  C   UNL     1       0.751 -12.641   0.886  0.00  0.00    +0.002 C 
ATOM     24  C   UNL     1      -0.728 -12.682   0.497  0.00  0.00    +0.000 C 
ATOM     25  C   UNL     1      -1.563 -12.024   1.597  0.00  0.00    +0.002 C 
ATOM     26  C   UNL     1      -1.121 -10.569   1.770  0.00  0.00    +0.022 C 
ENDBRANCH  18  21
ENDBRANCH   3  15
TORSDOF 3
