REMARK  Name = ZINC09418233
REMARK  9 active torsions:
REMARK  status: ('A' for Active; 'I' for Inactive)
REMARK    1  A    between atoms: C_1  and  C_2
REMARK    2  A    between atoms: C_3  and  C_15
REMARK    3  A    between atoms: N_5  and  C_7
REMARK    4  A    between atoms: C_16  and  C_17
REMARK    5  A    between atoms: C_17  and  O_19
REMARK    6  A    between atoms: O_19  and  C_20
REMARK    7  A    between atoms: C_20  and  C_21
REMARK    8  A    between atoms: N_23  and  C_24
REMARK    9  A    between atoms: C_24  and  C_25
REMARK                            x       y       z     vdW  Elec       q    Type
REMARK                         _______ _______ _______ _____ _____    ______ ____
ROOT
ATOM      1  C   UNL     1       2.491   2.154  -0.009  0.00  0.00    +0.020 C 
ATOM      2  C   UNL     1       2.936   1.237   0.880  0.00  0.00    +0.092 C 
ENDROOT
BRANCH   1   5
ATOM      3  C   UNL     1       1.440   5.148   0.015  0.00  0.00    +0.068 C 
ATOM      4  C   UNL     1       0.598   3.898   0.016  0.00  0.00    +0.069 A 
ATOM      5  C   UNL     1       1.083   2.568   0.005  0.00  0.00    +0.035 A 
ATOM      6  C   UNL     1      -0.021   1.732   0.012  0.00  0.00    +0.140 A 
ATOM      7  N   UNL     1      -1.117   2.516   0.020  0.00  0.00    -0.221 N 
ATOM      8  N   UNL     1      -0.706   3.853   0.028  0.00  0.00    -0.170 NA
ATOM      9 CL   UNL     1       0.002  -0.004   0.002  0.00  0.00    -0.061 Cl
BRANCH   7  10
ATOM     10  C   UNL     1      -2.445   2.067   0.023  0.00  0.00    +0.067 A 
ATOM     11  C   UNL     1      -2.792   0.919  -0.676  0.00  0.00    +0.030 A 
ATOM     12  C   UNL     1      -4.100   0.475  -0.667  0.00  0.00    +0.040 A 
ATOM     13  C   UNL     1      -5.067   1.181   0.029  0.00  0.00    +0.124 A 
ATOM     14  C   UNL     1      -4.724   2.330   0.722  0.00  0.00    +0.040 A 
ATOM     15  C   UNL     1      -3.416   2.773   0.721  0.00  0.00    +0.030 A 
ATOM     16  F   UNL     1      -6.347   0.749   0.031  0.00  0.00    -0.205 F 
ENDBRANCH   7  10
ENDBRANCH   1   5
BRANCH   2  17
ATOM     17  C   UNL     1       4.293   0.838   0.866  0.00  0.00    +0.332 C 
ATOM     18  O   UNL     1       5.060   1.319   0.053  0.00  0.00    -0.246 OA
BRANCH  17  19
ATOM     19  O   UNL     1       4.737  -0.077   1.753  0.00  0.00    -0.452 OA
BRANCH  19  20
ATOM     20  C   UNL     1       6.119  -0.434   1.681  0.00  0.00    +0.328 C 
BRANCH  20  21
ATOM     21  C   UNL     1       6.428  -1.460   2.740  0.00  0.00    +0.251 C 
ATOM     22  O   UNL     1       5.552  -1.848   3.484  0.00  0.00    -0.272 OA
ATOM     23  N   UNL     1       7.679  -1.946   2.862  0.00  0.00    -0.308 N 
ATOM     24  H   UNL     1       8.380  -1.636   2.267  0.00  0.00    +0.149 HD
BRANCH  23  25
ATOM     25  C   UNL     1       7.981  -2.944   3.892  0.00  0.00    +0.139 C 
BRANCH  25  26
ATOM     26  C   UNL     1       9.438  -3.320   3.816  0.00  0.00    -0.030 A 
ATOM     27  C   UNL     1       9.839  -4.372   3.015  0.00  0.00    +0.008 A 
ATOM     28  C   UNL     1      11.176  -4.715   2.941  0.00  0.00    +0.038 A 
ATOM     29  C   UNL     1      12.112  -4.010   3.678  0.00  0.00    +0.123 A 
ATOM     30  C   UNL     1      11.709  -2.959   4.484  0.00  0.00    +0.038 A 
ATOM     31  C   UNL     1      10.372  -2.615   4.553  0.00  0.00    +0.008 A 
ATOM     32  F   UNL     1      13.419  -4.347   3.610  0.00  0.00    -0.205 F 
ENDBRANCH  25  26
ENDBRANCH  23  25
ENDBRANCH  20  21
ENDBRANCH  19  20
ENDBRANCH  17  19
ENDBRANCH   2  17
TORSDOF 8
