REMARK  Name = ZINC04089590
REMARK  9 active torsions:
REMARK  status: ('A' for Active; 'I' for Inactive)
REMARK    1  A    between atoms: CD1_1  and  CG_2
REMARK    2  A    between atoms: CG_2  and  CD2_3
REMARK    3  A    between atoms: CG_2  and  CB_4
REMARK    4  A    between atoms: CB_4  and  CA_5
REMARK    5  A    between atoms: CA_5  and  C_7
REMARK    6  A    between atoms: CA_5  and  N_9
REMARK    7  A    between atoms: C_10  and  C_12
REMARK    8  A    between atoms: C_12  and  C_25
REMARK    9  A    between atoms: C_18  and  C_20
REMARK                            x       y       z     vdW  Elec       q    Type
REMARK                         _______ _______ _______ _____ _____    ______ ____
ROOT
ATOM      1  C   UNK A   0      -4.072   1.713  -4.899  0.00  0.00    +0.075 C 
ATOM      2  C   UNK A   0      -4.179   0.213  -4.616  0.00  0.00    +0.040 C 
ATOM      3  C   UNK A   0      -4.225  -0.015  -3.102  0.00  0.00    +0.109 C 
ATOM      4  N   UNK A   0      -3.057   0.633  -2.490  0.00  0.00    -0.303 N 
ATOM      5  C   UNK A   0      -2.812   2.055  -2.767  0.00  0.00    +0.109 C 
ATOM      6  C   UNK A   0      -2.778   2.258  -4.289  0.00  0.00    +0.040 C 
ATOM      7  C   UNK A   0      -2.228  -0.063  -1.686  0.00  0.00    +0.202 C 
ATOM      8  O   UNK A   0      -2.444  -1.235  -1.462  0.00  0.00    -0.277 OA
ENDROOT
BRANCH   7   9
ATOM      9  C   UNK A   0      -1.034   0.616  -1.067  0.00  0.00    +0.016 C 
ATOM     10  C   UNK A   0       0.167   0.609  -2.045  0.00  0.00    -0.009 C 
ATOM     11  C   UNK A   0       1.384   0.732  -1.099  0.00  0.00    -0.020 C 
ATOM     12  C   UNK A   0       0.880   0.241   0.271  0.00  0.00    -0.082 C 
ATOM     13  N   UNK A   0      -0.519  -0.147   0.080  0.00  0.00    +0.387 N 
ATOM     14  H   UNK A   0      -0.581  -1.154  -0.112  0.00  0.00    -0.085 HD
ATOM     15  H   UNK A   0      -1.063   0.074   0.922  0.00  0.00    -0.085 HD
ENDBRANCH   7   9
BRANCH   1  16
ATOM     16  C   UNK A   0      -4.060   1.943  -6.389  0.00  0.00    -0.032 A 
ATOM     17  C   UNK A   0      -4.223   0.878  -7.254  0.00  0.00    +0.004 A 
ATOM     18  C   UNK A   0      -4.217   1.089  -8.620  0.00  0.00    +0.000 A 
ATOM     19  C   UNK A   0      -4.037   2.365  -9.121  0.00  0.00    +0.000 A 
ATOM     20  C   UNK A   0      -3.868   3.430  -8.255  0.00  0.00    +0.000 A 
ATOM     21  C   UNK A   0      -3.880   3.219  -6.889  0.00  0.00    +0.004 A 
ENDBRANCH   1  16
BRANCH   1  23
ATOM     22  N   LEU A   1      -6.505   2.011  -4.570  0.00  0.00    -0.301 N 
ATOM     23  C   UNK A   0      -5.253   2.424  -4.291  0.00  0.00    +0.224 C 
ATOM     24  O   UNK A   0      -5.076   3.368  -3.550  0.00  0.00    -0.275 OA
ATOM     25  H   LEU A   1      -6.645   1.214  -5.104  0.00  0.00    +0.150 HD
BRANCH  22  26
ATOM     26  CA  LEU A   1      -7.655   2.767  -4.067  0.00  0.00    +0.186 C 
BRANCH  26  27
ATOM     27  C   LEU A   1      -7.969   3.894  -5.016  0.00  0.00    +0.376 C 
ATOM     28  O   LEU A   1      -7.302   4.050  -6.011  0.00  0.00    -0.244 OA
ATOM     29  OXT LEU A   1      -8.991   4.725  -4.756  0.00  0.00    -0.244 OA
ENDBRANCH  26  27
BRANCH  26  30
ATOM     30  CB  LEU A   1      -8.866   1.839  -3.957  0.00  0.00    +0.037 C 
BRANCH  30  32
ATOM     31  CD1 LEU A   1      -8.462   1.426  -1.526  0.00  0.00    +0.007 C 
ATOM     32  CG  LEU A   1      -8.593   0.767  -2.901  0.00  0.00    -0.015 C 
ATOM     33  CD2 LEU A   1      -9.751  -0.234  -2.878  0.00  0.00    +0.007 C 
ENDBRANCH  30  32
ENDBRANCH  26  30
ENDBRANCH  22  26
ENDBRANCH   1  23
TORSDOF 7
