REMARK  Name = ZINC32868690
REMARK  7 active torsions:
REMARK  status: ('A' for Active; 'I' for Inactive)
REMARK    1  A    between atoms: C_1  and  C_2
REMARK    2  A    between atoms: C_2  and  C_4
REMARK    3  A    between atoms: C_2  and  S_15
REMARK    4  A    between atoms: N_6  and  C_7
REMARK    5  A    between atoms: C_8  and  C_12
REMARK    6  A    between atoms: S_15  and  C_16
REMARK    7  A    between atoms: C_24  and  C_26
REMARK                            x       y       z     vdW  Elec       q    Type
REMARK                         _______ _______ _______ _____ _____    ______ ____
ROOT
ATOM      1  C   UNL     1       4.806   5.440  -1.321  0.00  0.00    +0.029 C 
ATOM      2  C   UNL     1       5.014   4.663  -0.019  0.00  0.00    +0.136 C 
ENDROOT
BRANCH   2   3
ATOM      3  C   UNL     1       6.457   4.243   0.089  0.00  0.00    +0.231 C 
ATOM      4  O   UNL     1       6.798   3.140  -0.285  0.00  0.00    -0.274 OA
ATOM      5  N   UNL     1       7.370   5.092   0.601  0.00  0.00    -0.278 N 
ATOM      6  H   UNL     1       7.061   6.092   0.940  0.00  0.00    +0.155 HD
BRANCH   5   7
ATOM      7  C   UNL     1       8.698   4.705   0.701  0.00  0.00    +0.084 A 
ATOM      8  C   UNL     1       9.775   5.434   1.191  0.00  0.00    +0.065 A 
ATOM      9  C   UNL     1      11.061   4.779   1.181  0.00  0.00    +0.022 A 
ATOM     10  C   UNL     1      11.108   3.527   0.691  0.00  0.00    +0.048 A 
ATOM     11  S   UNL     1       9.417   3.200   0.239  0.00  0.00    -0.081 S 
BRANCH   8  12
ATOM     12  C   UNL     1       9.613   6.801   1.696  0.00  0.00    +0.244 C 
ATOM     13  O   UNL     1       8.514   7.324   1.693  0.00  0.00    -0.270 OA
ATOM     14  N   UNL     1      10.680   7.478   2.163  0.00  0.00    -0.325 N 
ATOM     15  H   UNL     1      10.558   8.504   2.542  0.00  0.00    +0.145 HD
ATOM     16  H   UNL     1      11.673   7.005   2.166  0.00  0.00    +0.145 HD
ENDBRANCH   8  12
ENDBRANCH   5   7
ENDBRANCH   2   3
BRANCH   2  17
ATOM     17  S   UNL     1       3.957   3.194  -0.018  0.00  0.00    -0.093 S 
BRANCH  17  18
ATOM     18  C   UNL     1       2.370   3.960   0.001  0.00  0.00    +0.109 A 
ATOM     19  C   UNL     1       1.145   3.162   0.008  0.00  0.00    +0.032 A 
ATOM     20  C   UNL     1       1.166   1.765   0.000  0.00  0.00    +0.012 A 
ATOM     21  C   UNL     1      -0.013   1.076   0.008  0.00  0.00    +0.001 A 
ATOM     22  C   UNL     1      -1.232   1.746   0.017  0.00  0.00    +0.002 A 
ATOM     23  C   UNL     1      -1.286   3.108   0.031  0.00  0.00    +0.028 A 
ATOM     24  C   UNL     1      -0.096   3.848   0.024  0.00  0.00    +0.076 A 
ATOM     25  N   UNL     1      -0.090   5.187   0.031  0.00  0.00    -0.225 NA
ATOM     26  C   UNL     1       1.046   5.862   0.025  0.00  0.00    +0.197 A 
ATOM     27  N   UNL     1       2.245   5.281   0.010  0.00  0.00    -0.218 NA
BRANCH  26  28
ATOM     28  C   UNL     1       0.983   7.336   0.033  0.00  0.00    +0.172 A 
ATOM     29  C   UNL     1       2.050   8.181   0.028  0.00  0.00    +0.053 A 
ATOM     30  C   UNL     1       1.531   9.489   0.040  0.00  0.00    +0.042 A 
ATOM     31  C   UNL     1       0.187   9.381   0.051  0.00  0.00    +0.196 A 
ATOM     32  O   UNL     1      -0.140   8.080   0.042  0.00  0.00    -0.460 OA
ENDBRANCH  26  28
ENDBRANCH  17  18
ENDBRANCH   2  17
TORSDOF 6
