REMARK  Name = ZINC40460635
REMARK  7 active torsions:
REMARK  status: ('A' for Active; 'I' for Inactive)
REMARK    1  A    between atoms: C_4  and  C_7
REMARK    2  A    between atoms: C_8  and  C_17
REMARK    3  A    between atoms: N_18  and  N_19
REMARK    4  A    between atoms: C_24  and  C_27
REMARK    5  A    between atoms: C_27  and  C_28
REMARK    6  A    between atoms: N_30  and  C_31
REMARK    7  A    between atoms: C_34  and  N_37
REMARK                            x       y       z     vdW  Elec       q    Type
REMARK                         _______ _______ _______ _____ _____    ______ ____
ROOT
ATOM      1  N   UNL     1       2.735  -4.039  -3.459  0.00  0.00    -0.127 NA
ATOM      2  C   UNL     1       3.165  -5.060  -4.167  0.00  0.00    +0.183 C 
ATOM      3  N   UNL     1       4.402  -5.670  -4.118  0.00  0.00    -0.263 N 
ATOM      4  C   UNL     1       4.716  -6.699  -4.887  0.00  0.00    +0.233 C 
ATOM      5  O   UNL     1       5.805  -7.230  -4.839  0.00  0.00    -0.274 OA
ATOM      6  C   UNL     1       3.627  -7.174  -5.835  0.00  0.00    +0.149 C 
ATOM      7  S   UNL     1       2.283  -5.990  -5.411  0.00  0.00    -0.075 S 
ATOM      8  H   UNL     1       5.066  -5.331  -3.497  0.00  0.00    +0.157 HD
ENDROOT
BRANCH   1  10
ATOM      9  C   UNL     1       3.151  -2.416  -1.816  0.00  0.00    +0.145 C 
ATOM     10  N   UNL     1       3.579  -3.432  -2.520  0.00  0.00    -0.155 NA
BRANCH   9  12
ATOM     11  C   UNL     1       3.729  -0.703  -0.017  0.00  0.00    +0.056 A 
ATOM     12  C   UNL     1       4.034  -1.781  -0.834  0.00  0.00    +0.028 A 
ATOM     13  C   UNL     1       5.421  -2.162  -0.518  0.00  0.00    +0.009 A 
ATOM     14  C   UNL     1       6.279  -3.152  -0.996  0.00  0.00    +0.010 A 
ATOM     15  C   UNL     1       7.554  -3.255  -0.485  0.00  0.00    +0.001 A 
ATOM     16  C   UNL     1       7.986  -2.379   0.500  0.00  0.00    +0.002 A 
ATOM     17  C   UNL     1       7.150  -1.396   0.982  0.00  0.00    +0.026 A 
ATOM     18  C   UNL     1       5.858  -1.274   0.479  0.00  0.00    +0.048 A 
ATOM     19  N   UNL     1       4.823  -0.405   0.758  0.00  0.00    -0.354 N 
ATOM     20  H   UNL     1       4.862   0.313   1.409  0.00  0.00    +0.166 HD
BRANCH  11  24
ATOM     21  C   UNL     1       0.018   1.356   0.062  0.00  0.00    +0.000 A 
ATOM     22  C   UNL     1       1.203   2.071   0.050  0.00  0.00    +0.001 A 
ATOM     23  C   UNL     1       2.412   1.409   0.024  0.00  0.00    +0.010 A 
ATOM     24  C   UNL     1       2.440   0.012   0.011  0.00  0.00    -0.001 A 
ATOM     25  C   UNL     1       1.240  -0.704   0.024  0.00  0.00    +0.010 A 
ATOM     26  C   UNL     1       0.038  -0.028   0.050  0.00  0.00    +0.001 A 
ENDBRANCH  11  24
ENDBRANCH   9  12
ENDBRANCH   1  10
BRANCH   6  27
ATOM     27  C   UNL     1       3.211  -8.613  -5.524  0.00  0.00    +0.120 C 
BRANCH  27  28
ATOM     28  C   UNL     1       2.222  -9.085  -6.559  0.00  0.00    +0.219 C 
ATOM     29  O   UNL     1       1.883  -8.343  -7.456  0.00  0.00    -0.275 OA
ATOM     30  N   UNL     1       1.714 -10.331  -6.487  0.00  0.00    -0.285 N 
ATOM     31  H   UNL     1       2.035 -10.947  -5.809  0.00  0.00    +0.155 HD
BRANCH  30  32
ATOM     32  C   UNL     1       0.725 -10.737  -7.389  0.00  0.00    +0.034 A 
ATOM     33  C   UNL     1      -0.285 -11.595  -6.974  0.00  0.00    +0.025 A 
ATOM     34  C   UNL     1      -1.260 -11.994  -7.868  0.00  0.00    +0.034 A 
ATOM     35  C   UNL     1      -1.232 -11.539  -9.173  0.00  0.00    +0.126 A 
ATOM     36  C   UNL     1      -0.228 -10.684  -9.589  0.00  0.00    +0.034 A 
ATOM     37  C   UNL     1       0.747 -10.277  -8.699  0.00  0.00    +0.025 A 
BRANCH  35  38
ATOM     38  N   UNL     1      -2.279 -11.968 -10.127  0.00  0.00    +0.056 N 
ATOM     39  O   UNL     1      -3.158 -12.715  -9.765  0.00  0.00    -0.126 OA
ATOM     40  O   UNL     1      -2.256 -11.570 -11.269  0.00  0.00    -0.126 OA
ENDBRANCH  35  38
ENDBRANCH  30  32
ENDBRANCH  27  28
ENDBRANCH   6  27
TORSDOF 7
