REMARK  Name = ZINC36596915
REMARK  13 active torsions:
REMARK  status: ('A' for Active; 'I' for Inactive)
REMARK    1  A    between atoms: C_1  and  C_2
REMARK    2  A    between atoms: C_5  and  C_7
REMARK    3  A    between atoms: C_7  and  N_8
REMARK    4  A    between atoms: N_8  and  C_9
REMARK    5  A    between atoms: C_9  and  C_11
REMARK    6  A    between atoms: C_9  and  C_21
REMARK    7  A    between atoms: C_13  and  N_18
REMARK    8  A    between atoms: N_23  and  C_24
REMARK    9  A    between atoms: C_24  and  C_25
REMARK   10  A    between atoms: C_24  and  C_26
REMARK   11  A    between atoms: C_24  and  C_27
REMARK   12  A    between atoms: C_28  and  C_30
REMARK   13  A    between atoms: C_31  and  C_32
REMARK                            x       y       z     vdW  Elec       q    Type
REMARK                         _______ _______ _______ _____ _____    ______ ____
ROOT
ATOM      1  C   UNL     1       3.190  -2.962  -2.081  0.00  0.00    +0.195 C 
ENDROOT
BRANCH   1   2
ATOM      2  C   UNL     1       2.895  -1.485  -2.136  0.00  0.00    +0.002 A 
ATOM      3  C   UNL     1       2.217  -0.876  -1.096  0.00  0.00    +0.040 A 
ATOM      4  C   UNL     1       1.946   0.478  -1.147  0.00  0.00    +0.127 A 
ATOM      5  C   UNL     1       2.353   1.225  -2.237  0.00  0.00    +0.034 A 
ATOM      6  C   UNL     1       3.031   0.618  -3.276  0.00  0.00    +0.022 A 
ATOM      7  C   UNL     1       3.308  -0.737  -3.224  0.00  0.00    +0.047 A 
ATOM      8 CL   UNL     1       4.166  -1.499  -4.526  0.00  0.00    -0.083 Cl
BRANCH   4   9
ATOM      9  N   UNL     1       1.219   1.129  -0.033  0.00  0.00    +0.056 N 
ATOM     10  O   UNL     1       0.944   0.497   0.960  0.00  0.00    -0.126 OA
ATOM     11  O   UNL     1       0.901   2.292  -0.118  0.00  0.00    -0.126 OA
ENDBRANCH   4   9
ENDBRANCH   1   2
BRANCH   1  12
ATOM     12  C   UNL     1       4.591  -3.175  -1.568  0.00  0.00    +0.239 C 
ATOM     13  O   UNL     1       4.774  -3.812  -0.552  0.00  0.00    -0.273 OA
ATOM     14  N   UNL     1       5.640  -2.659  -2.238  0.00  0.00    -0.309 N 
ATOM     15  H   UNL     1       5.493  -2.149  -3.050  0.00  0.00    +0.149 HD
BRANCH  14  16
ATOM     16  C   UNL     1       7.002  -2.866  -1.740  0.00  0.00    +0.026 C 
ATOM     17  C   UNL     1       7.301  -4.366  -1.684  0.00  0.00    +0.031 C 
ATOM     18  C   UNL     1       7.998  -2.182  -2.677  0.00  0.00    +0.031 C 
ATOM     19  C   UNL     1       7.128  -2.268  -0.337  0.00  0.00    +0.031 C 
ENDBRANCH  14  16
ENDBRANCH   1  12
BRANCH   1  20
ATOM     20  N   UNL     1       2.236  -3.617  -1.183  0.00  0.00    -0.268 N 
ATOM     21  C   UNL     1       2.291  -3.386   0.144  0.00  0.00    +0.293 C 
ATOM     22  O   UNL     1       3.095  -2.588   0.590  0.00  0.00    -0.260 OA
BRANCH  21  23
ATOM     23  C   UNL     1       1.403  -4.078   1.029  0.00  0.00    -0.003 C 
ATOM     24  C   UNL     1       0.675  -4.646   1.754  0.00  0.00    -0.057 C 
BRANCH  24  25
ATOM     25  C   UNL     1      -0.212  -5.338   2.639  0.00  0.00    +0.025 A 
ATOM     26  C   UNL     1      -1.134  -6.259   2.131  0.00  0.00    +0.017 A 
ATOM     27  C   UNL     1      -1.985  -6.922   2.990  0.00  0.00    +0.001 A 
ATOM     28  C   UNL     1      -1.929  -6.678   4.351  0.00  0.00    +0.000 A 
ATOM     29  C   UNL     1      -1.020  -5.767   4.861  0.00  0.00    +0.001 A 
ATOM     30  C   UNL     1      -0.158  -5.101   4.016  0.00  0.00    +0.017 A 
ENDBRANCH  24  25
ENDBRANCH  21  23
BRANCH  20  31
ATOM     31  C   UNL     1       1.222  -4.524  -1.727  0.00  0.00    +0.184 C 
BRANCH  31  36
ATOM     32  C   UNL     1       3.626  -8.763  -3.030  0.00  0.00    +0.086 C 
ATOM     33  C   UNL     1       2.785  -7.782  -2.253  0.00  0.00    +0.102 A 
ATOM     34  C   UNL     1       2.175  -8.025  -1.080  0.00  0.00    +0.045 A 
ATOM     35  C   UNL     1       1.501  -6.837  -0.714  0.00  0.00    +0.046 A 
ATOM     36  C   UNL     1       1.740  -5.939  -1.687  0.00  0.00    +0.122 A 
ATOM     37  O   UNL     1       2.523  -6.515  -2.614  0.00  0.00    -0.463 OA
ENDBRANCH  31  36
ENDBRANCH  20  31
ENDBRANCH   1  20
TORSDOF 9
