REMARK  Name = ZINC07007187
REMARK  4 active torsions:
REMARK  status: ('A' for Active; 'I' for Inactive)
REMARK    1  A    between atoms: C_2  and  C_17
REMARK    2  A    between atoms: C_9  and  C_11
REMARK    3  A    between atoms: C_17  and  S_18
REMARK    4  A    between atoms: S_18  and  C_19
REMARK                            x       y       z     vdW  Elec       q    Type
REMARK                         _______ _______ _______ _____ _____    ______ ____
ROOT
ATOM      1  C   UNL     1      -0.017   1.391   0.010  0.00  0.00    +0.096 A 
ATOM      2  C   UNL     1       1.171   2.091   0.002  0.00  0.00    +0.060 A 
ATOM      3  N   UNL     1       2.315   1.413  -0.013  0.00  0.00    -0.225 NA
ATOM      4  C   UNL     1       2.324   0.104  -0.020  0.00  0.00    +0.199 A 
ATOM      5  N   UNL     1       1.195  -0.668  -0.013  0.00  0.00    -0.171 N 
ATOM      6  C   UNL     1       0.002  -0.004   0.002  0.00  0.00    +0.275 A 
ATOM      7  O   UNL     1      -1.046  -0.630   0.009  0.00  0.00    -0.266 OA
ATOM      8  N   UNL     1       1.391  -2.046  -0.022  0.00  0.00    -0.159 NA
ATOM      9  C   UNL     1       2.582  -2.565  -0.036  0.00  0.00    +0.105 A 
ATOM     10  S   UNL     1       3.622  -1.113  -0.038  0.00  0.00    -0.032 S 
ENDROOT
BRANCH   9  11
ATOM     11  C   UNL     1       2.982  -4.018  -0.048  0.00  0.00    +0.047 C 
ATOM     12  C   UNL     1       1.851  -4.853  -0.652  0.00  0.00    +0.010 C 
ATOM     13  C   UNL     1       2.257  -6.328  -0.664  0.00  0.00    +0.001 C 
ATOM     14  C   UNL     1       2.528  -6.795   0.767  0.00  0.00    +0.000 C 
ATOM     15  C   UNL     1       3.658  -5.959   1.371  0.00  0.00    +0.001 C 
ATOM     16  C   UNL     1       3.252  -4.484   1.383  0.00  0.00    +0.010 C 
ENDBRANCH   9  11
BRANCH   2  17
ATOM     17  C   UNL     1       1.173   3.598   0.010  0.00  0.00    +0.133 C 
BRANCH  17  18
ATOM     18  S   UNL     1       1.631   4.194   1.661  0.00  0.00    -0.078 S 
BRANCH  18  19
ATOM     19  C   UNL     1       1.589   5.949   1.507  0.00  0.00    +0.210 A 
ATOM     20  N   UNL     1       1.280   6.612   0.419  0.00  0.00    -0.144 NA
ATOM     21  H   UNL     1       1.198   8.722   0.134  0.00  0.00    +0.192 HD
ATOM     22  N   UNL     1       1.368   7.977   0.732  0.00  0.00    -0.246 N 
ATOM     23  C   UNL     1       1.736   8.050   2.028  0.00  0.00    +0.209 A 
ATOM     24  N   UNL     1       1.860   6.821   2.485  0.00  0.00    -0.188 NA
ATOM     25  N   UNL     1       1.940   9.210   2.752  0.00  0.00    -0.328 N 
ATOM     26  H   UNL     1       1.820  10.074   2.327  0.00  0.00    +0.145 HD
ATOM     27  H   UNL     1       2.205   9.161   3.684  0.00  0.00    +0.145 HD
ENDBRANCH  18  19
ENDBRANCH  17  18
ENDBRANCH   2  17
TORSDOF 4
