REMARK  Name = ZINC22240773
REMARK  6 active torsions:
REMARK  status: ('A' for Active; 'I' for Inactive)
REMARK    1  A    between atoms: C_1  and  N_2
REMARK    2  A    between atoms: N_2  and  C_3
REMARK    3  A    between atoms: N_2  and  C_16
REMARK    4  A    between atoms: C_3  and  C_4
REMARK    5  A    between atoms: C_16  and  C_17
REMARK    6  A    between atoms: C_30  and  C_32
REMARK                            x       y       z     vdW  Elec       q    Type
REMARK                         _______ _______ _______ _____ _____    ______ ____
ROOT
ATOM      1  C   UNL     1      -0.333  -0.702   1.105  0.00  0.00    +0.204 C 
ATOM      2  O   UNL     1      -0.313  -1.915   1.085  0.00  0.00    -0.277 OA
ATOM      3  N   UNL     1       0.002  -0.004   0.002  0.00  0.00    -0.259 N 
ATOM      4  C   UNL     1      -0.017   1.397   0.010  0.00  0.00    +0.058 A 
ATOM      5  C   UNL     1      -1.219   2.086   0.019  0.00  0.00    +0.025 A 
ATOM      6  C   UNL     1      -1.220   3.469  -0.001  0.00  0.00    +0.002 A 
ATOM      7  C   UNL     1      -0.026   4.166  -0.031  0.00  0.00    +0.002 A 
ATOM      8  C   UNL     1       1.178   3.486  -0.030  0.00  0.00    +0.025 A 
ATOM      9  C   UNL     1       1.187   2.102   0.002  0.00  0.00    +0.055 A 
ATOM     10  N   UNL     1       2.392   1.391   0.045  0.00  0.00    -0.284 N 
ATOM     11  C   UNL     1       2.608   0.355  -0.796  0.00  0.00    +0.219 C 
ATOM     12  O   UNL     1       3.623  -0.301  -0.695  0.00  0.00    -0.275 OA
ATOM     13  C   UNL     1       1.597   0.009  -1.857  0.00  0.00    +0.128 C 
ATOM     14  C   UNL     1       0.393  -0.694  -1.228  0.00  0.00    +0.194 C 
ATOM     15  H   UNL     1       3.172   1.673   0.768  0.00  0.00    +0.155 HD
ENDROOT
BRANCH  14  16
ATOM     16  C   UNL     1      -0.777  -0.678  -2.214  0.00  0.00    +0.409 C 
ATOM     17  F   UNL     1      -1.119   0.646  -2.510  0.00  0.00    -0.169 F 
ATOM     18  F   UNL     1      -0.404  -1.337  -3.390  0.00  0.00    -0.169 F 
ATOM     19  F   UNL     1      -1.876  -1.328  -1.643  0.00  0.00    -0.169 F 
ENDBRANCH  14  16
BRANCH   1  20
ATOM     20  C   UNL     1      -0.734   0.024   2.363  0.00  0.00    +0.019 C 
BRANCH  20  22
ATOM     21  C   UNL     1       0.148  -1.706   3.810  0.00  0.00    -0.095 C 
ATOM     22  N   UNL     1      -1.050  -0.954   3.413  0.00  0.00    +0.388 N 
ATOM     23  H   UNL     1      -1.777  -1.670   3.002  0.00  0.00    -0.081 HD
BRANCH  22  24
ATOM     24  C   UNL     1      -1.669  -0.299   4.574  0.00  0.00    -0.003 C 
BRANCH  24  25
ATOM     25  C   UNL     1      -2.199  -1.347   5.518  0.00  0.00    +0.094 A 
ATOM     26  N   UNL     1      -2.812  -0.936   6.659  0.00  0.00    -0.312 N 
ATOM     27  H   UNL     1      -2.910   0.139   6.874  0.00  0.00    +0.170 HD
ATOM     28  C   UNL     1      -3.305  -1.837   7.539  0.00  0.00    +0.259 A 
ATOM     29  O   UNL     1      -3.857  -1.483   8.565  0.00  0.00    -0.267 OA
ATOM     30  C   UNL     1      -3.151  -3.262   7.208  0.00  0.00    +0.065 A 
ATOM     31  C   UNL     1      -3.624  -4.269   8.046  0.00  0.00    +0.015 A 
ATOM     32  C   UNL     1      -3.452  -5.588   7.687  0.00  0.00    +0.001 A 
ATOM     33  C   UNL     1      -2.813  -5.918   6.499  0.00  0.00    +0.002 A 
ATOM     34  C   UNL     1      -2.338  -4.939   5.657  0.00  0.00    +0.028 A 
ATOM     35  C   UNL     1      -2.500  -3.594   6.000  0.00  0.00    +0.078 A 
ATOM     36  N   UNL     1      -2.052  -2.597   5.197  0.00  0.00    -0.236 NA
ENDBRANCH  24  25
ENDBRANCH  22  24
ENDBRANCH  20  22
ENDBRANCH   1  20
TORSDOF 5
