REMARK  Name = ZINC39653654
REMARK  12 active torsions:
REMARK  status: ('A' for Active; 'I' for Inactive)
REMARK    1  A    between atoms: C_1  and  C_2
REMARK    2  A    between atoms: C_2  and  O_3
REMARK    3  A    between atoms: O_3  and  C_4
REMARK    4  A    between atoms: C_7  and  C_10
REMARK    5  A    between atoms: C_10  and  C_11
REMARK    6  A    between atoms: C_11  and  N_12
REMARK    7  A    between atoms: C_13  and  C_15
REMARK    8  A    between atoms: C_26  and  C_28
REMARK    9  A    between atoms: C_30  and  O_36
REMARK   10  A    between atoms: C_32  and  O_34
REMARK   11  A    between atoms: O_34  and  C_35
REMARK   12  A    between atoms: O_36  and  C_37
REMARK                            x       y       z     vdW  Elec       q    Type
REMARK                         _______ _______ _______ _____ _____    ______ ____
ROOT
ATOM      1  C   UNL     1      -0.692  -9.749  -4.172  0.00  0.00    +0.100 C 
ATOM      2  C   UNL     1       0.528 -10.365  -4.894  0.00  0.00    +0.121 C 
ATOM      3  N   UNL     1      -0.017 -11.537  -5.617  0.00  0.00    -0.296 N 
ATOM      4  C   UNL     1      -1.331 -11.078  -6.127  0.00  0.00    +0.115 C 
ATOM      5  C   UNL     1      -1.910 -10.219  -4.985  0.00  0.00    -0.004 C 
ATOM      6  C   UNL     1      -2.836 -11.059  -4.111  0.00  0.00    -0.010 C 
ATOM      7  C   UNL     1      -4.067 -11.467  -4.925  0.00  0.00    -0.082 C 
ATOM      8  N   UNL     1      -4.764 -10.264  -5.397  0.00  0.00    +0.379 N 
ATOM      9  C   UNL     1      -3.898  -9.510  -6.311  0.00  0.00    -0.082 C 
ATOM     10  C   UNL     1      -2.660  -9.020  -5.555  0.00  0.00    -0.010 C 
ATOM     11  C   UNL     1       0.553 -12.748  -5.776  0.00  0.00    +0.247 C 
ATOM     12  O   UNL     1       1.582 -13.017  -5.188  0.00  0.00    -0.270 OA
ATOM     13  H   UNL     1      -5.607 -10.534  -5.880  0.00  0.00    -0.086 HD
ATOM     14  H   UNL     1      -5.004  -9.684  -4.607  0.00  0.00    -0.086 HD
ENDROOT
BRANCH  11  15
ATOM     15  C   UNL     1      -0.074 -13.750  -6.665  0.00  0.00    +0.044 A 
ATOM     16  C   UNL     1      -0.970 -13.343  -7.655  0.00  0.00    +0.059 A 
ATOM     17  C   UNL     1      -1.554 -14.285  -8.486  0.00  0.00    +0.124 A 
ATOM     18  C   UNL     1      -1.250 -15.630  -8.335  0.00  0.00    +0.091 A 
ATOM     19  C   UNL     1      -0.360 -16.038  -7.353  0.00  0.00    +0.124 A 
ATOM     20  C   UNL     1       0.234 -15.103  -6.521  0.00  0.00    +0.059 A 
BRANCH  19  21
ATOM     21  O   UNL     1      -0.065 -17.357  -7.210  0.00  0.00    -0.495 OA
ATOM     22  C   UNL     1      -0.709 -18.266  -8.105  0.00  0.00    +0.277 C 
ENDBRANCH  19  21
BRANCH  17  23
ATOM     23  O   UNL     1      -2.427 -13.890  -9.450  0.00  0.00    -0.495 OA
ATOM     24  C   UNL     1      -2.993 -14.913 -10.271  0.00  0.00    +0.277 C 
ENDBRANCH  17  23
ENDBRANCH  11  15
BRANCH   1  26
ATOM     25  N   UNL     1      -1.145  -7.532  -3.175  0.00  0.00    -0.315 N 
ATOM     26  C   UNL     1      -0.603  -8.245  -4.182  0.00  0.00    +0.218 C 
ATOM     27  O   UNL     1      -0.044  -7.676  -5.096  0.00  0.00    -0.275 OA
ATOM     28  H   UNL     1      -1.592  -7.987  -2.444  0.00  0.00    +0.149 HD
BRANCH  25  29
ATOM     29  C   UNL     1      -1.059  -6.069  -3.184  0.00  0.00    +0.109 C 
BRANCH  29  30
ATOM     30  C   UNL     1      -1.748  -5.510  -1.937  0.00  0.00    +0.054 C 
BRANCH  30  34
ATOM     31  C   UNL     1      -1.497  -1.244  -1.964  0.00  0.00    +0.121 A 
ATOM     32  C   UNL     1      -2.576  -1.880  -2.559  0.00  0.00    +0.046 A 
ATOM     33  C   UNL     1      -2.655  -3.260  -2.549  0.00  0.00    +0.007 A 
ATOM     34  C   UNL     1      -1.659  -4.006  -1.947  0.00  0.00    -0.046 A 
ATOM     35  C   UNL     1      -0.582  -3.374  -1.353  0.00  0.00    +0.007 A 
ATOM     36  C   UNL     1      -0.496  -1.995  -1.365  0.00  0.00    +0.046 A 
BRANCH  31  37
ATOM     37  O   UNL     1      -1.417   0.113  -1.973  0.00  0.00    -0.492 OA
BRANCH  37  39
ATOM     38  C   UNL     1      -2.221   2.326  -2.518  0.00  0.00    +0.048 C 
ATOM     39  C   UNL     1      -2.484   0.821  -2.607  0.00  0.00    +0.225 C 
ENDBRANCH  37  39
ENDBRANCH  31  37
ENDBRANCH  30  34
ENDBRANCH  29  30
ENDBRANCH  25  29
ENDBRANCH   1  26
TORSDOF 9
