REMARK  Name = ZINC39678334
REMARK  5 active torsions:
REMARK  status: ('A' for Active; 'I' for Inactive)
REMARK    1  A    between atoms: C_4  and  N_32
REMARK    2  A    between atoms: C_5  and  C_7
REMARK    3  A    between atoms: C_7  and  N_8
REMARK    4  A    between atoms: C_9  and  C_11
REMARK    5  A    between atoms: C_22  and  C_24
REMARK                            x       y       z     vdW  Elec       q    Type
REMARK                         _______ _______ _______ _____ _____    ______ ____
ROOT
ATOM      1  C   UNL     1       1.439  -4.635   3.419  0.00  0.00    +0.100 C 
ATOM      2  C   UNL     1       2.901  -4.192   3.650  0.00  0.00    +0.121 C 
ATOM      3  N   UNL     1       3.548  -5.356   4.300  0.00  0.00    -0.296 N 
ATOM      4  C   UNL     1       2.977  -6.532   3.601  0.00  0.00    +0.115 C 
ATOM      5  C   UNL     1       1.493  -6.172   3.387  0.00  0.00    -0.004 C 
ATOM      6  C   UNL     1       0.641  -6.754   4.511  0.00  0.00    -0.010 C 
ATOM      7  C   UNL     1       0.665  -8.283   4.424  0.00  0.00    -0.082 C 
ATOM      8  N   UNL     1       0.146  -8.708   3.119  0.00  0.00    +0.379 N 
ATOM      9  C   UNL     1       1.024  -8.221   2.047  0.00  0.00    -0.082 C 
ATOM     10  C   UNL     1       1.015  -6.690   2.034  0.00  0.00    -0.010 C 
ATOM     11  C   UNL     1       4.451  -5.347   5.300  0.00  0.00    +0.249 C 
ATOM     12  O   UNL     1       4.962  -6.387   5.666  0.00  0.00    -0.270 OA
ATOM     13  H   UNL     1       0.106  -9.716   3.087  0.00  0.00    -0.086 HD
ATOM     14  H   UNL     1      -0.781  -8.333   2.989  0.00  0.00    -0.086 HD
ENDROOT
BRANCH  11  15
ATOM     15  C   UNL     1       4.819  -4.074   5.952  0.00  0.00    +0.073 A 
ATOM     16  C   UNL     1       4.879  -2.895   5.205  0.00  0.00    +0.036 A 
ATOM     17  C   UNL     1       5.223  -1.709   5.820  0.00  0.00    +0.042 A 
ATOM     18  C   UNL     1       5.508  -1.684   7.176  0.00  0.00    +0.023 A 
ATOM     19  C   UNL     1       5.450  -2.846   7.923  0.00  0.00    +0.040 A 
ATOM     20  C   UNL     1       5.102  -4.041   7.321  0.00  0.00    +0.136 A 
ATOM     21  F   UNL     1       5.040  -5.175   8.052  0.00  0.00    -0.205 F 
ATOM     22 CL   UNL     1       5.300  -0.244   4.893  0.00  0.00    -0.084 Cl
ENDBRANCH  11  15
BRANCH   1  24
ATOM     23  N   UNL     1      -0.384  -3.845   1.946  0.00  0.00    -0.311 N 
ATOM     24  C   UNL     1       0.929  -4.101   2.105  0.00  0.00    +0.218 C 
ATOM     25  O   UNL     1       1.702  -3.902   1.191  0.00  0.00    -0.275 OA
ATOM     26  H   UNL     1      -1.001  -4.004   2.677  0.00  0.00    +0.149 HD
BRANCH  23  27
ATOM     27  C   UNL     1      -0.879  -3.325   0.669  0.00  0.00    +0.141 C 
BRANCH  27  32
ATOM     28  C   UNL     1      -4.594  -3.884   0.287  0.00  0.00    +0.000 A 
ATOM     29  C   UNL     1      -5.112  -2.760   0.904  0.00  0.00    +0.002 A 
ATOM     30  C   UNL     1      -4.263  -1.815   1.446  0.00  0.00    +0.023 A 
ATOM     31  C   UNL     1      -2.888  -1.996   1.372  0.00  0.00    +0.034 A 
ATOM     32  C   UNL     1      -2.371  -3.126   0.752  0.00  0.00    -0.009 A 
ATOM     33  C   UNL     1      -3.225  -4.067   0.211  0.00  0.00    +0.007 A 
BRANCH  31  34
ATOM     34  N   UNL     1      -2.026  -1.042   1.920  0.00  0.00    -0.330 N 
ATOM     35  C   UNL     1      -1.549   0.087   1.111  0.00  0.00    +0.105 C 
ATOM     36  C   UNL     1      -1.856   1.391   1.853  0.00  0.00    +0.019 C 
ATOM     37  C   UNL     1      -1.255   1.327   3.260  0.00  0.00    +0.003 C 
ATOM     38  C   UNL     1      -1.888   0.169   4.034  0.00  0.00    +0.019 C 
ATOM     39  C   UNL     1      -1.586  -1.146   3.317  0.00  0.00    +0.105 C 
ENDBRANCH  31  34
ENDBRANCH  27  32
ENDBRANCH  23  27
ENDBRANCH   1  24
TORSDOF 5
