REMARK  Name = ZINC40343279
REMARK  12 active torsions:
REMARK  status: ('A' for Active; 'I' for Inactive)
REMARK    1  A    between atoms: C_1  and  C_2
REMARK    2  A    between atoms: C_2  and  C_3
REMARK    3  A    between atoms: C_3  and  O_4
REMARK    4  A    between atoms: O_4  and  C_5
REMARK    5  A    between atoms: C_8  and  C_13
REMARK    6  A    between atoms: C_10  and  O_11
REMARK    7  A    between atoms: O_11  and  C_12
REMARK    8  A    between atoms: C_16  and  C_32
REMARK    9  A    between atoms: N_23  and  C_24
REMARK   10  A    between atoms: C_24  and  C_25
REMARK   11  A    between atoms: C_25  and  C_26
REMARK   12  A    between atoms: C_26  and  N_27
REMARK                            x       y       z     vdW  Elec       q    Type
REMARK                         _______ _______ _______ _____ _____    ______ ____
ROOT
ATOM      1  C   UNL     1       3.243  -4.423  -5.653  0.00  0.00    +0.141 C 
ATOM      2  C   UNL     1       4.738  -4.376  -5.489  0.00  0.00    +0.035 A 
ATOM      3  C   UNL     1       5.822  -4.725  -4.751  0.00  0.00    +0.072 A 
ATOM      4  N   UNL     1       6.915  -4.219  -5.395  0.00  0.00    -0.276 N 
ATOM      5  N   UNL     1       6.547  -3.598  -6.459  0.00  0.00    -0.168 NA
ATOM      6  H   UNL     1       7.832  -4.314  -5.095  0.00  0.00    +0.189 HD
ATOM      7  C   UNL     1       5.236  -3.646  -6.592  0.00  0.00    +0.153 A 
ATOM      8  C   UNL     1       4.088  -3.244  -7.425  0.00  0.00    +0.268 C 
ATOM      9  O   UNL     1       4.169  -2.602  -8.454  0.00  0.00    -0.268 OA
ATOM     10  N   UNL     1       2.939  -3.691  -6.888  0.00  0.00    -0.285 N 
ENDROOT
BRANCH   3  11
ATOM     11  C   UNL     1       5.821  -5.503  -3.491  0.00  0.00    +0.000 A 
ATOM     12  C   UNL     1       4.895  -5.211  -2.490  0.00  0.00    +0.011 A 
ATOM     13  C   UNL     1       4.899  -5.939  -1.318  0.00  0.00    +0.020 A 
ATOM     14  C   UNL     1       5.819  -6.957  -1.135  0.00  0.00    +0.041 A 
ATOM     15  C   UNL     1       6.741  -7.251  -2.126  0.00  0.00    +0.020 A 
ATOM     16  C   UNL     1       6.742  -6.534  -3.304  0.00  0.00    +0.011 A 
ATOM     17 CL   UNL     1       5.819  -7.869   0.343  0.00  0.00    -0.084 Cl
ENDBRANCH   3  11
BRANCH   1  21
ATOM     18  C   UNL     1       1.342  -2.530  -2.323  0.00  0.00    +0.162 A 
ATOM     19  C   UNL     1       1.908  -1.763  -3.329  0.00  0.00    +0.050 A 
ATOM     20  C   UNL     1       2.522  -2.378  -4.404  0.00  0.00    +0.009 A 
ATOM     21  C   UNL     1       2.573  -3.758  -4.479  0.00  0.00    -0.019 A 
ATOM     22  C   UNL     1       2.009  -4.529  -3.479  0.00  0.00    +0.055 A 
ATOM     23  C   UNL     1       1.397  -3.918  -2.396  0.00  0.00    +0.162 A 
BRANCH  23  24
ATOM     24  O   UNL     1       0.847  -4.675  -1.408  0.00  0.00    -0.491 OA
ATOM     25  C   UNL     1       0.942  -6.094  -1.549  0.00  0.00    +0.277 C 
ENDBRANCH  23  24
BRANCH  18  26
ATOM     26  O   UNL     1       0.738  -1.926  -1.265  0.00  0.00    -0.488 OA
BRANCH  26  27
ATOM     27  C   UNL     1       0.718  -0.497  -1.257  0.00  0.00    +0.229 C 
BRANCH  27  29
ATOM     28  C   UNL     1      -0.019   1.526   0.010  0.00  0.00    +0.007 C 
ATOM     29  C   UNL     1       0.002  -0.004   0.002  0.00  0.00    +0.038 C 
ENDBRANCH  27  29
ENDBRANCH  26  27
ENDBRANCH  18  26
ENDBRANCH   1  21
BRANCH  10  30
ATOM     30  C   UNL     1       1.600  -3.482  -7.445  0.00  0.00    +0.111 C 
BRANCH  30  31
ATOM     31  C   UNL     1       1.011  -2.186  -6.884  0.00  0.00    +0.040 C 
BRANCH  31  32
ATOM     32  C   UNL     1      -0.387  -1.967  -7.466  0.00  0.00    +0.124 C 
BRANCH  32  33
ATOM     33  N   UNL     1      -0.951  -0.726  -6.928  0.00  0.00    -0.338 N 
ATOM     34  C   UNL     1      -1.696  -0.600  -5.787  0.00  0.00    +0.104 A 
ATOM     35  C   UNL     1      -2.006   0.705  -5.667  0.00  0.00    +0.101 A 
ATOM     36  N   UNL     1      -1.466   1.358  -6.706  0.00  0.00    -0.352 N 
ATOM     37  C   UNL     1      -0.827   0.508  -7.463  0.00  0.00    +0.173 A 
ATOM     38  H   UNL     1      -1.534   2.312  -6.867  0.00  0.00    +0.166 HD
ENDBRANCH  32  33
ENDBRANCH  31  32
ENDBRANCH  30  31
ENDBRANCH  10  30
TORSDOF 10
