REMARK  Name = ZINC67294797
REMARK  6 active torsions:
REMARK  status: ('A' for Active; 'I' for Inactive)
REMARK    1  A    between atoms: C_1  and  C_2
REMARK    2  A    between atoms: C_2  and  O_3
REMARK    3  A    between atoms: O_3  and  C_4
REMARK    4  A    between atoms: C_7  and  N_10
REMARK    5  A    between atoms: C_12  and  C_22
REMARK    6  A    between atoms: C_28  and  C_31
REMARK                            x       y       z     vdW  Elec       q    Type
REMARK                         _______ _______ _______ _____ _____    ______ ____
ROOT
ATOM      1  N   UNL     1       0.468  -6.438  -1.476  0.00  0.00    -0.325 N 
ATOM      2  C   UNL     1       0.594  -6.561  -2.779  0.00  0.00    +0.212 A 
ATOM      3  C   UNL     1       1.245  -7.747  -3.372  0.00  0.00    +0.098 A 
ATOM      4  C   UNL     1       0.864  -8.100  -4.659  0.00  0.00    +0.030 A 
ATOM      5  C   UNL     1      -0.148  -7.268  -5.314  0.00  0.00    +0.019 A 
ATOM      6  C   UNL     1      -0.780  -7.699  -6.487  0.00  0.00    +0.026 A 
ATOM      7  C   UNL     1      -1.731  -6.899  -7.081  0.00  0.00    +0.019 A 
ATOM      8  C   UNL     1      -2.065  -5.673  -6.522  0.00  0.00    +0.019 A 
ATOM      9  C   UNL     1      -1.450  -5.235  -5.366  0.00  0.00    +0.048 A 
ATOM     10  C   UNL     1      -0.488  -6.023  -4.753  0.00  0.00    +0.137 A 
ATOM     11  O   UNL     1       0.124  -5.605  -3.621  0.00  0.00    -0.439 OA
ATOM     12 BR   UNL     1      -2.587  -7.474  -8.666  0.00  0.00    -0.050 Br
ATOM     13  H   UNL     1       0.712  -7.174  -0.894  0.00  0.00    +0.169 HD
ENDROOT
BRANCH   3  14
ATOM     14  C   UNL     1       2.256  -8.520  -2.630  0.00  0.00    +0.254 C 
ATOM     15  O   UNL     1       2.684  -9.560  -3.091  0.00  0.00    -0.270 OA
ATOM     16  N   UNL     1       2.705  -8.074  -1.440  0.00  0.00    -0.266 N 
ATOM     17  C   UNL     1       3.711  -8.767  -0.772  0.00  0.00    +0.125 A 
ATOM     18  C   UNL     1       3.958 -10.099  -1.088  0.00  0.00    +0.044 A 
ATOM     19  C   UNL     1       4.961 -10.775  -0.417  0.00  0.00    +0.008 A 
ATOM     20  C   UNL     1       5.686 -10.094   0.552  0.00  0.00    -0.032 A 
ATOM     21  C   UNL     1       5.387  -8.772   0.815  0.00  0.00    +0.116 A 
ATOM     22  N   UNL     1       4.428  -8.151   0.155  0.00  0.00    -0.240 NA
ATOM     23  C   UNL     1       6.787 -10.791   1.309  0.00  0.00    +0.045 C 
ATOM     24  H   UNL     1       2.327  -7.271  -1.049  0.00  0.00    +0.157 HD
ENDBRANCH   3  14
BRANCH   1  28
ATOM     25  C   UNL     1      -0.972  -2.909   0.140  0.00  0.00    +0.121 A 
ATOM     26  C   UNL     1      -1.449  -4.127   0.603  0.00  0.00    +0.047 A 
ATOM     27  C   UNL     1      -0.973  -5.305   0.067  0.00  0.00    +0.029 A 
ATOM     28  C   UNL     1      -0.009  -5.271  -0.943  0.00  0.00    +0.042 A 
ATOM     29  C   UNL     1       0.469  -4.043  -1.405  0.00  0.00    +0.029 A 
ATOM     30  C   UNL     1      -0.017  -2.870  -0.868  0.00  0.00    +0.047 A 
BRANCH  25  31
ATOM     31  O   UNL     1      -1.444  -1.750   0.670  0.00  0.00    -0.492 OA
BRANCH  31  33
ATOM     32  C   UNL     1      -2.834  -0.464   2.173  0.00  0.00    +0.048 C 
ATOM     33  C   UNL     1      -2.425  -1.862   1.704  0.00  0.00    +0.225 C 
ENDBRANCH  31  33
ENDBRANCH  25  31
ENDBRANCH   1  28
TORSDOF 4
