REMARK  Name = ZINC39467089
REMARK  6 active torsions:
REMARK  status: ('A' for Active; 'I' for Inactive)
REMARK    1  A    between atoms: C_4  and  C_7
REMARK    2  A    between atoms: C_7  and  C_8
REMARK    3  A    between atoms: C_20  and  C_21
REMARK    4  A    between atoms: C_26  and  O_27
REMARK    5  A    between atoms: P_30  and  C_33
REMARK    6  A    between atoms: C_38  and  O_39
REMARK                            x       y       z     vdW  Elec       q    Type
REMARK                         _______ _______ _______ _____ _____    ______ ____
ROOT
ATOM      1  C   UNL     1       4.164  -0.959   1.377  0.00  0.00    -0.039 C 
ATOM      2  C   UNL     1       3.895  -2.117   1.971  0.00  0.00    -0.020 C 
ATOM      3  C   UNL     1       4.344  -2.351   3.387  0.00  0.00    +0.005 C 
ATOM      4  C   UNL     1       3.494  -3.427   4.049  0.00  0.00    -0.046 C 
ATOM      5  N   UNL     1       2.082  -3.018   4.124  0.00  0.00    +0.398 N 
ATOM      6  C   UNL     1       1.948  -1.796   4.920  0.00  0.00    -0.020 C 
ATOM      7  C   UNL     1       2.759  -0.660   4.286  0.00  0.00    -0.003 C 
ATOM      8  C   UNL     1       4.213  -1.055   4.191  0.00  0.00    +0.016 C 
ATOM      9  C   UNL     1       4.940   0.048   3.459  0.00  0.00    -0.014 C 
ATOM     10  C   UNL     1       4.919   0.077   2.115  0.00  0.00    -0.015 C 
ATOM     11  C   UNL     1       0.491  -1.321   4.983  0.00  0.00    +0.157 C 
ATOM     12  O   UNL     1      -0.316  -2.329   5.618  0.00  0.00    -0.316 OA
ATOM     13  P   UNL     1      -0.192  -3.854   5.064  0.00  0.00    +0.291 P 
ATOM     14  O   UNL     1      -1.002  -4.022   3.837  0.00  0.00    -0.269 OA
ATOM     15  N   UNL     1       1.416  -4.063   4.728  0.00  0.00    -0.288 NA
ATOM     16  H   UNL     1       1.873  -4.891   4.941  0.00  0.00    +0.111 HD
ATOM     17  H   UNL     1       1.719  -2.874   3.193  0.00  0.00    -0.055 HD
ENDROOT
BRANCH  10  18
ATOM     18  C   UNL     1       5.641   1.142   1.377  0.00  0.00    +0.024 A 
ATOM     19  C   UNL     1       6.835   0.852   0.720  0.00  0.00    +0.012 A 
ATOM     20  C   UNL     1       7.502   1.846   0.034  0.00  0.00    +0.001 A 
ATOM     21  C   UNL     1       6.990   3.131  -0.004  0.00  0.00    +0.004 A 
ATOM     22  C   UNL     1       5.807   3.430   0.645  0.00  0.00    +0.046 A 
ATOM     23  C   UNL     1       5.123   2.440   1.332  0.00  0.00    +0.125 A 
BRANCH  23  24
ATOM     24  O   UNL     1       3.957   2.731   1.966  0.00  0.00    -0.506 OA
ATOM     25  H   UNL     1       4.068   3.020   2.882  0.00  0.00    +0.292 HD
ENDBRANCH  23  24
ENDBRANCH  10  18
BRANCH  13  26
ATOM     26  C   UNL     1      -0.727  -5.031   6.336  0.00  0.00    +0.091 A 
ATOM     27  C   UNL     1       0.188  -5.535   7.240  0.00  0.00    +0.018 A 
ATOM     28  C   UNL     1      -0.219  -6.433   8.209  0.00  0.00    +0.001 A 
ATOM     29  C   UNL     1      -1.542  -6.828   8.277  0.00  0.00    +0.004 A 
ATOM     30  C   UNL     1      -2.461  -6.327   7.375  0.00  0.00    +0.046 A 
ATOM     31  C   UNL     1      -2.056  -5.422   6.405  0.00  0.00    +0.131 A 
BRANCH  31  32
ATOM     32  O   UNL     1      -2.959  -4.923   5.520  0.00  0.00    -0.506 OA
ATOM     33  H   UNL     1      -3.052  -5.449   4.714  0.00  0.00    +0.292 HD
ENDBRANCH  31  32
ENDBRANCH  13  26
BRANCH   1  34
ATOM     34  C   UNL     1       3.711  -0.707  -0.038  0.00  0.00    +0.070 C 
BRANCH  34  38
ATOM     35  C   UNL     1      -0.017   1.378   0.010  0.00  0.00    +0.000 A 
ATOM     36  C   UNL     1       1.171   2.086   0.002  0.00  0.00    +0.000 A 
ATOM     37  C   UNL     1       2.377   1.411  -0.013  0.00  0.00    +0.004 A 
ATOM     38  C   UNL     1       2.396   0.029  -0.020  0.00  0.00    -0.043 A 
ATOM     39  C   UNL     1       1.208  -0.679  -0.012  0.00  0.00    +0.004 A 
ATOM     40  C   UNL     1       0.002  -0.004   0.002  0.00  0.00    +0.000 A 
ENDBRANCH  34  38
ENDBRANCH   1  34
TORSDOF 6
