REMARK  Name = ZINC40568055
REMARK  10 active torsions:
REMARK  status: ('A' for Active; 'I' for Inactive)
REMARK    1  A    between atoms: C_1  and  C_2
REMARK    2  A    between atoms: N_8  and  C_9
REMARK    3  A    between atoms: C_9  and  C_10
REMARK    4  A    between atoms: C_15  and  O_16
REMARK    5  A    between atoms: O_16  and  C_17
REMARK    6  A    between atoms: C_18  and  C_28
REMARK    7  A    between atoms: C_20  and  C_24
REMARK    8  A    between atoms: C_21  and  N_23
REMARK    9  A    between atoms: C_24  and  O_26
REMARK   10  A    between atoms: O_26  and  C_27
REMARK                            x       y       z     vdW  Elec       q    Type
REMARK                         _______ _______ _______ _____ _____    ______ ____
ROOT
ATOM      1  C   UNL     1      -0.074   1.509   0.001  0.00  0.00    +0.064 C 
ATOM      2  C   UNL     1      -0.019   0.003  -0.006  0.00  0.00    +0.023 A 
ATOM      3  C   UNL     1      -0.126  -0.662  -1.177  0.00  0.00    +0.068 A 
ATOM      4  C   UNL     1      -0.074  -2.071  -1.190  0.00  0.00    +0.141 A 
ATOM      5  C   UNL     1       0.085  -2.744   0.003  0.00  0.00    +0.071 A 
ATOM      6  C   UNL     1       0.190  -2.013   1.193  0.00  0.00    +0.259 A 
ATOM      7  O   UNL     1       0.331  -2.596   2.257  0.00  0.00    -0.267 OA
ATOM      8  N   UNL     1       0.142  -0.668   1.165  0.00  0.00    -0.308 N 
ATOM      9  C   UNL     1       0.146  -4.247   0.036  0.00  0.00    +0.100 C 
ATOM     10  C   UNL     1      -0.377  -4.814  -1.254  0.00  0.00    +0.105 C 
ATOM     11  C   UNL     1      -0.508  -4.040  -2.361  0.00  0.00    +0.195 C 
ATOM     12  O   UNL     1      -0.180  -2.737  -2.359  0.00  0.00    -0.441 OA
ENDROOT
BRANCH   9  13
ATOM     13  C   UNL     1       1.575  -4.684   0.228  0.00  0.00    -0.034 A 
ATOM     14  C   UNL     1       2.538  -4.324  -0.696  0.00  0.00    +0.004 A 
ATOM     15  C   UNL     1       3.850  -4.725  -0.520  0.00  0.00    +0.002 A 
ATOM     16  C   UNL     1       4.198  -5.486   0.580  0.00  0.00    +0.020 A 
ATOM     17  C   UNL     1       3.235  -5.847   1.505  0.00  0.00    +0.041 A 
ATOM     18  C   UNL     1       1.924  -5.440   1.331  0.00  0.00    +0.024 A 
ATOM     19 CL   UNL     1       3.672  -6.803   2.886  0.00  0.00    -0.084 Cl
ENDBRANCH   9  13
BRANCH  11  20
ATOM     20  N   UNL     1      -0.987  -4.603  -3.513  0.00  0.00    -0.329 N 
ATOM     21  H   UNL     1      -1.296  -5.522  -3.512  0.00  0.00    +0.145 HD
ATOM     22  H   UNL     1      -1.018  -4.082  -4.331  0.00  0.00    +0.145 HD
ENDBRANCH  11  20
BRANCH  10  23
ATOM     23  C   UNL     1      -0.735  -6.169  -1.315  0.00  0.00    +0.341 C 
ATOM     24  O   UNL     1      -1.773  -6.549  -0.801  0.00  0.00    -0.245 OA
BRANCH  23  25
ATOM     25  O   UNL     1       0.070  -7.053  -1.944  0.00  0.00    -0.465 OA
ATOM     26  C   UNL     1      -0.358  -8.417  -1.968  0.00  0.00    +0.280 C 
ENDBRANCH  23  25
ENDBRANCH  10  23
BRANCH   8  27
ATOM     27  C   UNL     1       0.260   0.085   2.416  0.00  0.00    +0.164 C 
BRANCH  27  28
ATOM     28  C   UNL     1      -1.100   0.218   3.052  0.00  0.00    +0.014 A 
ATOM     29  C   UNL     1      -1.864   1.346   2.820  0.00  0.00    +0.009 A 
ATOM     30  C   UNL     1      -3.111   1.470   3.403  0.00  0.00    +0.001 A 
ATOM     31  C   UNL     1      -3.598   0.465   4.219  0.00  0.00    +0.004 A 
ATOM     32  C   UNL     1      -2.839  -0.665   4.453  0.00  0.00    +0.046 A 
ATOM     33  C   UNL     1      -1.589  -0.793   3.865  0.00  0.00    +0.125 A 
BRANCH  33  34
ATOM     34  O   UNL     1      -0.842  -1.907   4.090  0.00  0.00    -0.495 OA
ATOM     35  C   UNL     1      -1.409  -2.907   4.938  0.00  0.00    +0.277 C 
ENDBRANCH  33  34
ENDBRANCH  27  28
ENDBRANCH   8  27
TORSDOF 7
