REMARK  Name = ZINC50829436
REMARK  3 active torsions:
REMARK  status: ('A' for Active; 'I' for Inactive)
REMARK    1  A    between atoms: N_10  and  C_13
REMARK    2  A    between atoms: C_13  and  C_14
REMARK    3  A    between atoms: C_15  and  N_19
REMARK                            x       y       z     vdW  Elec       q    Type
REMARK                         _______ _______ _______ _____ _____    ______ ____
ROOT
ATOM      1  C   UNL     1      -0.017   1.381   0.010  0.00  0.00    +0.000 A 
ATOM      2  C   UNL     1       1.169   2.095   0.002  0.00  0.00    +0.001 A 
ATOM      3  C   UNL     1       2.381   1.436  -0.013  0.00  0.00    +0.013 A 
ATOM      4  C   UNL     1       2.408   0.041  -0.021  0.00  0.00    +0.041 A 
ATOM      5  C   UNL     1       1.204  -0.669  -0.013  0.00  0.00    -0.027 A 
ATOM      6  C   UNL     1       0.002  -0.004   0.002  0.00  0.00    +0.005 A 
ATOM      7  C   UNL     1       1.272  -2.179  -0.022  0.00  0.00    +0.132 C 
ATOM      8  C   UNL     1       2.646  -2.812  -0.038  0.00  0.00    +0.227 C 
ATOM      9  O   UNL     1       2.759  -4.019  -0.046  0.00  0.00    -0.275 OA
ATOM     10  N   UNL     1       3.740  -2.033  -0.044  0.00  0.00    -0.232 N 
ATOM     11  C   UNL     1       3.686  -0.693  -0.037  0.00  0.00    +0.253 C 
ATOM     12  O   UNL     1       4.725  -0.064  -0.044  0.00  0.00    -0.270 OA
ENDROOT
BRANCH  10  13
ATOM     13  C   UNL     1       5.056  -2.677  -0.060  0.00  0.00    +0.176 C 
BRANCH  13  14
ATOM     14  C   UNL     1       5.493  -2.890  -1.487  0.00  0.00    +0.111 A 
ATOM     15  C   UNL     1       5.187  -4.032  -2.171  0.00  0.00    +0.108 A 
ATOM     16  S   UNL     1       5.900  -3.744  -3.666  0.00  0.00    +0.051 S 
ATOM     17  N   UNL     1       6.538  -2.225  -3.360  0.00  0.00    -0.108 NA
ATOM     18  N   UNL     1       6.185  -1.986  -2.142  0.00  0.00    -0.143 NA
BRANCH  15  19
ATOM     19  N   UNL     1       4.471  -5.147  -1.742  0.00  0.00    -0.350 N 
ATOM     20  H   UNL     1       4.114  -5.176  -0.841  0.00  0.00    +0.143 HD
ATOM     21  H   UNL     1       4.330  -5.894  -2.344  0.00  0.00    +0.143 HD
ENDBRANCH  15  19
ENDBRANCH  13  14
ENDBRANCH  10  13
TORSDOF 3
