REMARK  Name = ZINC18017095
REMARK  13 active torsions:
REMARK  status: ('A' for Active; 'I' for Inactive)
REMARK    1  A    between atoms: C_1  and  C_2
REMARK    2  A    between atoms: C_2  and  C_3
REMARK    3  A    between atoms: C_6  and  C_9
REMARK    4  A    between atoms: C_9  and  C_11
REMARK    5  A    between atoms: C_9  and  N_69
REMARK    6  A    between atoms: C_11  and  N_12
REMARK    7  A    between atoms: C_13  and  C_15
REMARK    8  A    between atoms: N_18  and  S_21
REMARK    9  A    between atoms: S_21  and  C_24
REMARK   10  A    between atoms: C_27  and  C_30
REMARK   11  A    between atoms: C_30  and  C_32
REMARK   12  A    between atoms: C_33  and  N_69
REMARK   13  A    between atoms: C_34  and  N_69
REMARK                            x       y       z     vdW  Elec       q    Type
REMARK                         _______ _______ _______ _____ _____    ______ ____
ROOT
ATOM      1  N   UNL     1      -0.096   3.124   6.491  0.00  0.00    -0.316 N 
ATOM      2  C   UNL     1       0.834   2.959   5.530  0.00  0.00    +0.216 C 
ATOM      3  O   UNL     1       1.882   2.405   5.789  0.00  0.00    -0.276 OA
ATOM      4  H   UNL     1      -0.934   3.567   6.284  0.00  0.00    +0.149 HD
ENDROOT
BRANCH   2   5
ATOM      5  C   UNL     1       0.574   3.464   4.135  0.00  0.00    +0.077 C 
ATOM      6  C   UNL     1       1.780   3.153   3.246  0.00  0.00    +0.030 C 
ATOM      7  C   UNL     1       1.526   3.698   1.837  0.00  0.00    +0.110 C 
ATOM      8  N   UNL     1       0.255   3.153   1.341  0.00  0.00    -0.177 NA
ATOM      9  C   UNL     1      -0.953   3.323   2.160  0.00  0.00    +0.110 C 
ATOM     10  C   UNL     1      -0.670   2.777   3.567  0.00  0.00    +0.030 C 
BRANCH   8  11
ATOM     11  S   UNL     1       0.185   2.369  -0.116  0.00  0.00    +0.061 S 
ATOM     12  O   UNL     1       1.282   2.842  -0.885  0.00  0.00    -0.153 OA
ATOM     13  O   UNL     1      -1.160   2.467  -0.565  0.00  0.00    -0.153 OA
BRANCH  11  14
ATOM     14  C   UNL     1       0.488   0.662   0.197  0.00  0.00    +0.106 A 
ATOM     15  C   UNL     1      -0.570  -0.186   0.473  0.00  0.00    +0.029 A 
ATOM     16  C   UNL     1      -0.341  -1.524   0.718  0.00  0.00    +0.013 A 
ATOM     17  C   UNL     1       0.965  -2.023   0.686  0.00  0.00    +0.017 A 
ATOM     18  C   UNL     1       2.029  -1.159   0.406  0.00  0.00    +0.013 A 
ATOM     19  C   UNL     1       1.784   0.175   0.164  0.00  0.00    +0.029 A 
BRANCH  17  20
ATOM     20  C   UNL     1       1.219  -3.449   0.947  0.00  0.00    +0.160 C 
ATOM     21  O   UNL     1       0.294  -4.194   1.190  0.00  0.00    -0.292 OA
ATOM     22  C   UNL     1       2.627  -3.982   0.912  0.00  0.00    +0.091 C 
ENDBRANCH  17  20
ENDBRANCH  11  14
ENDBRANCH   8  11
ENDBRANCH   2   5
BRANCH   1  23
ATOM     23  C   UNL     1       0.157   2.633   7.848  0.00  0.00    +0.093 C 
BRANCH  23  24
ATOM     24  C   UNL     1      -0.971   3.090   8.775  0.00  0.00    -0.021 C 
BRANCH  24  28
ATOM     25  C   UNL     1      -0.338   1.492  12.685  0.00  0.00    -0.048 A 
ATOM     26  C   UNL     1      -1.302   0.942  11.861  0.00  0.00    +0.004 A 
ATOM     27  C   UNL     1      -1.507   1.459  10.596  0.00  0.00    +0.002 A 
ATOM     28  C   UNL     1      -0.748   2.527  10.154  0.00  0.00    -0.059 A 
ATOM     29  C   UNL     1       0.220   3.073  10.976  0.00  0.00    +0.002 A 
ATOM     30  C   UNL     1       0.422   2.559  12.243  0.00  0.00    +0.004 A 
BRANCH  25  32
ATOM     31  C   UNL     1       0.940  -0.180  13.998  0.00  0.00    +0.009 C 
ATOM     32  C   UNL     1      -0.114   0.928  14.064  0.00  0.00    +0.032 C 
ENDBRANCH  25  32
ENDBRANCH  24  28
BRANCH  24  35
ATOM     33  C   UNL     1       0.353   5.109   8.591  0.00  0.00    -0.096 C 
ATOM     34  C   UNL     1      -1.969   5.118   7.906  0.00  0.00    -0.096 C 
ATOM     35  N   UNL     1      -0.993   4.565   8.868  0.00  0.00    +0.382 N 
ATOM     36  H   UNL     1      -1.272   4.835   9.819  0.00  0.00    -0.082 HD
ENDBRANCH  24  35
ENDBRANCH  23  24
ENDBRANCH   1  23
TORSDOF 9
