REMARK  Name = ZINC13073702
REMARK  4 active torsions:
REMARK  status: ('A' for Active; 'I' for Inactive)
REMARK    1  A    between atoms: C_7  and  C_11
REMARK    2  A    between atoms: N_13  and  N_14
REMARK    3  A    between atoms: N_14  and  S_15
REMARK    4  A    between atoms: S_15  and  C_18
REMARK                            x       y       z     vdW  Elec       q    Type
REMARK                         _______ _______ _______ _____ _____    ______ ____
ROOT
ATOM      1  N   UNL     1      -2.096  -3.089   0.006  0.00  0.00    -0.108 NA
ATOM      2  H   UNL     1      -2.768  -3.006   0.702  0.00  0.00    +0.172 HD
ENDROOT
BRANCH   1   5
ATOM      3  C   UNL     1      -1.163  -0.899   0.009  0.00  0.00    +0.261 C 
ATOM      4  O   UNL     1      -2.287  -0.435   0.022  0.00  0.00    -0.269 OA
ATOM      5  N   UNL     1      -0.986  -2.236  -0.000  0.00  0.00    -0.228 N 
ATOM      6  H   UNL     1      -0.089  -2.606  -0.011  0.00  0.00    +0.171 HD
BRANCH   3  13
ATOM      7  C   UNL     1      -0.710   3.763   0.030  0.00  0.00    +0.001 A 
ATOM      8  C   UNL     1       0.619   4.163   0.020  0.00  0.00    +0.002 A 
ATOM      9  C   UNL     1       1.633   3.230   0.004  0.00  0.00    +0.026 A 
ATOM     10  C   UNL     1       1.327   1.873  -0.001  0.00  0.00    +0.047 A 
ATOM     11  C   UNL     1      -0.018   1.470   0.010  0.00  0.00    +0.012 A 
ATOM     12  C   UNL     1      -1.033   2.424   0.030  0.00  0.00    +0.011 A 
ATOM     13  C   UNL     1       0.002  -0.004   0.002  0.00  0.00    +0.063 A 
ATOM     14  C   UNL     1       1.315  -0.373  -0.013  0.00  0.00    +0.096 A 
ATOM     15  N   UNL     1       2.101   0.731  -0.014  0.00  0.00    -0.360 N 
ATOM     16  H   UNL     1       3.071   0.720  -0.023  0.00  0.00    +0.165 HD
ENDBRANCH   3  13
ENDBRANCH   1   5
BRANCH   1  17
ATOM     17  S   UNL     1      -2.263  -4.240  -1.173  0.00  0.00    +0.074 S 
ATOM     18  O   UNL     1      -3.391  -5.027  -0.816  0.00  0.00    -0.152 OA
ATOM     19  O   UNL     1      -2.171  -3.561  -2.418  0.00  0.00    -0.152 OA
BRANCH  17  20
ATOM     20  C   UNL     1      -0.858  -5.298  -1.071  0.00  0.00    +0.110 A 
ATOM     21  C   UNL     1       0.276  -5.010  -1.806  0.00  0.00    +0.032 A 
ATOM     22  C   UNL     1       1.385  -5.834  -1.727  0.00  0.00    +0.051 A 
ATOM     23  C   UNL     1       1.350  -6.955  -0.916  0.00  0.00    +0.162 A 
ATOM     24  C   UNL     1       0.210  -7.247  -0.182  0.00  0.00    +0.164 A 
ATOM     25  C   UNL     1      -0.896  -6.418  -0.259  0.00  0.00    +0.078 A 
ATOM     26  O   UNL     1       0.186  -8.354   0.616  0.00  0.00    -0.488 OA
ATOM     27  C   UNL     1       0.200  -9.613  -0.061  0.00  0.00    +0.232 C 
ATOM     28  C   UNL     1       1.623 -10.026  -0.403  0.00  0.00    +0.082 C 
ATOM     29  C   UNL     1       2.277  -9.081  -1.399  0.00  0.00    +0.232 C 
ATOM     30  O   UNL     1       2.436  -7.778  -0.832  0.00  0.00    -0.488 OA
ENDBRANCH  17  20
ENDBRANCH   1  17
TORSDOF 4
