REMARK  Name = ZINC39678348
REMARK  10 active torsions:
REMARK  status: ('A' for Active; 'I' for Inactive)
REMARK    1  A    between atoms: C_1  and  C_2
REMARK    2  A    between atoms: C_2  and  C_3
REMARK    3  A    between atoms: C_3  and  C_4
REMARK    4  A    between atoms: C_4  and  C_5
REMARK    5  A    between atoms: C_5  and  C_7
REMARK    6  A    between atoms: C_5  and  C_8
REMARK    7  A    between atoms: C_12  and  C_21
REMARK    8  A    between atoms: N_23  and  C_24
REMARK    9  A    between atoms: C_24  and  C_25
REMARK   10  A    between atoms: C_30  and  N_31
REMARK                            x       y       z     vdW  Elec       q    Type
REMARK                         _______ _______ _______ _____ _____    ______ ____
ROOT
ATOM      1  C   UNL     1       1.156  -4.859  -2.619  0.00  0.00    +0.218 C 
ATOM      2  O   UNL     1       0.785  -5.581  -1.718  0.00  0.00    -0.275 OA
ATOM      3  N   UNL     1       2.012  -5.327  -3.549  0.00  0.00    -0.300 N 
ATOM      4  C   UNL     1       2.658  -4.575  -4.650  0.00  0.00    +0.121 C 
ATOM      5  C   UNL     1       4.096  -5.135  -4.714  0.00  0.00    +0.100 C 
ATOM      6  C   UNL     1       3.999  -6.538  -4.092  0.00  0.00    -0.004 C 
ATOM      7  C   UNL     1       2.525  -6.710  -3.697  0.00  0.00    +0.115 C 
ATOM      8  C   UNL     1       4.885  -6.629  -2.853  0.00  0.00    -0.010 C 
ATOM      9  C   UNL     1       4.816  -8.049  -2.285  0.00  0.00    -0.082 C 
ATOM     10  N   UNL     1       5.263  -9.008  -3.303  0.00  0.00    +0.379 N 
ATOM     11  C   UNL     1       4.351  -8.980  -4.453  0.00  0.00    -0.082 C 
ATOM     12  C   UNL     1       4.401  -7.599  -5.112  0.00  0.00    -0.010 C 
ATOM     13  H   UNL     1       6.194  -8.763  -3.607  0.00  0.00    -0.086 HD
ATOM     14  H   UNL     1       5.275  -9.936  -2.907  0.00  0.00    -0.086 HD
ENDROOT
BRANCH   5  15
ATOM     15  C   UNL     1       4.561  -5.225  -6.145  0.00  0.00    +0.218 C 
ATOM     16  O   UNL     1       3.805  -5.626  -7.004  0.00  0.00    -0.275 OA
ATOM     17  N   UNL     1       5.817  -4.859  -6.470  0.00  0.00    -0.311 N 
ATOM     18  H   UNL     1       6.422  -4.538  -5.783  0.00  0.00    +0.149 HD
BRANCH  17  19
ATOM     19  C   UNL     1       6.269  -4.946  -7.861  0.00  0.00    +0.141 C 
BRANCH  19  20
ATOM     20  C   UNL     1       7.699  -4.482  -7.955  0.00  0.00    -0.009 A 
ATOM     21  C   UNL     1       7.984  -3.201  -8.386  0.00  0.00    +0.007 A 
ATOM     22  C   UNL     1       9.296  -2.775  -8.472  0.00  0.00    +0.000 A 
ATOM     23  C   UNL     1      10.328  -3.629  -8.127  0.00  0.00    +0.002 A 
ATOM     24  C   UNL     1      10.051  -4.910  -7.695  0.00  0.00    +0.023 A 
ATOM     25  C   UNL     1       8.733  -5.340  -7.602  0.00  0.00    +0.034 A 
BRANCH  25  26
ATOM     26  N   UNL     1       8.448  -6.635  -7.160  0.00  0.00    -0.330 N 
ATOM     27  C   UNL     1       8.360  -7.749  -8.114  0.00  0.00    +0.105 C 
ATOM     28  C   UNL     1       9.299  -8.868  -7.653  0.00  0.00    +0.019 C 
ATOM     29  C   UNL     1       8.962  -9.248  -6.210  0.00  0.00    +0.003 C 
ATOM     30  C   UNL     1       9.172  -8.036  -5.299  0.00  0.00    +0.019 C 
ATOM     31  C   UNL     1       8.238  -6.909  -5.732  0.00  0.00    +0.105 C 
ENDBRANCH  25  26
ENDBRANCH  19  20
ENDBRANCH  17  19
ENDBRANCH   5  15
BRANCH   1  32
ATOM     32  C   UNL     1       0.659  -3.438  -2.700  0.00  0.00    +0.072 C 
ATOM     33  C   UNL     1       1.642  -2.513  -1.980  0.00  0.00    +0.017 C 
BRANCH  32  34
ATOM     34  C   UNL     1      -0.715  -3.340  -2.035  0.00  0.00    +0.012 C 
BRANCH  34  35
ATOM     35  C   UNL     1      -1.274  -1.929  -2.226  0.00  0.00    +0.000 C 
BRANCH  35  37
ATOM     36  C   UNL     1      -3.208  -0.419  -1.752  0.00  0.00    +0.004 C 
ATOM     37  C   UNL     1      -2.649  -1.830  -1.561  0.00  0.00    -0.003 C 
ENDBRANCH  35  37
ENDBRANCH  34  35
ENDBRANCH  32  34
ENDBRANCH   1  32
TORSDOF 8
