REMARK  Name = ZINC09085552
REMARK  8 active torsions:
REMARK  status: ('A' for Active; 'I' for Inactive)
REMARK    1  A    between atoms: C_1  and  C_2
REMARK    2  A    between atoms: C_2  and  C_4
REMARK    3  A    between atoms: C_2  and  S_19
REMARK    4  A    between atoms: N_6  and  C_7
REMARK    5  A    between atoms: C_12  and  C_13
REMARK    6  A    between atoms: S_19  and  C_20
REMARK    7  A    between atoms: N_30  and  C_31
REMARK    8  A    between atoms: C_31  and  C_32
REMARK                            x       y       z     vdW  Elec       q    Type
REMARK                         _______ _______ _______ _____ _____    ______ ____
ROOT
ATOM      1  C   UNL     1      -0.777   2.699  -5.076  0.00  0.00    +0.029 C 
ATOM      2  C   UNL     1      -1.236   3.842  -4.168  0.00  0.00    +0.137 C 
ENDROOT
BRANCH   2   3
ATOM      3  C   UNL     1      -0.455   5.088  -4.494  0.00  0.00    +0.230 C 
ATOM      4  O   UNL     1       0.538   5.366  -3.855  0.00  0.00    -0.274 OA
ATOM      5  N   UNL     1      -0.860   5.894  -5.496  0.00  0.00    -0.284 N 
ATOM      6  H   UNL     1      -1.605   5.632  -6.058  0.00  0.00    +0.155 HD
BRANCH   5   7
ATOM      7  C   UNL     1      -0.204   7.107  -5.724  0.00  0.00    +0.041 A 
ATOM      8  C   UNL     1       0.475   7.737  -4.691  0.00  0.00    +0.024 A 
ATOM      9  C   UNL     1       1.126   8.934  -4.921  0.00  0.00    +0.002 A 
ATOM     10  C   UNL     1       1.097   9.516  -6.176  0.00  0.00    +0.001 A 
ATOM     11  C   UNL     1       0.420   8.904  -7.211  0.00  0.00    +0.010 A 
ATOM     12  C   UNL     1      -0.236   7.694  -6.994  0.00  0.00    +0.003 A 
BRANCH  12  13
ATOM     13  C   UNL     1      -0.964   7.032  -8.103  0.00  0.00    -0.016 A 
ATOM     14  C   UNL     1      -0.736   5.686  -8.384  0.00  0.00    +0.008 A 
ATOM     15  C   UNL     1      -1.420   5.073  -9.415  0.00  0.00    +0.001 A 
ATOM     16  C   UNL     1      -2.322   5.795 -10.175  0.00  0.00    +0.000 A 
ATOM     17  C   UNL     1      -2.549   7.133  -9.904  0.00  0.00    +0.001 A 
ATOM     18  C   UNL     1      -1.875   7.754  -8.872  0.00  0.00    +0.008 A 
ENDBRANCH  12  13
ENDBRANCH   5   7
ENDBRANCH   2   3
BRANCH   2  19
ATOM     19  S   UNL     1      -0.955   3.388  -2.438  0.00  0.00    -0.075 S 
BRANCH  19  20
ATOM     20  C   UNL     1      -2.071   2.033  -2.292  0.00  0.00    +0.173 A 
ATOM     21  N   UNL     1      -2.774   1.686  -3.342  0.00  0.00    -0.223 NA
ATOM     22  C   UNL     1      -3.653   0.658  -3.296  0.00  0.00    +0.080 A 
ATOM     23  C   UNL     1      -4.408   0.290  -4.414  0.00  0.00    +0.048 A 
ATOM     24  C   UNL     1      -5.291  -0.763  -4.320  0.00  0.00    +0.043 A 
ATOM     25  C   UNL     1      -5.440  -1.463  -3.128  0.00  0.00    +0.021 A 
ATOM     26  C   UNL     1      -4.713  -1.122  -2.022  0.00  0.00    +0.017 A 
ATOM     27  C   UNL     1      -3.812  -0.060  -2.089  0.00  0.00    +0.065 A 
ATOM     28  C   UNL     1      -3.007   0.347  -0.930  0.00  0.00    +0.263 A 
ATOM     29  O   UNL     1      -3.099  -0.232   0.137  0.00  0.00    -0.267 OA
ATOM     30  N   UNL     1      -2.160   1.389  -1.090  0.00  0.00    -0.283 N 
ATOM     31 CL   UNL     1      -6.229  -1.221  -5.707  0.00  0.00    -0.083 Cl
BRANCH  30  32
ATOM     32  C   UNL     1      -1.335   1.835   0.035  0.00  0.00    +0.154 C 
BRANCH  32  33
ATOM     33  C   UNL     1      -0.024   1.091   0.023  0.00  0.00    -0.013 C 
ATOM     34  C   UNL     1       1.105   1.755   0.010  0.00  0.00    +0.005 C 
ENDBRANCH  32  33
ENDBRANCH  30  32
ENDBRANCH  19  20
ENDBRANCH   2  19
TORSDOF 7
