REMARK  Name = ZINC36372225
REMARK  13 active torsions:
REMARK  status: ('A' for Active; 'I' for Inactive)
REMARK    1  A    between atoms: C_1  and  C_2
REMARK    2  A    between atoms: C_2  and  O_3
REMARK    3  A    between atoms: O_3  and  C_4
REMARK    4  A    between atoms: C_4  and  C_6
REMARK    5  A    between atoms: C_10  and  O_42
REMARK    6  A    between atoms: C_11  and  C_41
REMARK    7  A    between atoms: C_13  and  O_40
REMARK    8  A    between atoms: C_21  and  O_39
REMARK    9  A    between atoms: C_25  and  C_37
REMARK   10  A    between atoms: C_25  and  C_38
REMARK   11  A    between atoms: C_30  and  O_33
REMARK   12  A    between atoms: O_33  and  C_34
REMARK   13  A    between atoms: C_34  and  C_36
REMARK                            x       y       z     vdW  Elec       q    Type
REMARK                         _______ _______ _______ _____ _____    ______ ____
ROOT
ATOM      1  C   UNL     1      -2.878  -2.430   0.032  0.00  0.00    +0.107 C 
ATOM      2  C   UNL     1      -3.673  -1.876  -1.171  0.00  0.00    +0.018 C 
ATOM      3  C   UNL     1      -3.805  -3.058  -2.162  0.00  0.00    +0.036 C 
ATOM      4  C   UNL     1      -3.876  -4.291  -1.217  0.00  0.00    +0.075 C 
ATOM      5  C   UNL     1      -2.800  -3.945  -0.170  0.00  0.00    +0.012 C 
ATOM      6  C   UNL     1      -2.913  -4.752   1.099  0.00  0.00    +0.042 C 
ATOM      7  C   UNL     1      -4.337  -4.775   1.664  0.00  0.00    +0.119 C 
ATOM      8  C   UNL     1      -5.274  -5.305   0.580  0.00  0.00    +0.037 C 
ATOM      9  C   UNL     1      -5.270  -4.307  -0.575  0.00  0.00    +0.028 C 
ATOM     10  C   UNL     1      -6.303  -4.691  -1.628  0.00  0.00    +0.009 C 
ATOM     11  C   UNL     1      -7.704  -4.780  -1.034  0.00  0.00    +0.036 C 
ATOM     12  C   UNL     1      -7.678  -4.604   0.485  0.00  0.00    +0.080 C 
ATOM     13  C   UNL     1      -6.680  -5.577   1.101  0.00  0.00    +0.055 C 
ATOM     14  C   UNL     1      -7.057  -7.017   0.693  0.00  0.00    +0.176 C 
ATOM     15  O   UNL     1      -6.056  -7.885   1.219  0.00  0.00    -0.348 OA
ATOM     16  C   UNL     1      -5.837  -7.842   2.623  0.00  0.00    +0.165 C 
ATOM     17  O   UNL     1      -5.878  -6.541   3.172  0.00  0.00    -0.345 OA
ATOM     18  C   UNL     1      -6.723  -5.537   2.627  0.00  0.00    +0.136 C 
ATOM     19  C   UNL     1      -8.150  -5.755   3.140  0.00  0.00    +0.077 C 
ATOM     20  C   UNL     1      -9.087  -4.705   2.538  0.00  0.00    +0.182 C 
ATOM     21  C   UNL     1      -9.091  -4.881   1.018  0.00  0.00    +0.080 C 
ATOM     22  C   UNL     1      -4.435  -8.432   2.894  0.00  0.00    +0.074 C 
ATOM     23  C   UNL     1      -6.852  -8.753   3.328  0.00  0.00    +0.074 C 
ATOM     24  C   UNL     1      -1.426  -4.264  -0.792  0.00  0.00    +0.015 C 
ENDROOT
BRANCH   1  25
ATOM     25  C   UNL     1      -1.487  -1.840   0.032  0.00  0.00    +0.311 C 
ATOM     26  O   UNL     1      -1.008  -1.423  -0.996  0.00  0.00    -0.251 OA
BRANCH  25  27
ATOM     27  O   UNL     1      -0.783  -1.779   1.173  0.00  0.00    -0.465 OA
BRANCH  27  29
ATOM     28  C   UNL     1       1.168  -1.225   2.488  0.00  0.00    +0.048 C 
ATOM     29  C   UNL     1       0.525  -1.209   1.099  0.00  0.00    +0.229 C 
ENDBRANCH  27  29
ENDBRANCH  25  27
ENDBRANCH   1  25
BRANCH  12  30
ATOM     30  O   UNL     1      -7.337  -3.258   0.819  0.00  0.00    -0.388 OA
ATOM     31  H   UNL     1      -7.954  -2.599   0.472  0.00  0.00    +0.210 HD
ENDBRANCH  12  30
BRANCH   7  32
ATOM     32  O   UNL     1      -4.719  -3.460   2.064  0.00  0.00    -0.391 OA
ATOM     33  H   UNL     1      -4.150  -3.075   2.746  0.00  0.00    +0.210 HD
ENDBRANCH   7  32
BRANCH   4  34
ATOM     34  O   UNL     1      -3.586  -5.515  -1.898  0.00  0.00    -0.388 OA
ATOM     35  H   UNL     1      -4.204  -5.723  -2.613  0.00  0.00    +0.210 HD
ENDBRANCH   4  34
BRANCH  20  36
ATOM     36  O   UNL     1     -10.409  -4.899   3.045  0.00  0.00    -0.461 OA
BRANCH  36  37
ATOM     37  C   UNL     1     -10.732  -4.245   4.171  0.00  0.00    +0.304 C 
ATOM     38  O   UNL     1      -9.919  -3.530   4.710  0.00  0.00    -0.251 OA
ATOM     39  C   UNL     1     -12.108  -4.400   4.765  0.00  0.00    +0.136 C 
ENDBRANCH  36  37
ENDBRANCH  20  36
TORSDOF 8
