REMARK  Name = ZINC40847773
REMARK  10 active torsions:
REMARK  status: ('A' for Active; 'I' for Inactive)
REMARK    1  A    between atoms: C_1  and  C_2
REMARK    2  A    between atoms: C_2  and  O_3
REMARK    3  A    between atoms: O_3  and  C_4
REMARK    4  A    between atoms: C_7  and  C_10
REMARK    5  A    between atoms: N_11  and  N_12
REMARK    6  A    between atoms: C_13  and  C_15
REMARK    7  A    between atoms: C_15  and  C_17
REMARK    8  A    between atoms: C_15  and  O_18
REMARK    9  A    between atoms: O_18  and  C_19
REMARK   10  A    between atoms: C_22  and  C_26
REMARK                            x       y       z     vdW  Elec       q    Type
REMARK                         _______ _______ _______ _____ _____    ______ ____
ROOT
ATOM      1  N   UNL     1       2.126  -7.903   2.828  0.00  0.00    -0.204 N 
ATOM      2  C   UNL     1       2.724  -8.435   3.912  0.00  0.00    +0.273 C 
ATOM      3  O   UNL     1       3.349  -7.724   4.670  0.00  0.00    -0.270 OA
ATOM      4  H   UNL     1       1.626  -8.472   2.222  0.00  0.00    +0.177 HD
ENDROOT
BRANCH   1   6
ATOM      5  C   UNL     1       1.650  -6.016   1.532  0.00  0.00    +0.138 C 
ATOM      6  N   UNL     1       2.226  -6.529   2.576  0.00  0.00    -0.188 NA
BRANCH   5  10
ATOM      7  C   UNL     1       1.952  -1.851   0.770  0.00  0.00    +0.121 A 
ATOM      8  C   UNL     1       1.236  -2.663  -0.099  0.00  0.00    +0.046 A 
ATOM      9  C   UNL     1       1.135  -4.016   0.144  0.00  0.00    +0.013 A 
ATOM     10  C   UNL     1       1.755  -4.570   1.267  0.00  0.00    -0.005 A 
ATOM     11  C   UNL     1       2.474  -3.748   2.139  0.00  0.00    +0.013 A 
ATOM     12  C   UNL     1       2.574  -2.398   1.885  0.00  0.00    +0.046 A 
BRANCH   7  13
ATOM     13  O   UNL     1       2.049  -0.518   0.526  0.00  0.00    -0.492 OA
BRANCH  13  15
ATOM     14  C   UNL     1       1.606   1.489  -0.745  0.00  0.00    +0.048 C 
ATOM     15  C   UNL     1       1.386  -0.021  -0.638  0.00  0.00    +0.225 C 
ENDBRANCH  13  15
ENDBRANCH   7  13
ENDBRANCH   5  10
ENDBRANCH   1   6
BRANCH   2  16
ATOM     16  C   UNL     1       2.616  -9.914   4.183  0.00  0.00    +0.257 C 
ATOM     17  C   UNL     1       3.327 -10.689   3.071  0.00  0.00    +0.062 C 
BRANCH  16  18
ATOM     18  O   UNL     1       3.228 -10.214   5.439  0.00  0.00    -0.479 OA
BRANCH  18  19
ATOM     19  C   UNL     1       2.797 -11.330   6.084  0.00  0.00    +0.136 A 
ATOM     20  C   UNL     1       1.889 -12.180   5.470  0.00  0.00    +0.047 A 
ATOM     21  C   UNL     1       1.453 -13.314   6.128  0.00  0.00    +0.007 A 
ATOM     22  C   UNL     1       1.921 -13.602   7.397  0.00  0.00    -0.049 A 
ATOM     23  C   UNL     1       2.826 -12.757   8.011  0.00  0.00    +0.022 A 
ATOM     24  C   UNL     1       3.270 -11.624   7.355  0.00  0.00    +0.060 A 
ATOM     25 BR   UNL     1       4.515 -10.473   8.192  0.00  0.00    -0.047 Br
ATOM     26  C   UNL     1       1.443 -14.840   8.112  0.00  0.00    +0.044 C 
ENDBRANCH  18  19
ENDBRANCH  16  18
ENDBRANCH   2  16
TORSDOF 7
