REMARK  Name = ZINC14163507
REMARK  11 active torsions:
REMARK  status: ('A' for Active; 'I' for Inactive)
REMARK    1  A    between atoms: C_1  and  C_2
REMARK    2  A    between atoms: C_2  and  C_3
REMARK    3  A    between atoms: C_3  and  C_4
REMARK    4  A    between atoms: C_4  and  C_34
REMARK    5  A    between atoms: N_7  and  C_11
REMARK    6  A    between atoms: C_11  and  C_12
REMARK    7  A    between atoms: N_14  and  C_15
REMARK    8  A    between atoms: C_18  and  S_21
REMARK    9  A    between atoms: S_21  and  N_24
REMARK   10  A    between atoms: C_26  and  C_33
REMARK   11  A    between atoms: C_29  and  C_32
REMARK                            x       y       z     vdW  Elec       q    Type
REMARK                         _______ _______ _______ _____ _____    ______ ____
ROOT
ATOM      1  C   UNL     1       2.604  -3.009  -1.643  0.00  0.00    +0.235 C 
ATOM      2  O   UNL     1       2.556  -1.876  -1.212  0.00  0.00    -0.274 OA
ATOM      3  N   UNL     1       3.682  -3.419  -2.340  0.00  0.00    -0.284 N 
ATOM      4  H   UNL     1       3.752  -4.343  -2.627  0.00  0.00    +0.155 HD
ENDROOT
BRANCH   3   5
ATOM      5  C   UNL     1       4.701  -2.512  -2.651  0.00  0.00    +0.034 A 
ATOM      6  C   UNL     1       5.377  -2.612  -3.860  0.00  0.00    +0.025 A 
ATOM      7  C   UNL     1       6.382  -1.715  -4.164  0.00  0.00    +0.030 A 
ATOM      8  C   UNL     1       6.716  -0.718  -3.266  0.00  0.00    +0.106 A 
ATOM      9  C   UNL     1       6.045  -0.616  -2.061  0.00  0.00    +0.030 A 
ATOM     10  C   UNL     1       5.035  -1.506  -1.754  0.00  0.00    +0.025 A 
BRANCH   8  11
ATOM     11  S   UNL     1       7.999   0.425  -3.657  0.00  0.00    +0.061 S 
ATOM     12  O   UNL     1       8.489   0.924  -2.420  0.00  0.00    -0.153 OA
ATOM     13  O   UNL     1       8.839  -0.218  -4.606  0.00  0.00    -0.153 OA
BRANCH  11  14
ATOM     14  N   UNL     1       7.295   1.703  -4.438  0.00  0.00    -0.176 NA
ATOM     15  C   UNL     1       7.149   1.699  -5.900  0.00  0.00    +0.112 C 
ATOM     16  C   UNL     1       5.680   1.960  -6.250  0.00  0.00    +0.002 C 
ATOM     17  C   UNL     1       5.223   3.256  -5.577  0.00  0.00    +0.009 C 
ATOM     18  C   UNL     1       5.339   3.112  -4.057  0.00  0.00    +0.002 C 
ATOM     19  C   UNL     1       6.798   2.861  -3.682  0.00  0.00    +0.112 C 
ATOM     20  C   UNL     1       4.850   4.396  -3.384  0.00  0.00    +0.009 C 
ATOM     21  C   UNL     1       5.532   2.093  -7.767  0.00  0.00    +0.009 C 
ENDBRANCH  11  14
ENDBRANCH   8  11
ENDBRANCH   3   5
BRANCH   1  22
ATOM     22  C   UNL     1       1.460  -3.958  -1.398  0.00  0.00    +0.214 C 
BRANCH  22  26
ATOM     23  C   UNL     1      -1.415  -2.068   0.001  0.00  0.00    +0.138 C 
ATOM     24  C   UNL     1      -0.602  -2.588  -1.168  0.00  0.00    +0.251 C 
ATOM     25  O   UNL     1      -0.824  -2.418  -2.347  0.00  0.00    -0.272 OA
ATOM     26  N   UNL     1       0.419  -3.278  -0.622  0.00  0.00    -0.215 N 
ATOM     27  C   UNL     1       0.365  -3.266   0.714  0.00  0.00    +0.310 C 
ATOM     28  O   UNL     1       1.177  -3.821   1.429  0.00  0.00    -0.252 OA
ATOM     29  N   UNL     1      -0.690  -2.572   1.180  0.00  0.00    -0.281 N 
ATOM     30  H   UNL     1      -0.926  -2.432   2.110  0.00  0.00    +0.152 HD
BRANCH  23  31
ATOM     31  C   UNL     1      -2.817  -2.621  -0.036  0.00  0.00    -0.015 A 
ATOM     32  C   UNL     1      -3.823  -1.913  -0.667  0.00  0.00    +0.006 A 
ATOM     33  C   UNL     1      -5.108  -2.420  -0.701  0.00  0.00    +0.000 A 
ATOM     34  C   UNL     1      -5.388  -3.635  -0.104  0.00  0.00    +0.000 A 
ATOM     35  C   UNL     1      -4.381  -4.344   0.526  0.00  0.00    +0.000 A 
ATOM     36  C   UNL     1      -3.095  -3.838   0.556  0.00  0.00    +0.006 A 
ENDBRANCH  23  31
BRANCH  23  37
ATOM     37  C   UNL     1      -1.442  -0.538  -0.000  0.00  0.00    +0.040 C 
BRANCH  37  39
ATOM     38  C   UNL     1      -0.035   1.527  -0.017  0.00  0.00    +0.004 C 
ATOM     39  C   UNL     1      -0.008  -0.003  -0.016  0.00  0.00    -0.000 C 
ENDBRANCH  37  39
ENDBRANCH  23  37
ENDBRANCH  22  26
ENDBRANCH   1  22
TORSDOF 8
