REMARK  Name = ZINC13134750
REMARK  7 active torsions:
REMARK  status: ('A' for Active; 'I' for Inactive)
REMARK    1  A    between atoms: C_1  and  C_2
REMARK    2  A    between atoms: C_11  and  N_22
REMARK    3  A    between atoms: C_13  and  C_15
REMARK    4  A    between atoms: C_15  and  N_16
REMARK    5  A    between atoms: N_22  and  C_23
REMARK    6  A    between atoms: C_23  and  C_24
REMARK    7  A    between atoms: C_24  and  N_25
REMARK                            x       y       z     vdW  Elec       q    Type
REMARK                         _______ _______ _______ _____ _____    ______ ____
ROOT
ATOM      1  C   UNL     1      -3.149   7.407  -0.611  0.00  0.00    +0.008 C 
ATOM      2  C   UNL     1      -2.061   6.345  -0.784  0.00  0.00    -0.009 C 
ATOM      3  C   UNL     1      -2.355   5.150   0.128  0.00  0.00    +0.008 C 
ATOM      4  C   UNL     1      -1.422   3.990  -0.219  0.00  0.00    +0.037 C 
ATOM      5  C   UNL     1       0.019   4.494  -0.202  0.00  0.00    -0.025 A 
ATOM      6  C   UNL     1       0.288   5.812  -0.283  0.00  0.00    -0.004 A 
ATOM      7  S   UNL     1       2.056   5.928  -0.226  0.00  0.00    -0.073 S 
ATOM      8  C   UNL     1       2.433   4.200  -0.093  0.00  0.00    +0.114 A 
ATOM      9  C   UNL     1       1.164   3.587  -0.097  0.00  0.00    +0.051 A 
ATOM     10  C   UNL     1       1.171   2.169   0.003  0.00  0.00    +0.131 A 
ATOM     11  N   UNL     1       2.329   1.535   0.093  0.00  0.00    -0.216 NA
ATOM     12  C   UNL     1       3.484   2.176   0.085  0.00  0.00    +0.146 A 
ATOM     13  N   UNL     1       3.541   3.491  -0.004  0.00  0.00    -0.223 NA
ATOM     14  C   UNL     1      -0.698   6.935  -0.398  0.00  0.00    +0.046 C 
ENDROOT
BRANCH  10  15
ATOM     15  N   UNL     1      -0.018   1.461   0.010  0.00  0.00    -0.327 N 
ATOM     16  H   UNL     1      -0.971   1.984  -0.155  0.00  0.00    +0.148 HD
BRANCH  15  17
ATOM     17  C   UNL     1      -0.007   0.014   0.238  0.00  0.00    +0.121 C 
BRANCH  17  18
ATOM     18  C   UNL     1      -1.440  -0.520   0.197  0.00  0.00    +0.121 C 
BRANCH  18  19
ATOM     19  N   UNL     1      -1.429  -1.967   0.424  0.00  0.00    -0.329 N 
ATOM     20  C   UNL     1      -2.624  -2.678   0.432  0.00  0.00    +0.096 A 
ATOM     21  C   UNL     1      -3.826  -2.010   0.223  0.00  0.00    +0.041 A 
ATOM     22  C   UNL     1      -5.006  -2.730   0.233  0.00  0.00    +0.005 A 
ATOM     23  C   UNL     1      -4.946  -4.100   0.452  0.00  0.00    +0.018 A 
ATOM     24  C   UNL     1      -3.718  -4.698   0.653  0.00  0.00    +0.084 A 
ATOM     25  N   UNL     1      -2.607  -3.987   0.632  0.00  0.00    -0.350 N 
ATOM     26  H   UNL     1      -0.476  -2.491   0.589  0.00  0.00    +0.147 HD
ATOM     27  H   UNL     1      -1.650  -4.507   0.787  0.00  0.00    +0.166 HD
ENDBRANCH  18  19
ENDBRANCH  17  18
ENDBRANCH  15  17
ENDBRANCH  10  15
BRANCH  12  28
ATOM     28  C   UNL     1       4.765   1.388   0.185  0.00  0.00    +0.160 C 
BRANCH  28  29
ATOM     29  N   UNL     1       5.132   1.228   1.598  0.00  0.00    -0.291 NA
ATOM     30  C   UNL     1       5.477   2.522   2.203  0.00  0.00    +0.113 C 
ATOM     31  C   UNL     1       5.794   2.318   3.687  0.00  0.00    +0.175 C 
ATOM     32  O   UNL     1       6.849   1.361   3.816  0.00  0.00    -0.377 OA
ATOM     33  C   UNL     1       6.546   0.088   3.239  0.00  0.00    +0.175 C 
ATOM     34  C   UNL     1       6.237   0.270   1.750  0.00  0.00    +0.113 C 
ENDBRANCH  28  29
ENDBRANCH  12  28
TORSDOF 6
