REMARK  Name = ZINC15672729
REMARK  5 active torsions:
REMARK  status: ('A' for Active; 'I' for Inactive)
REMARK    1  A    between atoms: C_1  and  C_2
REMARK    2  A    between atoms: C_2  and  C_22
REMARK    3  A    between atoms: N_14  and  C_15
REMARK    4  A    between atoms: C_15  and  C_16
REMARK    5  A    between atoms: N_24  and  C_25
REMARK                            x       y       z     vdW  Elec       q    Type
REMARK                         _______ _______ _______ _____ _____    ______ ____
ROOT
ATOM      1  C   UNL     1       3.584  -5.036   2.244  0.00  0.00    +0.043 C 
ATOM      2  C   UNL     1       4.436  -3.952   1.581  0.00  0.00    +0.129 C 
ATOM      3  C   UNL     1       5.446  -4.621   0.648  0.00  0.00    +0.157 C 
ATOM      4  N   UNL     1       6.496  -5.249   1.453  0.00  0.00    -0.333 N 
ATOM      5  C   UNL     1       7.269  -6.358   1.160  0.00  0.00    +0.057 A 
ATOM      6  C   UNL     1       7.413  -7.306   0.136  0.00  0.00    +0.034 A 
ATOM      7  C   UNL     1       8.341  -8.280   0.238  0.00  0.00    +0.048 A 
ATOM      8  S   UNL     1       9.100  -7.933   1.816  0.00  0.00    -0.095 S 
ATOM      9  C   UNL     1       8.136  -6.509   2.253  0.00  0.00    +0.038 A 
ATOM     10  C   UNL     1       7.883  -5.513   3.188  0.00  0.00    +0.048 A 
ATOM     11  C   UNL     1       6.865  -4.750   2.698  0.00  0.00    +0.106 A 
ATOM     12  C   UNL     1       6.193  -3.573   3.262  0.00  0.00    +0.264 C 
ATOM     13  O   UNL     1       6.616  -3.005   4.252  0.00  0.00    -0.268 OA
ATOM     14  N   UNL     1       5.076  -3.155   2.621  0.00  0.00    -0.276 N 
ENDROOT
BRANCH   2  15
ATOM     15  C   UNL     1       3.537  -3.058   0.766  0.00  0.00    +0.238 C 
ATOM     16  O   UNL     1       2.402  -3.404   0.515  0.00  0.00    -0.273 OA
ATOM     17  N   UNL     1       3.995  -1.873   0.315  0.00  0.00    -0.311 N 
ATOM     18  H   UNL     1       4.875  -1.561   0.578  0.00  0.00    +0.149 HD
BRANCH  17  19
ATOM     19  C   UNL     1       3.163  -1.055  -0.570  0.00  0.00    +0.073 C 
ATOM     20  C   UNL     1       3.571   0.414  -0.442  0.00  0.00    +0.022 C 
ATOM     21  C   UNL     1       2.477   1.302  -1.038  0.00  0.00    +0.002 C 
ATOM     22  C   UNL     1       3.009   1.993  -2.295  0.00  0.00    +0.000 C 
ATOM     23  C   UNL     1       3.781   0.981  -3.146  0.00  0.00    +0.000 C 
ATOM     24  C   UNL     1       2.792   0.066  -3.871  0.00  0.00    +0.000 C 
ATOM     25  C   UNL     1       2.224  -0.955  -2.884  0.00  0.00    +0.002 C 
ATOM     26  C   UNL     1       3.355  -1.513  -2.018  0.00  0.00    +0.022 C 
ENDBRANCH  17  19
ENDBRANCH   2  15
BRANCH  14  27
ATOM     27  C   UNL     1       4.492  -1.861   2.984  0.00  0.00    +0.144 C 
BRANCH  27  28
ATOM     28  C   UNL     1       3.503  -2.052   4.104  0.00  0.00    -0.030 A 
ATOM     29  C   UNL     1       2.163  -2.239   3.819  0.00  0.00    +0.005 A 
ATOM     30  C   UNL     1       1.257  -2.419   4.847  0.00  0.00    +0.000 A 
ATOM     31  C   UNL     1       1.688  -2.403   6.160  0.00  0.00    +0.000 A 
ATOM     32  C   UNL     1       3.027  -2.211   6.445  0.00  0.00    +0.000 A 
ATOM     33  C   UNL     1       3.935  -2.036   5.417  0.00  0.00    +0.005 A 
ENDBRANCH  27  28
ENDBRANCH  14  27
TORSDOF 4
