REMARK  Name = ZINC21938950
REMARK  14 active torsions:
REMARK  status: ('A' for Active; 'I' for Inactive)
REMARK    1  A    between atoms: C_1  and  C_2
REMARK    2  A    between atoms: C_2  and  C_3
REMARK    3  A    between atoms: C_3  and  C_4
REMARK    4  A    between atoms: C_3  and  C_5
REMARK    5  A    between atoms: C_3  and  C_6
REMARK    6  A    between atoms: N_14  and  C_18
REMARK    7  A    between atoms: C_18  and  C_19
REMARK    8  A    between atoms: N_21  and  C_22
REMARK    9  A    between atoms: C_22  and  C_23
REMARK   10  A    between atoms: C_23  and  C_24
REMARK   11  A    between atoms: C_24  and  N_25
REMARK   12  A    between atoms: N_25  and  C_26
REMARK   13  A    between atoms: N_25  and  C_27
REMARK   14  A    between atoms: C_27  and  C_28
REMARK                            x       y       z     vdW  Elec       q    Type
REMARK                         _______ _______ _______ _____ _____    ______ ____
ROOT
ATOM      1  C   UNL     1      -5.221  -1.506   3.126  0.00  0.00    -0.005 C 
ATOM      2  C   UNL     1      -3.837  -1.948   2.648  0.00  0.00    +0.006 C 
ATOM      3  C   UNL     1      -3.784  -1.894   1.119  0.00  0.00    +0.035 C 
ATOM      4  C   UNL     1      -4.072  -0.472   0.650  0.00  0.00    +0.113 C 
ATOM      5  C   UNL     1      -5.441  -0.009   1.137  0.00  0.00    +0.035 C 
ATOM      6  C   UNL     1      -5.487  -0.071   2.666  0.00  0.00    +0.006 C 
ATOM      7  C   UNL     1      -2.994   0.471   1.135  0.00  0.00    +0.247 C 
ATOM      8  O   UNL     1      -2.699   0.719   2.284  0.00  0.00    -0.273 OA
ATOM      9  N   UNL     1      -2.430   0.977   0.019  0.00  0.00    -0.215 N 
ATOM     10  C   UNL     1      -3.004   0.491  -1.088  0.00  0.00    +0.310 C 
ATOM     11  O   UNL     1      -2.672   0.803  -2.215  0.00  0.00    -0.252 OA
ATOM     12  N   UNL     1      -3.990  -0.385  -0.814  0.00  0.00    -0.285 N 
ATOM     13  H   UNL     1      -4.669  -0.982  -1.439  0.00  0.00    +0.151 HD
ENDROOT
BRANCH   1  14
ATOM     14  C   UNL     1      -5.277  -1.570   4.653  0.00  0.00    -0.032 C 
ATOM     15  C   UNL     1      -5.014  -3.005   5.113  0.00  0.00    +0.011 C 
ATOM     16  C   UNL     1      -4.213  -0.642   5.243  0.00  0.00    +0.011 C 
BRANCH  14  18
ATOM     17  C   UNL     1      -6.718  -1.192   6.659  0.00  0.00    +0.004 C 
ATOM     18  C   UNL     1      -6.662  -1.127   5.131  0.00  0.00    +0.003 C 
ENDBRANCH  14  18
ENDBRANCH   1  14
BRANCH   9  19
ATOM     19  C   UNL     1      -1.330   1.944   0.019  0.00  0.00    +0.213 C 
BRANCH  19  20
ATOM     20  C   UNL     1      -0.014   1.209   0.009  0.00  0.00    +0.231 C 
ATOM     21  O   UNL     1       0.002  -0.004   0.002  0.00  0.00    -0.274 OA
ATOM     22  N   UNL     1       1.143   1.898   0.001  0.00  0.00    -0.314 N 
ATOM     23  H   UNL     1       1.129   2.998   0.007  0.00  0.00    +0.149 HD
BRANCH  22  24
ATOM     24  C   UNL     1       2.422   1.183  -0.015  0.00  0.00    +0.102 C 
BRANCH  24  25
ATOM     25  C   UNL     1       3.571   2.193  -0.020  0.00  0.00    +0.000 C 
BRANCH  25  26
ATOM     26  C   UNL     1       4.907   1.446  -0.037  0.00  0.00    -0.077 C 
BRANCH  26  27
ATOM     27  N   UNL     1       6.010   2.416  -0.042  0.00  0.00    +0.381 N 
ATOM     28  C   UNL     1       6.050   3.175   1.215  0.00  0.00    -0.096 C 
ATOM     29  H   UNL     1       5.830   3.128  -0.862  0.00  0.00    -0.082 HD
BRANCH  27  30
ATOM     30  C   UNL     1       7.295   1.750  -0.296  0.00  0.00    -0.043 C 
BRANCH  30  31
ATOM     31  C   UNL     1       8.359   2.789  -0.538  0.00  0.00    -0.064 A 
ATOM     32  C   UNL     1       8.608   3.238  -1.822  0.00  0.00    +0.002 A 
ATOM     33  C   UNL     1       9.581   4.194  -2.043  0.00  0.00    +0.000 A 
ATOM     34  C   UNL     1      10.313   4.694  -0.982  0.00  0.00    +0.000 A 
ATOM     35  C   UNL     1      10.069   4.241   0.301  0.00  0.00    +0.000 A 
ATOM     36  C   UNL     1       9.091   3.288   0.523  0.00  0.00    +0.002 A 
ENDBRANCH  30  31
ENDBRANCH  27  30
ENDBRANCH  26  27
ENDBRANCH  25  26
ENDBRANCH  24  25
ENDBRANCH  22  24
ENDBRANCH  19  20
ENDBRANCH   9  19
TORSDOF 10
