REMARK  Name = ZINC32733290
REMARK  17 active torsions:
REMARK  status: ('A' for Active; 'I' for Inactive)
REMARK    1  A    between atoms: C_1  and  C_2
REMARK    2  A    between atoms: C_2  and  C_3
REMARK    3  A    between atoms: C_6  and  C_9
REMARK    4  A    between atoms: C_9  and  C_11
REMARK    5  A    between atoms: C_9  and  N_31
REMARK    6  A    between atoms: C_11  and  N_12
REMARK    7  A    between atoms: C_13  and  C_15
REMARK    8  A    between atoms: C_18  and  O_29
REMARK    9  A    between atoms: C_19  and  S_21
REMARK   10  A    between atoms: S_21  and  N_24
REMARK   11  A    between atoms: N_24  and  C_25
REMARK   12  A    between atoms: C_25  and  C_26
REMARK   13  A    between atoms: C_25  and  C_27
REMARK   14  A    between atoms: C_25  and  C_28
REMARK   15  A    between atoms: O_29  and  C_30
REMARK   16  A    between atoms: N_31  and  C_32
REMARK   17  A    between atoms: N_31  and  C_33
REMARK                            x       y       z     vdW  Elec       q    Type
REMARK                         _______ _______ _______ _____ _____    ______ ____
ROOT
ATOM      1  N   UNL     1      -3.525  -3.543   6.122  0.00  0.00    -0.313 N 
ATOM      2  C   UNL     1      -3.084  -3.360   4.861  0.00  0.00    +0.244 C 
ATOM      3  O   UNL     1      -2.599  -4.289   4.246  0.00  0.00    -0.270 OA
ATOM      4  H   UNL     1      -3.964  -2.702   6.678  0.00  0.00    +0.149 HD
ENDROOT
BRANCH   2   5
ATOM      5  C   UNL     1      -3.192  -2.031   4.227  0.00  0.00    +0.039 A 
ATOM      6  C   UNL     1      -3.750  -0.962   4.933  0.00  0.00    +0.017 A 
ATOM      7  C   UNL     1      -3.849   0.276   4.338  0.00  0.00    +0.048 A 
ATOM      8  C   UNL     1      -3.394   0.462   3.037  0.00  0.00    +0.146 A 
ATOM      9  C   UNL     1      -2.838  -0.599   2.332  0.00  0.00    +0.147 A 
ATOM     10  C   UNL     1      -2.741  -1.841   2.919  0.00  0.00    +0.045 A 
BRANCH   9  11
ATOM     11  S   UNL     1      -2.264  -0.356   0.684  0.00  0.00    +0.062 S 
ATOM     12  O   UNL     1      -1.798  -1.618   0.227  0.00  0.00    -0.153 OA
ATOM     13  O   UNL     1      -1.437   0.799   0.709  0.00  0.00    -0.153 OA
BRANCH  11  14
ATOM     14  N   UNL     1      -3.583   0.026  -0.242  0.00  0.00    -0.185 NA
ATOM     15  H   UNL     1      -3.605   0.988  -0.775  0.00  0.00    +0.149 HD
BRANCH  14  16
ATOM     16  C   UNL     1      -4.599  -0.991  -0.523  0.00  0.00    +0.032 C 
ATOM     17  C   UNL     1      -5.101  -1.589   0.793  0.00  0.00    +0.029 C 
ATOM     18  C   UNL     1      -5.770  -0.349  -1.270  0.00  0.00    +0.029 C 
ATOM     19  C   UNL     1      -3.989  -2.097  -1.387  0.00  0.00    +0.029 C 
ENDBRANCH  14  16
ENDBRANCH  11  14
ENDBRANCH   9  11
BRANCH   8  20
ATOM     20  O   UNL     1      -3.494   1.684   2.454  0.00  0.00    -0.493 OA
ATOM     21  C   UNL     1      -3.969   2.756   3.271  0.00  0.00    +0.277 C 
ENDBRANCH   8  20
ENDBRANCH   2   5
BRANCH   1  22
ATOM     22  C   UNL     1      -3.418  -4.862   6.751  0.00  0.00    +0.094 C 
BRANCH  22  23
ATOM     23  C   UNL     1      -3.799  -4.754   8.229  0.00  0.00    -0.021 C 
BRANCH  23  27
ATOM     24  C   UNL     1      -3.876  -8.655   9.966  0.00  0.00    -0.048 A 
ATOM     25  C   UNL     1      -5.017  -8.136   9.384  0.00  0.00    +0.004 A 
ATOM     26  C   UNL     1      -4.992  -6.873   8.822  0.00  0.00    +0.002 A 
ATOM     27  C   UNL     1      -3.826  -6.130   8.842  0.00  0.00    -0.059 A 
ATOM     28  C   UNL     1      -2.684  -6.652   9.419  0.00  0.00    +0.002 A 
ATOM     29  C   UNL     1      -2.710  -7.913   9.986  0.00  0.00    +0.004 A 
BRANCH  24  31
ATOM     30  C   UNL     1      -3.526 -11.069   9.519  0.00  0.00    +0.009 C 
ATOM     31  C   UNL     1      -3.903 -10.032  10.579  0.00  0.00    +0.032 C 
ENDBRANCH  24  31
ENDBRANCH  23  27
BRANCH  23  32
ATOM     32  N   UNL     1      -2.810  -3.925   8.930  0.00  0.00    +0.382 N 
ATOM     33  C   UNL     1      -1.480  -4.065   8.323  0.00  0.00    -0.096 C 
ATOM     34  C   UNL     1      -3.230  -2.517   8.960  0.00  0.00    -0.096 C 
ATOM     35  H   UNL     1      -2.747  -4.280   9.969  0.00  0.00    -0.082 HD
ENDBRANCH  23  32
ENDBRANCH  22  23
ENDBRANCH   1  22
TORSDOF 10
