REMARK  Name = ZINC23548703
REMARK  14 active torsions:
REMARK  status: ('A' for Active; 'I' for Inactive)
REMARK    1  A    between atoms: C_1  and  C_2
REMARK    2  A    between atoms: C_2  and  C_3
REMARK    3  A    between atoms: C_6  and  C_9
REMARK    4  A    between atoms: C_9  and  C_11
REMARK    5  A    between atoms: C_9  and  N_33
REMARK    6  A    between atoms: C_11  and  N_12
REMARK    7  A    between atoms: C_13  and  C_15
REMARK    8  A    between atoms: N_18  and  S_21
REMARK    9  A    between atoms: S_21  and  C_24
REMARK   10  A    between atoms: C_27  and  C_30
REMARK   11  A    between atoms: C_30  and  C_31
REMARK   12  A    between atoms: C_30  and  C_32
REMARK   13  A    between atoms: N_33  and  C_34
REMARK   14  A    between atoms: N_33  and  C_35
REMARK                            x       y       z     vdW  Elec       q    Type
REMARK                         _______ _______ _______ _____ _____    ______ ____
ROOT
ATOM      1  N   UNL     1      -0.119   3.080   6.434  0.00  0.00    -0.316 N 
ATOM      2  C   UNL     1       0.790   2.896   5.456  0.00  0.00    +0.216 C 
ATOM      3  O   UNL     1       1.843   2.345   5.702  0.00  0.00    -0.276 OA
ATOM      4  H   UNL     1      -1.073   3.579   6.211  0.00  0.00    +0.149 HD
ENDROOT
BRANCH   2   5
ATOM      5  C   UNL     1       0.499   3.374   4.057  0.00  0.00    +0.077 C 
ATOM      6  C   UNL     1       1.685   3.044   3.148  0.00  0.00    +0.030 C 
ATOM      7  C   UNL     1       1.400   3.562   1.735  0.00  0.00    +0.110 C 
ATOM      8  N   UNL     1       0.118   3.010   1.278  0.00  0.00    -0.177 NA
ATOM      9  C   UNL     1      -1.072   3.196   2.120  0.00  0.00    +0.110 C 
ATOM     10  C   UNL     1      -0.758   2.677   3.531  0.00  0.00    +0.030 C 
BRANCH   8  11
ATOM     11  S   UNL     1       0.014   2.197  -0.161  0.00  0.00    +0.061 S 
ATOM     12  O   UNL     1       1.094   2.655  -0.964  0.00  0.00    -0.153 OA
ATOM     13  O   UNL     1      -1.340   2.289  -0.582  0.00  0.00    -0.153 OA
BRANCH  11  14
ATOM     14  C   UNL     1       0.323   0.496   0.177  0.00  0.00    +0.105 A 
ATOM     15  C   UNL     1      -0.726  -0.347   0.493  0.00  0.00    +0.029 A 
ATOM     16  C   UNL     1      -0.483  -1.682   0.758  0.00  0.00    +0.006 A 
ATOM     17  C   UNL     1       0.807  -2.174   0.707  0.00  0.00    -0.045 A 
ATOM     18  C   UNL     1       1.856  -1.331   0.390  0.00  0.00    +0.006 A 
ATOM     19  C   UNL     1       1.614   0.004   0.124  0.00  0.00    +0.029 A 
BRANCH  17  20
ATOM     20  C   UNL     1       1.072  -3.629   0.997  0.00  0.00    +0.013 C 
ATOM     21  C   UNL     1       1.715  -4.284  -0.227  0.00  0.00    +0.012 C 
ATOM     22  C   UNL     1       2.016  -3.747   2.195  0.00  0.00    +0.012 C 
ENDBRANCH  17  20
ENDBRANCH  11  14
ENDBRANCH   8  11
ENDBRANCH   2   5
BRANCH   1  23
ATOM     23  C   UNL     1       0.165   2.615   7.794  0.00  0.00    +0.093 C 
BRANCH  23  24
ATOM     24  C   UNL     1      -0.949   3.081   8.735  0.00  0.00    -0.021 C 
BRANCH  24  28
ATOM     25  C   UNL     1      -0.214   1.577  12.665  0.00  0.00    -0.048 A 
ATOM     26  C   UNL     1      -1.192   1.001  11.876  0.00  0.00    +0.004 A 
ATOM     27  C   UNL     1      -1.430   1.488  10.604  0.00  0.00    +0.002 A 
ATOM     28  C   UNL     1      -0.690   2.550  10.121  0.00  0.00    -0.059 A 
ATOM     29  C   UNL     1       0.292   3.123  10.908  0.00  0.00    +0.002 A 
ATOM     30  C   UNL     1       0.526   2.640  12.182  0.00  0.00    +0.004 A 
BRANCH  25  32
ATOM     31  C   UNL     1       1.107  -0.054  13.986  0.00  0.00    +0.009 C 
ATOM     32  C   UNL     1       0.045   1.046  14.051  0.00  0.00    +0.032 C 
ENDBRANCH  25  32
ENDBRANCH  24  28
BRANCH  24  33
ATOM     33  N   UNL     1      -0.978   4.549   8.770  0.00  0.00    +0.382 N 
ATOM     34  C   UNL     1       0.354   5.109   8.506  0.00  0.00    -0.096 C 
ATOM     35  C   UNL     1      -1.968   5.078   7.822  0.00  0.00    -0.096 C 
ATOM     36  H   UNL     1      -1.280   4.857   9.781  0.00  0.00    -0.082 HD
ENDBRANCH  24  33
ENDBRANCH  23  24
ENDBRANCH   1  23
TORSDOF 9
