REMARK  Name = ZINC63351092
REMARK  8 active torsions:
REMARK  status: ('A' for Active; 'I' for Inactive)
REMARK    1  A    between atoms: C_1  and  C_2
REMARK    2  A    between atoms: C_5  and  S_8
REMARK    3  A    between atoms: S_8  and  N_11
REMARK    4  A    between atoms: C_14  and  C_17
REMARK    5  A    between atoms: C_23  and  C_25
REMARK    6  A    between atoms: N_27  and  C_28
REMARK    7  A    between atoms: C_28  and  C_29
REMARK    8  A    between atoms: C_29  and  C_30
REMARK                            x       y       z     vdW  Elec       q    Type
REMARK                         _______ _______ _______ _____ _____    ______ ____
ROOT
ATOM      1  C   UNL     1       4.498  -8.132  -0.077  0.00  0.00    +0.219 C 
ATOM      2  O   UNL     1       4.209  -8.927  -0.947  0.00  0.00    -0.275 OA
ATOM      3  N   UNL     1       5.394  -8.468   0.872  0.00  0.00    -0.290 N 
ATOM      4  C   UNL     1       5.756  -7.646   2.041  0.00  0.00    +0.108 C 
ATOM      5  C   UNL     1       6.285  -8.657   3.089  0.00  0.00    +0.021 C 
ATOM      6  C   UNL     1       7.039  -9.671   2.189  0.00  0.00    +0.033 C 
ATOM      7  C   UNL     1       6.167  -9.718   0.917  0.00  0.00    +0.162 C 
ENDROOT
BRANCH   1  11
ATOM      8  N   UNL     1       1.794  -4.926  -0.654  0.00  0.00    -0.177 NA
ATOM      9  C   UNL     1       3.013  -4.890  -1.473  0.00  0.00    +0.110 C 
ATOM     10  C   UNL     1       3.634  -6.290  -1.496  0.00  0.00    +0.030 C 
ATOM     11  C   UNL     1       3.856  -6.769  -0.059  0.00  0.00    +0.078 C 
ATOM     12  C   UNL     1       2.511  -6.848   0.668  0.00  0.00    +0.030 C 
ATOM     13  C   UNL     1       1.879  -5.449   0.717  0.00  0.00    +0.110 C 
BRANCH   8  14
ATOM     14  S   UNL     1       0.352  -4.383  -1.262  0.00  0.00    +0.061 S 
ATOM     15  O   UNL     1      -0.672  -5.028  -0.517  0.00  0.00    -0.153 OA
ATOM     16  O   UNL     1       0.444  -4.483  -2.676  0.00  0.00    -0.153 OA
BRANCH  14  21
ATOM     17  C   UNL     1      -0.025   1.500   0.028  0.00  0.00    +0.044 C 
ATOM     18  C   UNL     1       0.070   0.030  -0.294  0.00  0.00    -0.050 A 
ATOM     19  C   UNL     1       0.650  -0.382  -1.479  0.00  0.00    +0.005 A 
ATOM     20  C   UNL     1       0.737  -1.729  -1.775  0.00  0.00    +0.029 A 
ATOM     21  C   UNL     1       0.243  -2.665  -0.885  0.00  0.00    +0.105 A 
ATOM     22  C   UNL     1      -0.336  -2.253   0.301  0.00  0.00    +0.029 A 
ATOM     23  C   UNL     1      -0.419  -0.905   0.598  0.00  0.00    +0.005 A 
ENDBRANCH  14  21
ENDBRANCH   8  14
ENDBRANCH   1  11
BRANCH   7  24
ATOM     24  C   UNL     1       5.231 -10.897   0.977  0.00  0.00    +0.234 C 
ATOM     25  O   UNL     1       4.031 -10.720   0.982  0.00  0.00    -0.274 OA
ATOM     26  N   UNL     1       5.727 -12.149   1.025  0.00  0.00    -0.313 N 
ATOM     27  H   UNL     1       6.686 -12.291   1.021  0.00  0.00    +0.149 HD
BRANCH  26  28
ATOM     28  C   UNL     1       4.817 -13.296   1.083  0.00  0.00    +0.108 C 
BRANCH  28  29
ATOM     29  C   UNL     1       5.630 -14.591   1.130  0.00  0.00    +0.052 C 
BRANCH  29  30
ATOM     30  C   UNL     1       4.694 -15.771   1.190  0.00  0.00    -0.040 C 
ATOM     31  C   UNL     1       4.256 -16.515   0.148  0.00  0.00    -0.001 A 
ATOM     32  C   UNL     1       4.510 -16.450  -1.296  0.00  0.00    +0.010 A 
ATOM     33  C   UNL     1       3.913 -17.353  -2.107  0.00  0.00    +0.001 A 
ATOM     34  C   UNL     1       3.062 -18.346  -1.605  0.00  0.00    +0.002 A 
ATOM     35  C   UNL     1       2.781 -18.469  -0.290  0.00  0.00    +0.026 A 
ATOM     36  C   UNL     1       3.353 -17.573   0.654  0.00  0.00    +0.043 A 
ATOM     37  N   UNL     1       3.238 -17.487   1.957  0.00  0.00    -0.380 N 
ATOM     38  C   UNL     1       4.060 -16.366   2.426  0.00  0.00    +0.144 C 
ATOM     39  H   UNL     1       2.701 -18.069   2.518  0.00  0.00    +0.160 HD
ENDBRANCH  29  30
ENDBRANCH  28  29
ENDBRANCH  26  28
ENDBRANCH   7  24
TORSDOF 7
