REMARK  Name = ZINC29835798
REMARK  10 active torsions:
REMARK  status: ('A' for Active; 'I' for Inactive)
REMARK    1  A    between atoms: C_1  and  C_2
REMARK    2  A    between atoms: C_8  and  S_12
REMARK    3  A    between atoms: S_12  and  N_15
REMARK    4  A    between atoms: N_18  and  C_21
REMARK    5  A    between atoms: C_21  and  C_23
REMARK    6  A    between atoms: C_21  and  C_24
REMARK    7  A    between atoms: N_26  and  C_27
REMARK    8  A    between atoms: C_32  and  C_33
REMARK    9  A    between atoms: C_33  and  C_34
REMARK   10  A    between atoms: C_33  and  C_35
REMARK                            x       y       z     vdW  Elec       q    Type
REMARK                         _______ _______ _______ _____ _____    ______ ____
ROOT
ATOM      1  N   UNL     1       5.831   3.150  -0.376  0.00  0.00    -0.180 NA
ATOM      2  C   UNL     1       5.798   2.193   0.741  0.00  0.00    +0.091 C 
ATOM      3  C   UNL     1       4.728   1.136   0.445  0.00  0.00    -0.060 C 
ATOM      4  N   UNL     1       3.451   1.804   0.162  0.00  0.00    +0.389 N 
ATOM      5  C   UNL     1       3.543   2.640  -1.043  0.00  0.00    -0.060 C 
ATOM      6  C   UNL     1       4.564   3.758  -0.808  0.00  0.00    +0.091 C 
ATOM      7  H   UNL     1       3.223   2.465   1.011  0.00  0.00    -0.081 HD
ENDROOT
BRANCH   1   8
ATOM      8  S   UNL     1       7.258   3.532  -1.125  0.00  0.00    +0.063 S 
ATOM      9  O   UNL     1       7.075   4.811  -1.717  0.00  0.00    -0.153 OA
ATOM     10  O   UNL     1       8.293   3.267  -0.188  0.00  0.00    -0.153 OA
BRANCH   8  18
ATOM     11  C   UNL     1       8.204  -3.103  -1.344  0.00  0.00    +0.045 C 
ATOM     12  C   UNL     1       8.012  -1.647  -1.684  0.00  0.00    -0.032 A 
ATOM     13  C   UNL     1       8.009  -1.245  -2.989  0.00  0.00    +0.015 A 
ATOM     14  C   UNL     1       7.826   0.123  -3.262  0.00  0.00    +0.003 A 
ATOM     15  C   UNL     1       7.812   0.612  -4.578  0.00  0.00    +0.010 A 
ATOM     16  C   UNL     1       7.633   1.943  -4.800  0.00  0.00    +0.003 A 
ATOM     17  C   UNL     1       7.464   2.829  -3.738  0.00  0.00    +0.031 A 
ATOM     18  C   UNL     1       7.473   2.390  -2.450  0.00  0.00    +0.131 A 
ATOM     19  C   UNL     1       7.660   1.023  -2.179  0.00  0.00    +0.097 A 
ATOM     20  N   UNL     1       7.668   0.563  -0.925  0.00  0.00    -0.253 NA
ATOM     21  C   UNL     1       7.838  -0.711  -0.667  0.00  0.00    +0.114 A 
ENDBRANCH   8  18
ENDBRANCH   1   8
BRANCH   4  22
ATOM     22  C   UNL     1       2.361   0.826   0.042  0.00  0.00    +0.017 C 
ATOM     23  C   UNL     1       2.795  -0.310  -0.886  0.00  0.00    -0.004 C 
BRANCH  22  24
ATOM     24  C   UNL     1       2.037   0.267   1.403  0.00  0.00    +0.203 C 
ATOM     25  O   UNL     1       2.799   0.446   2.330  0.00  0.00    -0.277 OA
ATOM     26  N   UNL     1       0.900  -0.433   1.591  0.00  0.00    -0.287 N 
ATOM     27  H   UNL     1       0.178  -0.540   0.768  0.00  0.00    +0.155 HD
BRANCH  26  28
ATOM     28  C   UNL     1       0.639  -1.023   2.833  0.00  0.00    +0.037 A 
ATOM     29  C   UNL     1       1.152  -0.459   3.993  0.00  0.00    +0.023 A 
ATOM     30  C   UNL     1       0.888  -1.040   5.218  0.00  0.00    +0.002 A 
ATOM     31  C   UNL     1       0.122  -2.190   5.288  0.00  0.00    +0.000 A 
ATOM     32  C   UNL     1      -0.385  -2.758   4.133  0.00  0.00    +0.006 A 
ATOM     33  C   UNL     1      -0.129  -2.178   2.906  0.00  0.00    -0.024 A 
BRANCH  33  34
ATOM     34  C   UNL     1      -0.682  -2.797   1.649  0.00  0.00    +0.015 C 
ATOM     35  C   UNL     1      -0.242  -4.260   1.565  0.00  0.00    +0.012 C 
ATOM     36  C   UNL     1      -2.210  -2.724   1.674  0.00  0.00    +0.012 C 
ENDBRANCH  33  34
ENDBRANCH  26  28
ENDBRANCH  22  24
ENDBRANCH   4  22
TORSDOF 6
