REMARK  Name = ZINC07043349
REMARK  7 active torsions:
REMARK  status: ('A' for Active; 'I' for Inactive)
REMARK    1  A    between atoms: C_1  and  C_2
REMARK    2  A    between atoms: C_2  and  C_4
REMARK    3  A    between atoms: C_2  and  N_57
REMARK    4  A    between atoms: N_6  and  C_7
REMARK    5  A    between atoms: C_10  and  S_13
REMARK    6  A    between atoms: S_13  and  N_16
REMARK    7  A    between atoms: C_21  and  N_57
REMARK                            x       y       z     vdW  Elec       q    Type
REMARK                         _______ _______ _______ _____ _____    ______ ____
ROOT
ATOM      1  C   UNL     1      -1.267   5.527  -4.011  0.00  0.00    +0.203 C 
ATOM      2  O   UNL     1      -2.268   5.003  -4.452  0.00  0.00    -0.277 OA
ATOM      3  N   UNL     1      -0.825   6.686  -4.539  0.00  0.00    -0.287 N 
ATOM      4  H   UNL     1      -0.070   7.145  -4.137  0.00  0.00    +0.155 HD
ENDROOT
BRANCH   3   5
ATOM      5  C   UNL     1      -1.453   7.226  -5.666  0.00  0.00    +0.033 A 
ATOM      6  C   UNL     1      -1.993   6.387  -6.632  0.00  0.00    +0.025 A 
ATOM      7  C   UNL     1      -2.617   6.924  -7.740  0.00  0.00    +0.030 A 
ATOM      8  C   UNL     1      -2.696   8.296  -7.895  0.00  0.00    +0.106 A 
ATOM      9  C   UNL     1      -2.155   9.134  -6.938  0.00  0.00    +0.030 A 
ATOM     10  C   UNL     1      -1.534   8.604  -5.824  0.00  0.00    +0.025 A 
BRANCH   8  11
ATOM     11  S   UNL     1      -3.487   8.977  -9.314  0.00  0.00    +0.061 S 
ATOM     12  O   UNL     1      -4.391   7.988  -9.789  0.00  0.00    -0.153 OA
ATOM     13  O   UNL     1      -3.910  10.285  -8.955  0.00  0.00    -0.153 OA
BRANCH  11  14
ATOM     14  N   UNL     1      -2.327   9.158 -10.482  0.00  0.00    -0.177 NA
ATOM     15  C   UNL     1      -1.501  10.356 -10.690  0.00  0.00    +0.109 C 
ATOM     16  C   UNL     1      -0.584  10.076 -11.899  0.00  0.00    +0.018 C 
ATOM     17  C   UNL     1      -1.346   8.958 -12.659  0.00  0.00    +0.018 C 
ATOM     18  C   UNL     1      -1.956   8.147 -11.489  0.00  0.00    +0.109 C 
ENDBRANCH  11  14
ENDBRANCH   8  11
ENDBRANCH   3   5
BRANCH   1  20
ATOM     19  C   UNL     1       0.910   4.565  -3.316  0.00  0.00    -0.004 C 
ATOM     20  C   UNL     1      -0.519   4.884  -2.872  0.00  0.00    +0.014 C 
BRANCH  20  21
ATOM     21  N   UNL     1      -1.205   3.636  -2.487  0.00  0.00    +0.388 N 
ATOM     22  H   UNL     1      -0.883   2.872  -3.092  0.00  0.00    -0.084 HD
ATOM     23  H   UNL     1      -2.218   3.758  -2.598  0.00  0.00    -0.084 HD
BRANCH  21  24
ATOM     24  C   UNL     1      -0.907   3.301  -1.081  0.00  0.00    -0.071 C 
ATOM     25  C   UNL     1      -1.067   1.781  -0.873  0.00  0.00    -0.016 C 
ATOM     26  C   UNL     1      -0.374   1.308   0.315  0.00  0.00    -0.002 C 
ATOM     27  C   UNL     1      -0.925   1.944   1.608  0.00  0.00    -0.000 C 
ATOM     28  C   UNL     1      -0.330   3.320   1.753  0.00  0.00    -0.000 C 
ATOM     29  C   UNL     1      -1.238   4.418   1.167  0.00  0.00    -0.002 C 
ATOM     30  C   UNL     1      -1.875   4.012  -0.175  0.00  0.00    -0.016 C 
ENDBRANCH  21  24
ENDBRANCH  20  21
ENDBRANCH   1  20
TORSDOF 6
