REMARK  Name = ZINC09089128
REMARK  4 active torsions:
REMARK  status: ('A' for Active; 'I' for Inactive)
REMARK    1  A    between atoms: C_5  and  C_7
REMARK    2  A    between atoms: N_8  and  N_9
REMARK    3  A    between atoms: C_10  and  C_12
REMARK    4  A    between atoms: C_14  and  C_18
REMARK                            x       y       z     vdW  Elec       q    Type
REMARK                         _______ _______ _______ _____ _____    ______ ____
ROOT
ATOM      1  C   UNL     1       3.671  -6.279  -0.072  0.00  0.00    +0.149 A 
ATOM      2  C   UNL     1       4.830  -7.085  -0.083  0.00  0.00    +0.062 A 
ATOM      3  C   UNL     1       4.376  -8.374  -0.088  0.00  0.00    +0.067 A 
ATOM      4  N   UNL     1       3.013  -8.313  -0.080  0.00  0.00    -0.276 N 
ATOM      5  H   UNL     1       2.422  -9.082  -0.082  0.00  0.00    +0.189 HD
ATOM      6  N   UNL     1       2.629  -7.087  -0.066  0.00  0.00    -0.169 NA
ENDROOT
BRANCH   3   7
ATOM      7  C   UNL     1       5.204  -9.601  -0.100  0.00  0.00    +0.001 A 
ATOM      8  C   UNL     1       6.596  -9.506  -0.101  0.00  0.00    +0.011 A 
ATOM      9  C   UNL     1       7.363 -10.653  -0.112  0.00  0.00    +0.022 A 
ATOM     10  C   UNL     1       6.754 -11.896  -0.122  0.00  0.00    +0.059 A 
ATOM     11  C   UNL     1       5.372 -11.997  -0.121  0.00  0.00    +0.060 A 
ATOM     12  C   UNL     1       4.595 -10.856  -0.104  0.00  0.00    +0.031 A 
ATOM     13 CL   UNL     1       4.617 -13.560  -0.135  0.00  0.00    -0.082 Cl
ATOM     14 CL   UNL     1       7.726 -13.335  -0.137  0.00  0.00    -0.082 Cl
ENDBRANCH   3   7
BRANCH   1  16
ATOM     15  N   UNL     1       2.448  -4.159  -0.047  0.00  0.00    -0.202 N 
ATOM     16  C   UNL     1       3.632  -4.802  -0.062  0.00  0.00    +0.283 C 
ATOM     17  O   UNL     1       4.669  -4.167  -0.069  0.00  0.00    -0.267 OA
ATOM     18  H   UNL     1       1.621  -4.666  -0.042  0.00  0.00    +0.178 HD
BRANCH  15  20
ATOM     19  C   UNL     1       1.271  -2.139  -0.023  0.00  0.00    +0.158 C 
ATOM     20  N   UNL     1       2.411  -2.759  -0.038  0.00  0.00    -0.186 NA
BRANCH  19  25
ATOM     21  C   UNL     1      -0.017   1.379   0.010  0.00  0.00    +0.004 A 
ATOM     22  C   UNL     1       1.194   2.059   0.002  0.00  0.00    +0.020 A 
ATOM     23  C   UNL     1       2.376   1.341  -0.013  0.00  0.00    +0.111 A 
ATOM     24  N   UNL     1       2.369   0.024  -0.021  0.00  0.00    -0.254 NA
ATOM     25  C   UNL     1       1.232  -0.665  -0.014  0.00  0.00    +0.083 A 
ATOM     26  C   UNL     1       0.002  -0.004   0.002  0.00  0.00    +0.029 A 
ENDBRANCH  19  25
ENDBRANCH  15  20
ENDBRANCH   1  16
TORSDOF 4
