REMARK  Name = ZINC39964823
REMARK  8 active torsions:
REMARK  status: ('A' for Active; 'I' for Inactive)
REMARK    1  A    between atoms: C_1  and  C_2
REMARK    2  A    between atoms: C_7  and  C_12
REMARK    3  A    between atoms: C_12  and  C_32
REMARK    4  A    between atoms: C_13  and  C_14
REMARK    5  A    between atoms: C_19  and  O_20
REMARK    6  A    between atoms: O_20  and  C_21
REMARK    7  A    between atoms: C_21  and  C_22
REMARK    8  A    between atoms: C_25  and  C_28
REMARK                            x       y       z     vdW  Elec       q    Type
REMARK                         _______ _______ _______ _____ _____    ______ ____
ROOT
ATOM      1  C   UNL     1      -0.127  -6.746   2.943  0.00  0.00    +0.019 A 
ATOM      2  C   UNL     1      -1.280  -6.178   2.391  0.00  0.00    +0.026 A 
ATOM      3  C   UNL     1      -2.517  -6.715   2.681  0.00  0.00    +0.019 A 
ATOM      4  C   UNL     1      -2.622  -7.815   3.518  0.00  0.00    +0.019 A 
ATOM      5  C   UNL     1      -1.491  -8.385   4.070  0.00  0.00    +0.047 A 
ATOM      6  C   UNL     1      -0.239  -7.863   3.785  0.00  0.00    +0.128 A 
ATOM      7 BR   UNL     1      -4.075  -5.948   1.935  0.00  0.00    -0.050 Br
ENDROOT
BRANCH   1   9
ATOM      8  C   UNL     1       1.483  -5.779   1.381  0.00  0.00    +0.072 C 
ATOM      9  C   UNL     1       1.194  -6.180   2.637  0.00  0.00    +0.030 C 
BRANCH   8  16
ATOM     10  C   UNL     1       0.320  -2.914  -4.887  0.00  0.00    +0.044 C 
ATOM     11  C   UNL     1       0.575  -3.952  -3.824  0.00  0.00    -0.048 A 
ATOM     12  C   UNL     1       1.312  -5.100  -4.165  0.00  0.00    +0.005 A 
ATOM     13  C   UNL     1       1.586  -6.078  -3.279  0.00  0.00    +0.027 A 
ATOM     14  C   UNL     1       1.105  -5.957  -1.895  0.00  0.00    +0.060 A 
ATOM     15  N   UNL     1       1.216  -6.725  -0.850  0.00  0.00    -0.359 N 
ATOM     16  C   UNL     1       0.518  -6.062   0.259  0.00  0.00    +0.216 C 
ATOM     17  N   UNL     1      -0.015  -4.805  -0.279  0.00  0.00    -0.359 N 
ATOM     18  C   UNL     1       0.327  -4.741  -1.534  0.00  0.00    +0.061 A 
ATOM     19  C   UNL     1       0.093  -3.739  -2.583  0.00  0.00    +0.030 A 
ATOM     20  H   UNL     1       1.675  -7.579  -0.811  0.00  0.00    +0.162 HD
ATOM     21  H   UNL     1      -0.527  -4.142   0.210  0.00  0.00    +0.162 HD
ENDBRANCH   8  16
BRANCH   8  22
ATOM     22  C   UNL     1       2.706  -5.083   1.115  0.00  0.00    +0.099 C 
ATOM     23  N   UNL     1       3.677  -4.532   0.904  0.00  0.00    -0.191 NA
ENDBRANCH   8  22
ENDBRANCH   1   9
BRANCH   6  24
ATOM     24  O   UNL     1       0.873  -8.426   4.322  0.00  0.00    -0.487 OA
BRANCH  24  25
ATOM     25  C   UNL     1       0.681  -9.560   5.170  0.00  0.00    +0.264 C 
BRANCH  25  26
ATOM     26  C   UNL     1       2.017 -10.046   5.670  0.00  0.00    -0.010 A 
ATOM     27  C   UNL     1       2.722 -10.990   4.944  0.00  0.00    +0.008 A 
ATOM     28  C   UNL     1       3.945 -11.439   5.396  0.00  0.00    +0.015 A 
ATOM     29  C   UNL     1       4.472 -10.938   6.589  0.00  0.00    +0.063 A 
ATOM     30  C   UNL     1       3.755  -9.985   7.316  0.00  0.00    +0.015 A 
ATOM     31  C   UNL     1       2.535  -9.541   6.850  0.00  0.00    +0.008 A 
BRANCH  29  32
ATOM     32  C   UNL     1       5.780 -11.414   7.079  0.00  0.00    +0.387 C 
ATOM     33  O   UNL     1       6.405 -12.249   6.441  0.00  0.00    -0.241 OA
ATOM     34  O   UNL     1       6.239 -10.974   8.124  0.00  0.00    -0.241 OA
ENDBRANCH  29  32
ENDBRANCH  25  26
ENDBRANCH  24  25
ENDBRANCH   6  24
TORSDOF 7
