REMARK  Name = ZINC40815864
REMARK  7 active torsions:
REMARK  status: ('A' for Active; 'I' for Inactive)
REMARK    1  A    between atoms: C_1  and  C_2
REMARK    2  A    between atoms: C_6  and  C_7
REMARK    3  A    between atoms: C_7  and  O_9
REMARK    4  A    between atoms: O_9  and  C_10
REMARK    5  A    between atoms: N_24  and  N_25
REMARK    6  A    between atoms: C_26  and  C_28
REMARK    7  A    between atoms: C_28  and  C_29
REMARK                            x       y       z     vdW  Elec       q    Type
REMARK                         _______ _______ _______ _____ _____    ______ ____
ROOT
ATOM      1  C   UNL     1      -0.303   1.509   0.033  0.00  0.00    +0.048 C 
ATOM      2  C   UNL     1      -0.175   0.007   0.013  0.00  0.00    +0.011 A 
ATOM      3  C   UNL     1      -0.136  -0.818  -1.116  0.00  0.00    +0.042 A 
ATOM      4  C   UNL     1      -0.014  -2.115  -0.676  0.00  0.00    +0.115 A 
ATOM      5  O   UNL     1       0.024  -2.097   0.654  0.00  0.00    -0.452 OA
ATOM      6  C   UNL     1      -0.068  -0.822   1.096  0.00  0.00    +0.215 A 
ATOM      7  C   UNL     1       0.055  -3.296  -1.611  0.00  0.00    +0.075 C 
ATOM      8  C   UNL     1      -0.531  -2.903  -2.970  0.00  0.00    +0.014 C 
ATOM      9  C   UNL     1       0.139  -1.631  -3.500  0.00  0.00    +0.058 C 
ATOM     10  C   UNL     1      -0.201  -0.485  -2.557  0.00  0.00    +0.070 C 
ATOM     11  N   UNL     1      -0.525   0.696  -2.985  0.00  0.00    -0.184 NA
ENDROOT
BRANCH  11  12
ATOM     12  N   UNL     1      -0.570   0.954  -4.361  0.00  0.00    -0.206 N 
ATOM     13  C   UNL     1      -0.907   2.182  -4.805  0.00  0.00    +0.237 C 
ATOM     14  O   UNL     1      -1.170   3.062  -4.013  0.00  0.00    -0.274 OA
ATOM     15  H   UNL     1      -0.360   0.250  -4.994  0.00  0.00    +0.177 HD
BRANCH  13  16
ATOM     16  C   UNL     1      -0.956   2.460  -6.285  0.00  0.00    +0.132 C 
BRANCH  16  17
ATOM     17  C   UNL     1      -1.355   3.895  -6.514  0.00  0.00    -0.039 A 
ATOM     18  C   UNL     1      -2.690   4.230  -6.635  0.00  0.00    +0.004 A 
ATOM     19  C   UNL     1      -3.056   5.546  -6.845  0.00  0.00    +0.000 A 
ATOM     20  C   UNL     1      -2.087   6.528  -6.933  0.00  0.00    +0.000 A 
ATOM     21  C   UNL     1      -0.751   6.193  -6.810  0.00  0.00    +0.000 A 
ATOM     22  C   UNL     1      -0.386   4.877  -6.596  0.00  0.00    +0.004 A 
ENDBRANCH  16  17
ENDBRANCH  13  16
ENDBRANCH  11  12
BRANCH   6  23
ATOM     23  C   UNL     1      -0.058  -0.400   2.500  0.00  0.00    +0.380 C 
ATOM     24  O   UNL     1      -0.150   0.780   2.781  0.00  0.00    -0.241 OA
BRANCH  23  25
ATOM     25  O   UNL     1       0.054  -1.320   3.480  0.00  0.00    -0.418 OA
BRANCH  25  26
ATOM     26  C   UNL     1       0.165  -0.878   4.760  0.00  0.00    +0.158 A 
ATOM     27  C   UNL     1       1.397  -0.714   5.325  0.00  0.00    +0.048 A 
ATOM     28  C   UNL     1       1.531  -0.262   6.635  0.00  0.00    +0.004 A 
ATOM     29  C   UNL     1       0.435   0.029   7.391  0.00  0.00    +0.010 A 
ATOM     30  C   UNL     1      -0.849  -0.127   6.844  0.00  0.00    +0.004 A 
ATOM     31  C   UNL     1      -0.992  -0.581   5.510  0.00  0.00    +0.113 A 
ATOM     32  N   UNL     1      -2.212  -0.726   4.984  0.00  0.00    -0.251 NA
ATOM     33  C   UNL     1      -3.290  -0.452   5.677  0.00  0.00    +0.111 A 
ATOM     34  C   UNL     1      -3.220   0.004   6.991  0.00  0.00    +0.020 A 
ATOM     35  C   UNL     1      -2.005   0.163   7.594  0.00  0.00    +0.011 A 
ENDBRANCH  25  26
ENDBRANCH  23  25
ENDBRANCH   6  23
TORSDOF 6
