REMARK  Name = ZINC11264777
REMARK  5 active torsions:
REMARK  status: ('A' for Active; 'I' for Inactive)
REMARK    1  A    between atoms: C_1  and  C_2
REMARK    2  A    between atoms: C_2  and  N_3
REMARK    3  A    between atoms: N_12  and  C_15
REMARK    4  A    between atoms: C_15  and  C_16
REMARK    5  A    between atoms: C_21  and  C_24
REMARK                            x       y       z     vdW  Elec       q    Type
REMARK                         _______ _______ _______ _____ _____    ______ ____
ROOT
ATOM      1  C   UNL     1      -1.279  10.481   0.065  0.00  0.00    +0.236 C 
ATOM      2  O   UNL     1      -1.190  11.078   1.117  0.00  0.00    -0.274 OA
ATOM      3  N   UNL     1      -1.457   9.145   0.060  0.00  0.00    -0.300 N 
ATOM      4  C   UNL     1      -1.544   8.397   1.322  0.00  0.00    +0.108 C 
ATOM      5  C   UNL     1      -0.518   7.260   1.293  0.00  0.00    +0.027 C 
ATOM      6  C   UNL     1      -0.741   6.409   0.041  0.00  0.00    +0.024 C 
ATOM      7  C   UNL     1      -0.541   7.272  -1.207  0.00  0.00    +0.027 C 
ATOM      8  C   UNL     1      -1.568   8.409  -1.206  0.00  0.00    +0.108 C 
ENDROOT
BRANCH   6   9
ATOM      9  C   UNL     1       0.245   5.269   0.027  0.00  0.00    -0.019 A 
ATOM     10  C   UNL     1       1.583   5.371   0.015  0.00  0.00    +0.087 A 
ATOM     11  N   UNL     1       2.147   4.124   0.003  0.00  0.00    -0.360 N 
ATOM     12  H   UNL     1       3.099   3.943  -0.007  0.00  0.00    +0.165 HD
ATOM     13  C   UNL     1       1.159   3.165   0.007  0.00  0.00    +0.047 A 
ATOM     14  C   UNL     1      -0.075   3.840   0.022  0.00  0.00    +0.003 A 
ATOM     15  C   UNL     1      -1.267   3.112   0.030  0.00  0.00    +0.010 A 
ATOM     16  C   UNL     1      -1.228   1.746   0.017  0.00  0.00    +0.001 A 
ATOM     17  C   UNL     1      -0.013   1.076   0.008  0.00  0.00    +0.002 A 
ATOM     18  C   UNL     1       1.175   1.774   0.000  0.00  0.00    +0.026 A 
ENDBRANCH   6   9
BRANCH   1  19
ATOM     19  C   UNL     1      -1.192  11.234  -1.238  0.00  0.00    +0.222 C 
BRANCH  19  29
ATOM     20  N   UNL     1      -1.967  14.777  -0.581  0.00  0.00    -0.261 N 
ATOM     21  C   UNL     1      -0.762  15.374  -0.450  0.00  0.00    +0.264 A 
ATOM     22  O   UNL     1      -0.677  16.565  -0.224  0.00  0.00    -0.267 OA
ATOM     23  C   UNL     1       0.447  14.542  -0.588  0.00  0.00    +0.063 A 
ATOM     24  C   UNL     1       1.725  15.082  -0.466  0.00  0.00    +0.015 A 
ATOM     25  C   UNL     1       2.825  14.262  -0.604  0.00  0.00    +0.001 A 
ATOM     26  C   UNL     1       2.664  12.909  -0.862  0.00  0.00    +0.002 A 
ATOM     27  C   UNL     1       1.403  12.361  -0.984  0.00  0.00    +0.027 A 
ATOM     28  C   UNL     1       0.285  13.171  -0.849  0.00  0.00    +0.059 A 
ATOM     29  N   UNL     1      -1.000  12.661  -0.965  0.00  0.00    -0.284 N 
ATOM     30  C   UNL     1      -2.070  13.463  -0.836  0.00  0.00    +0.333 A 
ATOM     31  O   UNL     1      -3.179  12.978  -0.949  0.00  0.00    -0.246 OA
BRANCH  20  33
ATOM     32  C   UNL     1      -3.587  16.128  -1.819  0.00  0.00    +0.027 C 
ATOM     33  C   UNL     1      -3.185  15.581  -0.448  0.00  0.00    +0.126 C 
ENDBRANCH  20  33
ENDBRANCH  19  29
ENDBRANCH   1  19
TORSDOF 4
