REMARK  Name = ZINC39666242
REMARK  9 active torsions:
REMARK  status: ('A' for Active; 'I' for Inactive)
REMARK    1  A    between atoms: C_1  and  C_2
REMARK    2  A    between atoms: C_5  and  O_8
REMARK    3  A    between atoms: O_8  and  C_9
REMARK    4  A    between atoms: C_9  and  C_11
REMARK    5  A    between atoms: C_9  and  C_12
REMARK    6  A    between atoms: C_12  and  N_13
REMARK    7  A    between atoms: C_14  and  C_16
REMARK    8  A    between atoms: C_27  and  C_29
REMARK    9  A    between atoms: C_32  and  C_34
REMARK                            x       y       z     vdW  Elec       q    Type
REMARK                         _______ _______ _______ _____ _____    ______ ____
ROOT
ATOM      1  C   UNL     1       4.756  -6.780  -0.060  0.00  0.00    +0.100 C 
ATOM      2  C   UNL     1       5.589  -6.113   1.058  0.00  0.00    +0.121 C 
ATOM      3  N   UNL     1       6.218  -7.243   1.781  0.00  0.00    -0.294 N 
ATOM      4  C   UNL     1       6.595  -8.201   0.714  0.00  0.00    +0.115 C 
ATOM      5  C   UNL     1       5.422  -8.149  -0.285  0.00  0.00    -0.004 C 
ATOM      6  C   UNL     1       5.941  -8.255  -1.715  0.00  0.00    -0.010 C 
ATOM      7  C   UNL     1       6.546  -9.645  -1.932  0.00  0.00    -0.082 C 
ATOM      8  N   UNL     1       5.524 -10.669  -1.684  0.00  0.00    +0.379 N 
ATOM      9  C   UNL     1       5.097 -10.621  -0.280  0.00  0.00    -0.082 C 
ATOM     10  C   UNL     1       4.431  -9.272   0.006  0.00  0.00    -0.010 C 
ATOM     11  C   UNL     1       6.405  -7.371   3.110  0.00  0.00    +0.282 C 
ATOM     12  O   UNL     1       6.943  -8.368   3.555  0.00  0.00    -0.267 OA
ATOM     13  H   UNL     1       4.729 -10.501  -2.282  0.00  0.00    -0.086 HD
ATOM     14  H   UNL     1       5.907 -11.581  -1.886  0.00  0.00    -0.086 HD
ENDROOT
BRANCH  11  15
ATOM     15  C   UNL     1       5.962  -6.310   4.018  0.00  0.00    +0.190 A 
ATOM     16  C   UNL     1       6.096  -6.310   5.389  0.00  0.00    +0.055 A 
ATOM     17  C   UNL     1       5.541  -5.112   5.849  0.00  0.00    +0.050 A 
ATOM     18  C   UNL     1       5.093  -4.431   4.754  0.00  0.00    +0.136 A 
ATOM     19  O   UNL     1       5.357  -5.159   3.656  0.00  0.00    -0.450 OA
BRANCH  18  20
ATOM     20  C   UNL     1       4.432  -3.111   4.772  0.00  0.00    +0.017 A 
ATOM     21  C   UNL     1       4.224  -2.448   5.984  0.00  0.00    +0.014 A 
ATOM     22  C   UNL     1       3.608  -1.215   5.995  0.00  0.00    +0.039 A 
ATOM     23  C   UNL     1       3.194  -0.633   4.807  0.00  0.00    +0.123 A 
ATOM     24  C   UNL     1       3.397  -1.286   3.602  0.00  0.00    +0.039 A 
ATOM     25  C   UNL     1       4.018  -2.517   3.578  0.00  0.00    +0.014 A 
ATOM     26  F   UNL     1       2.590   0.576   4.824  0.00  0.00    -0.205 F 
ENDBRANCH  18  20
ENDBRANCH  11  15
BRANCH   1  28
ATOM     27  N   UNL     1       2.334  -6.970  -0.525  0.00  0.00    -0.312 N 
ATOM     28  C   UNL     1       3.328  -6.959   0.386  0.00  0.00    +0.218 C 
ATOM     29  O   UNL     1       3.072  -7.092   1.564  0.00  0.00    -0.275 OA
ATOM     30  H   UNL     1       2.539  -6.863  -1.467  0.00  0.00    +0.149 HD
BRANCH  27  31
ATOM     31  C   UNL     1       0.946  -7.143  -0.091  0.00  0.00    +0.148 C 
BRANCH  31  32
ATOM     32  C   UNL     1       0.024  -7.118  -1.312  0.00  0.00    +0.187 C 
ATOM     33  C   UNL     1      -1.434  -7.173  -0.852  0.00  0.00    +0.053 C 
BRANCH  32  34
ATOM     34  O   UNL     1       0.304  -8.246  -2.144  0.00  0.00    -0.488 OA
BRANCH  34  39
ATOM     35  C   UNL     1      -0.969  -7.772  -7.610  0.00  0.00    +0.044 C 
ATOM     36  C   UNL     1      -0.629  -7.899  -6.147  0.00  0.00    -0.050 A 
ATOM     37  C   UNL     1      -0.973  -6.888  -5.268  0.00  0.00    +0.007 A 
ATOM     38  C   UNL     1      -0.662  -7.002  -3.927  0.00  0.00    +0.046 A 
ATOM     39  C   UNL     1      -0.004  -8.132  -3.462  0.00  0.00    +0.121 A 
ATOM     40  C   UNL     1       0.340  -9.144  -4.346  0.00  0.00    +0.046 A 
ATOM     41  C   UNL     1       0.022  -9.028  -5.686  0.00  0.00    +0.007 A 
ENDBRANCH  34  39
ENDBRANCH  32  34
ENDBRANCH  31  32
ENDBRANCH  27  31
ENDBRANCH   1  28
TORSDOF 7
