REMARK  Name = ZINC35649228
REMARK  7 active torsions:
REMARK  status: ('A' for Active; 'I' for Inactive)
REMARK    1  A    between atoms: C_1  and  C_2
REMARK    2  A    between atoms: C_2  and  C_3
REMARK    3  A    between atoms: C_3  and  C_19
REMARK    4  A    between atoms: N_6  and  C_10
REMARK    5  A    between atoms: C_10  and  C_11
REMARK    6  A    between atoms: C_15  and  N_18
REMARK    7  A    between atoms: C_16  and  C_17
REMARK                            x       y       z     vdW  Elec       q    Type
REMARK                         _______ _______ _______ _____ _____    ______ ____
ROOT
ATOM      1  C   UNL     1       0.740  -0.517  -1.245  0.00  0.00    +0.110 C 
ATOM      2  C   UNL     1       0.575  -2.014  -1.415  0.00  0.00    +0.247 C 
ATOM      3  O   UNL     1       0.965  -2.884  -0.666  0.00  0.00    -0.273 OA
ATOM      4  N   UNL     1      -0.098  -2.178  -2.571  0.00  0.00    -0.220 N 
ATOM      5  C   UNL     1      -0.377  -1.004  -3.150  0.00  0.00    +0.310 C 
ATOM      6  O   UNL     1      -0.977  -0.895  -4.202  0.00  0.00    -0.252 OA
ATOM      7  N   UNL     1       0.080   0.042  -2.438  0.00  0.00    -0.285 N 
ATOM      8  C   UNL     1       2.221  -0.135  -1.222  0.00  0.00    +0.041 C 
ATOM      9  H   UNL     1      -0.009   0.981  -2.665  0.00  0.00    +0.151 HD
ENDROOT
BRANCH   1  11
ATOM     10  C   UNL     1       0.021   1.490   0.058  0.00  0.00    +0.006 C 
ATOM     11  C   UNL     1       0.042  -0.039   0.030  0.00  0.00    +0.031 C 
ENDBRANCH   1  11
BRANCH   4  12
ATOM     12  C   UNL     1      -0.475  -3.480  -3.127  0.00  0.00    +0.153 C 
BRANCH  12  13
ATOM     13  C   UNL     1      -1.784  -3.922  -2.525  0.00  0.00    -0.025 A 
ATOM     14  C   UNL     1      -2.484  -3.070  -1.691  0.00  0.00    +0.005 A 
ATOM     15  C   UNL     1      -3.685  -3.472  -1.136  0.00  0.00    +0.002 A 
ATOM     16  C   UNL     1      -4.189  -4.728  -1.413  0.00  0.00    +0.023 A 
ATOM     17  C   UNL     1      -3.489  -5.586  -2.251  0.00  0.00    +0.028 A 
ATOM     18  C   UNL     1      -2.285  -5.177  -2.811  0.00  0.00    -0.025 A 
ATOM     19  C   UNL     1      -1.525  -6.103  -3.725  0.00  0.00    +0.046 C 
BRANCH  17  20
ATOM     20  N   UNL     1      -3.996  -6.856  -2.534  0.00  0.00    -0.358 N 
ATOM     21  H   UNL     1      -4.838  -7.140  -2.145  0.00  0.00    +0.142 HD
ATOM     22  H   UNL     1      -3.506  -7.455  -3.119  0.00  0.00    +0.142 HD
ENDBRANCH  17  20
ENDBRANCH  12  13
ENDBRANCH   4  12
TORSDOF 4
