REMARK  Name = ZINC39756066
REMARK  7 active torsions:
REMARK  status: ('A' for Active; 'I' for Inactive)
REMARK    1  A    between atoms: C_1  and  C_2
REMARK    2  A    between atoms: C_7  and  C_12
REMARK    3  A    between atoms: C_12  and  N_13
REMARK    4  A    between atoms: C_14  and  C_16
REMARK    5  A    between atoms: C_16  and  N_17
REMARK    6  A    between atoms: C_19  and  C_26
REMARK    7  A    between atoms: C_26  and  C_28
REMARK                            x       y       z     vdW  Elec       q    Type
REMARK                         _______ _______ _______ _____ _____    ______ ____
ROOT
ATOM      1  N   UNL     1      -3.462  -9.433   0.870  0.00  0.00    -0.337 N 
ATOM      2  C   UNL     1      -3.068 -10.545   1.535  0.00  0.00    +0.099 A 
ATOM      3  C   UNL     1      -4.046 -11.496   1.463  0.00  0.00    +0.048 A 
ATOM      4  C   UNL     1      -5.145 -10.907   0.676  0.00  0.00    +0.011 A 
ATOM      5  C   UNL     1      -4.723  -9.611   0.337  0.00  0.00    +0.050 A 
ATOM      6  C   UNL     1      -5.562  -8.795  -0.413  0.00  0.00    +0.026 A 
ATOM      7  C   UNL     1      -6.796  -9.260  -0.813  0.00  0.00    +0.002 A 
ATOM      8  C   UNL     1      -7.213 -10.539  -0.474  0.00  0.00    +0.001 A 
ATOM      9  C   UNL     1      -6.392 -11.366   0.261  0.00  0.00    +0.011 A 
ENDROOT
BRANCH   3  10
ATOM     10  C   UNL     1      -4.009 -12.840   2.052  0.00  0.00    +0.198 C 
ATOM     11  O   UNL     1      -4.991 -13.558   1.992  0.00  0.00    -0.286 OA
BRANCH  10  12
ATOM     12  C   UNL     1      -2.781 -13.322   2.718  0.00  0.00    +0.057 A 
ATOM     13  C   UNL     1      -2.715 -13.379   4.112  0.00  0.00    +0.014 A 
ATOM     14  C   UNL     1      -1.566 -13.829   4.726  0.00  0.00    +0.001 A 
ATOM     15  C   UNL     1      -0.478 -14.225   3.966  0.00  0.00    +0.003 A 
ATOM     16  C   UNL     1      -0.534 -14.172   2.586  0.00  0.00    +0.039 A 
ATOM     17  C   UNL     1      -1.682 -13.729   1.955  0.00  0.00    +0.134 A 
ATOM     18  F   UNL     1      -1.739 -13.683   0.606  0.00  0.00    -0.205 F 
ENDBRANCH  10  12
ENDBRANCH   3  10
BRANCH   1  19
ATOM     19  C   UNL     1      -2.665  -8.211   0.740  0.00  0.00    +0.217 C 
BRANCH  19  21
ATOM     20  N   UNL     1      -2.452  -6.036   1.899  0.00  0.00    -0.310 N 
ATOM     21  C   UNL     1      -3.058  -7.238   1.822  0.00  0.00    +0.233 C 
ATOM     22  O   UNL     1      -3.919  -7.536   2.622  0.00  0.00    -0.274 OA
ATOM     23  H   UNL     1      -1.763  -5.798   1.259  0.00  0.00    +0.149 HD
BRANCH  20  24
ATOM     24  C   UNL     1      -2.834  -5.090   2.951  0.00  0.00    +0.139 C 
BRANCH  24  30
ATOM     25  C   UNL     1      -0.618   1.802   1.292  0.00  0.00    +0.052 C 
ATOM     26  C   UNL     1      -0.527   0.280   1.164  0.00  0.00    +0.175 C 
ATOM     27  C   UNL     1      -1.938  -0.353   1.141  0.00  0.00    +0.083 C 
ATOM     28  C   UNL     1      -1.717  -1.639   1.913  0.00  0.00    -0.002 A 
ATOM     29  C   UNL     1      -2.469  -2.788   2.033  0.00  0.00    +0.012 A 
ATOM     30  C   UNL     1      -2.014  -3.833   2.817  0.00  0.00    -0.030 A 
ATOM     31  C   UNL     1      -0.804  -3.720   3.478  0.00  0.00    +0.009 A 
ATOM     32  C   UNL     1      -0.051  -2.570   3.362  0.00  0.00    +0.046 A 
ATOM     33  C   UNL     1      -0.504  -1.512   2.578  0.00  0.00    +0.124 A 
ATOM     34  O   UNL     1       0.066  -0.295   2.341  0.00  0.00    -0.488 OA
ENDBRANCH  24  30
ENDBRANCH  20  24
ENDBRANCH  19  21
ENDBRANCH   1  19
TORSDOF 6
