REMARK  Name = ZINC13244850
REMARK  13 active torsions:
REMARK  status: ('A' for Active; 'I' for Inactive)
REMARK    1  A    between atoms: C_1  and  C_2
REMARK    2  A    between atoms: C_2  and  C_4
REMARK    3  A    between atoms: C_2  and  N_14
REMARK    4  A    between atoms: C_7  and  C_10
REMARK    5  A    between atoms: C_10  and  C_11
REMARK    6  A    between atoms: C_11  and  C_12
REMARK    7  A    between atoms: C_11  and  C_13
REMARK    8  A    between atoms: C_15  and  C_17
REMARK    9  A    between atoms: C_17  and  N_18
REMARK   10  A    between atoms: N_21  and  CA_22
REMARK   11  A    between atoms: CA_22  and  C_24
REMARK   12  A    between atoms: CA_22  and  C_32
REMARK   13  A    between atoms: C_24  and  C_25
REMARK                            x       y       z     vdW  Elec       q    Type
REMARK                         _______ _______ _______ _____ _____    ______ ____
ROOT
ATOM      1  N   UNL     1      -0.150  -1.201   4.706  0.00  0.00    -0.291 N 
ATOM      2  C   UNL     1       0.283  -1.623   5.911  0.00  0.00    +0.301 C 
ATOM      3  O   UNL     1       1.446  -1.947   6.059  0.00  0.00    -0.253 OA
ATOM      4  N   UNL     1      -0.572  -1.686   6.950  0.00  0.00    -0.286 N 
ATOM      5  H   UNL     1      -1.077  -0.942   4.588  0.00  0.00    +0.151 HD
ATOM      6  H   UNL     1      -1.500  -1.427   6.832  0.00  0.00    +0.151 HD
ENDROOT
BRANCH   1   7
ATOM      7  C   UNL     1       0.780  -1.133   3.576  0.00  0.00    +0.201 C 
BRANCH   7   9
ATOM      8  N   UNL     1       0.711  -0.489   1.189  0.00  0.00    -0.307 N 
ATOM      9  C   UNL     1       0.051  -0.633   2.355  0.00  0.00    +0.231 C 
ATOM     10  O   UNL     1      -1.129  -0.361   2.423  0.00  0.00    -0.274 OA
ATOM     11  H   UNL     1       1.654  -0.707   1.135  0.00  0.00    +0.149 HD
BRANCH   8  13
ATOM     12  C   UNL     1      -0.019   1.526   0.010  0.00  0.00    +0.033 C 
ATOM     13  C   UNL     1       0.002  -0.004   0.002  0.00  0.00    +0.100 C 
BRANCH  13  14
ATOM     14  C   UNL     1       0.707  -0.490  -1.238  0.00  0.00    -0.027 A 
ATOM     15  C   UNL     1       2.089  -0.511  -1.284  0.00  0.00    +0.006 A 
ATOM     16  C   UNL     1       2.736  -0.957  -2.421  0.00  0.00    +0.004 A 
ATOM     17  C   UNL     1       2.002  -1.382  -3.512  0.00  0.00    -0.047 A 
ATOM     18  C   UNL     1       0.620  -1.362  -3.466  0.00  0.00    +0.004 A 
ATOM     19  C   UNL     1      -0.027  -0.920  -2.327  0.00  0.00    +0.006 A 
BRANCH  17  20
ATOM     20  C   UNL     1       2.707  -1.867  -4.753  0.00  0.00    +0.038 C 
BRANCH  20  21
ATOM     21  C   UNL     1       2.944  -3.375  -4.647  0.00  0.00    -0.013 C 
ATOM     22  C   UNL     1       1.599  -4.104  -4.636  0.00  0.00    +0.007 C 
ATOM     23  C   UNL     1       3.769  -3.846  -5.847  0.00  0.00    +0.007 C 
ENDBRANCH  20  21
ENDBRANCH  17  20
ENDBRANCH  13  14
ENDBRANCH   8  13
ENDBRANCH   7   9
ENDBRANCH   1   7
BRANCH   4  24
ATOM     24  CA  UNL     1      -0.102  -2.145   8.260  0.00  0.00    +0.196 C 
BRANCH  24  25
ATOM     25  C   UNL     1      -0.154  -3.650   8.313  0.00  0.00    +0.376 C 
ATOM     26  O   UNL     1       0.642  -4.263   9.004  0.00  0.00    -0.244 OA
ATOM     27  OXT UNL     1      -0.991  -4.254   7.665  0.00  0.00    -0.244 OA
ENDBRANCH  24  25
BRANCH  24  28
ATOM     28  C   UNL     1      -0.998  -1.565   9.356  0.00  0.00    +0.130 C 
BRANCH  28  29
ATOM     29  C   UNL     1      -0.851  -0.065   9.383  0.00  0.00    +0.218 C 
ATOM     30  O   UNL     1      -0.104   0.486   8.602  0.00  0.00    -0.276 OA
ATOM     31  N   UNL     1      -1.551   0.665  10.274  0.00  0.00    -0.301 N 
ATOM     32  C   UNL     1      -2.483   0.128  11.277  0.00  0.00    +0.108 C 
ATOM     33  C   UNL     1      -3.064   1.330  12.051  0.00  0.00    +0.020 C 
ATOM     34  C   UNL     1      -2.857   2.511  11.066  0.00  0.00    +0.020 C 
ATOM     35  C   UNL     1      -1.503   2.132  10.410  0.00  0.00    +0.108 C 
ENDBRANCH  28  29
ENDBRANCH  24  28
ENDBRANCH   4  24
TORSDOF 10
