REMARK  Name = ZINC20758807
REMARK  5 active torsions:
REMARK  status: ('A' for Active; 'I' for Inactive)
REMARK    1  A    between atoms: C_12  and  C_15
REMARK    2  A    between atoms: C_15  and  C_16
REMARK    3  A    between atoms: C_19  and  O_22
REMARK    4  A    between atoms: N_25  and  C_28
REMARK    5  A    between atoms: C_28  and  C_29
REMARK                            x       y       z     vdW  Elec       q    Type
REMARK                         _______ _______ _______ _____ _____    ______ ____
ROOT
ATOM      1  C   UNL     1      -0.017   1.379   0.010  0.00  0.00    +0.000 A 
ATOM      2  C   UNL     1       1.174   2.084   0.002  0.00  0.00    +0.002 A 
ATOM      3  C   UNL     1       2.379   1.414  -0.014  0.00  0.00    +0.023 A 
ATOM      4  C   UNL     1       2.407   0.021  -0.021  0.00  0.00    +0.039 A 
ATOM      5  C   UNL     1       1.204  -0.677  -0.013  0.00  0.00    +0.003 A 
ATOM      6  C   UNL     1       0.002  -0.004   0.002  0.00  0.00    +0.008 A 
ATOM      7  C   UNL     1       1.573  -2.133  -0.024  0.00  0.00    +0.136 C 
ATOM      8  C   UNL     1       0.990  -2.851  -1.247  0.00  0.00    +0.122 C 
ATOM      9  C   UNL     1       0.619  -4.268  -0.729  0.00  0.00    +0.107 C 
ATOM     10  C   UNL     1       1.050  -4.274   0.753  0.00  0.00    +0.072 C 
ATOM     11  N   UNL     1       1.034  -2.836   1.155  0.00  0.00    -0.295 NA
ATOM     12  C   UNL     1      -0.889  -4.293  -0.827  0.00  0.00    +0.227 C 
ATOM     13  O   UNL     1      -1.597  -5.223  -0.505  0.00  0.00    -0.275 OA
ATOM     14  N   UNL     1      -1.321  -3.127  -1.322  0.00  0.00    -0.239 N 
ATOM     15  C   UNL     1      -0.344  -2.236  -1.607  0.00  0.00    +0.228 C 
ATOM     16  O   UNL     1      -0.502  -1.127  -2.072  0.00  0.00    -0.275 OA
ATOM     17  C   UNL     1       3.077  -2.155  -0.039  0.00  0.00    +0.243 C 
ATOM     18  O   UNL     1       3.787  -3.138  -0.050  0.00  0.00    -0.273 OA
ATOM     19  N   UNL     1       3.482  -0.870  -0.037  0.00  0.00    -0.283 N 
ATOM     20  H   UNL     1       1.617  -2.685   1.964  0.00  0.00    +0.124 HD
ATOM     21  H   UNL     1       4.413  -0.596  -0.046  0.00  0.00    +0.155 HD
ENDROOT
BRANCH  10  22
ATOM     22  C   UNL     1       0.044  -5.060   1.597  0.00  0.00    +0.054 C 
BRANCH  22  23
ATOM     23  C   UNL     1       0.545  -5.157   3.014  0.00  0.00    -0.046 A 
ATOM     24  C   UNL     1       1.348  -6.218   3.391  0.00  0.00    +0.007 A 
ATOM     25  C   UNL     1       1.808  -6.310   4.691  0.00  0.00    +0.045 A 
ATOM     26  C   UNL     1       1.465  -5.337   5.617  0.00  0.00    +0.117 A 
ATOM     27  C   UNL     1       0.659  -4.273   5.237  0.00  0.00    +0.045 A 
ATOM     28  C   UNL     1       0.206  -4.183   3.935  0.00  0.00    +0.007 A 
BRANCH  26  29
ATOM     29  O   UNL     1       1.916  -5.425   6.896  0.00  0.00    -0.507 OA
ATOM     30  H   UNL     1       2.765  -4.986   7.045  0.00  0.00    +0.292 HD
ENDBRANCH  26  29
ENDBRANCH  22  23
ENDBRANCH  10  22
BRANCH  14  31
ATOM     31  C   UNL     1      -2.740  -2.839  -1.546  0.00  0.00    +0.148 C 
BRANCH  31  32
ATOM     32  C   UNL     1      -3.337  -2.207  -0.287  0.00  0.00    +0.136 C 
ATOM     33  C   UNL     1      -4.847  -1.926  -0.490  0.00  0.00    +0.035 C 
ATOM     34  C   UNL     1      -5.349  -1.933   0.980  0.00  0.00    +0.031 C 
ATOM     35  C   UNL     1      -4.440  -2.999   1.630  0.00  0.00    +0.160 C 
ATOM     36  O   UNL     1      -3.269  -3.128   0.813  0.00  0.00    -0.375 OA
ENDBRANCH  31  32
ENDBRANCH  14  31
TORSDOF 5
