REMARK  Name = ZINC01846299
REMARK  12 active torsions:
REMARK  status: ('A' for Active; 'I' for Inactive)
REMARK    1  A    between atoms: C_1  and  C_2
REMARK    2  A    between atoms: C_2  and  C_3
REMARK    3  A    between atoms: C_3  and  C_5
REMARK    4  A    between atoms: C_3  and  C_6
REMARK    5  A    between atoms: C_13  and  C_15
REMARK    6  A    between atoms: C_18  and  N_22
REMARK    7  A    between atoms: C_20  and  O_21
REMARK    8  A    between atoms: N_22  and  C_23
REMARK    9  A    between atoms: C_23  and  N_25
REMARK   10  A    between atoms: C_26  and  C_28
REMARK   11  A    between atoms: C_31  and  C_35
REMARK   12  A    between atoms: C_33  and  C_34
REMARK                            x       y       z     vdW  Elec       q    Type
REMARK                         _______ _______ _______ _____ _____    ______ ____
ROOT
ATOM      1  C   UNL     1      -1.893  -7.811   2.317  0.00  0.00    +0.078 A 
ATOM      2  C   UNL     1      -2.321  -7.642   3.636  0.00  0.00    +0.018 A 
ATOM      3  C   UNL     1      -2.776  -8.724   4.355  0.00  0.00    +0.024 A 
ATOM      4  C   UNL     1      -2.810  -9.988   3.773  0.00  0.00    +0.036 A 
ATOM      5  C   UNL     1      -2.386 -10.165   2.462  0.00  0.00    +0.069 A 
ATOM      6  C   UNL     1      -1.933  -9.083   1.729  0.00  0.00    +0.131 A 
ENDROOT
BRANCH   1  14
ATOM      7  C   UNL     1      -0.042  -2.742  -0.239  0.00  0.00    -0.042 A 
ATOM      8  C   UNL     1       0.180  -3.562  -1.337  0.00  0.00    +0.007 A 
ATOM      9  C   UNL     1      -0.101  -4.911  -1.271  0.00  0.00    +0.049 A 
ATOM     10  C   UNL     1      -0.608  -5.455  -0.101  0.00  0.00    +0.156 A 
ATOM     11  C   UNL     1      -0.834  -4.629   1.012  0.00  0.00    +0.110 A 
ATOM     12  C   UNL     1      -0.540  -3.266   0.932  0.00  0.00    +0.035 A 
ATOM     13  N   UNL     1      -1.326  -5.426   1.996  0.00  0.00    -0.209 NA
ATOM     14  C   UNL     1      -1.405  -6.654   1.543  0.00  0.00    +0.232 A 
ATOM     15  O   UNL     1      -0.975  -6.703   0.268  0.00  0.00    -0.435 OA
BRANCH   7  16
ATOM     16  C   UNL     1       0.271  -1.271  -0.329  0.00  0.00    +0.016 C 
ATOM     17  C   UNL     1      -0.572  -0.637  -1.437  0.00  0.00    +0.012 C 
BRANCH  16  19
ATOM     18  C   UNL     1       2.100   0.407  -0.614  0.00  0.00    +0.004 C 
ATOM     19  C   UNL     1       1.756  -1.083  -0.646  0.00  0.00    +0.004 C 
ENDBRANCH  16  19
ENDBRANCH   7  16
ENDBRANCH   1  14
BRANCH   6  20
ATOM     20  O   UNL     1      -1.524  -9.254   0.446  0.00  0.00    -0.506 OA
ATOM     21  H   UNL     1      -0.584  -9.460   0.357  0.00  0.00    +0.292 HD
ENDBRANCH   6  20
BRANCH   4  22
ATOM     22  N   UNL     1      -3.272 -11.080   4.509  0.00  0.00    -0.296 N 
ATOM     23  H   UNL     1      -2.964 -11.217   5.418  0.00  0.00    +0.154 HD
BRANCH  22  24
ATOM     24  C   UNL     1      -4.145 -11.945   3.956  0.00  0.00    +0.141 C 
ATOM     25  S   UNL     1      -4.612 -11.760   2.319  0.00  0.00    -0.018 S 
BRANCH  24  26
ATOM     26  N   UNL     1      -4.651 -12.955   4.691  0.00  0.00    -0.264 N 
ATOM     27  C   UNL     1      -5.524 -13.819   4.138  0.00  0.00    +0.250 C 
ATOM     28  O   UNL     1      -5.856 -13.688   2.976  0.00  0.00    -0.270 OA
ATOM     29  H   UNL     1      -4.386 -13.059   5.618  0.00  0.00    +0.157 HD
BRANCH  27  30
ATOM     30  C   UNL     1      -6.079 -14.927   4.944  0.00  0.00    +0.040 A 
ATOM     31  C   UNL     1      -5.725 -15.061   6.288  0.00  0.00    +0.013 A 
ATOM     32  C   UNL     1      -6.247 -16.096   7.035  0.00  0.00    +0.004 A 
ATOM     33  C   UNL     1      -7.118 -17.001   6.455  0.00  0.00    -0.050 A 
ATOM     34  C   UNL     1      -7.473 -16.874   5.123  0.00  0.00    +0.007 A 
ATOM     35  C   UNL     1      -6.962 -15.840   4.366  0.00  0.00    -0.038 A 
ATOM     36  C   UNL     1      -7.354 -15.700   2.918  0.00  0.00    +0.044 C 
ATOM     37  C   UNL     1      -7.684 -18.131   7.277  0.00  0.00    +0.044 C 
ENDBRANCH  27  30
ENDBRANCH  24  26
ENDBRANCH  22  24
ENDBRANCH   4  22
TORSDOF 8
