REMARK  Name = ZINC03011320
REMARK  6 active torsions:
REMARK  status: ('A' for Active; 'I' for Inactive)
REMARK    1  A    between atoms: C_1  and  C_2
REMARK    2  A    between atoms: C_5  and  C_8
REMARK    3  A    between atoms: C_11  and  C_32
REMARK    4  A    between atoms: C_16  and  C_18
REMARK    5  A    between atoms: N_20  and  C_21
REMARK    6  A    between atoms: C_26  and  C_27
REMARK                            x       y       z     vdW  Elec       q    Type
REMARK                         _______ _______ _______ _____ _____    ______ ____
ROOT
ATOM      1  C   UNL     1       0.048  -4.323  -0.025  0.00  0.00    +0.104 C 
ATOM      2  C   UNL     1      -1.362  -4.861   0.246  0.00  0.00    +0.063 C 
ATOM      3  C   UNL     1      -1.890  -4.296   1.570  0.00  0.00    +0.215 C 
ATOM      4  N   UNL     1      -0.876  -4.498   2.609  0.00  0.00    -0.238 N 
ATOM      5  C   UNL     1       0.443  -4.736   2.346  0.00  0.00    +0.119 A 
ATOM      6  C   UNL     1       1.087  -4.875   3.521  0.00  0.00    +0.078 A 
ATOM      7  C   UNL     1       0.134  -4.715   4.552  0.00  0.00    +0.149 A 
ATOM      8  N   UNL     1      -1.042  -4.489   3.994  0.00  0.00    -0.164 NA
ATOM      9  N   UNL     1       0.950  -4.803   1.041  0.00  0.00    -0.322 N 
ATOM     10  H   UNL     1       1.837  -5.145   0.848  0.00  0.00    +0.148 HD
ENDROOT
BRANCH   1  15
ATOM     11  C   UNL     1      -0.049   1.454  -0.035  0.00  0.00    +0.044 C 
ATOM     12  C   UNL     1      -0.024  -0.052  -0.032  0.00  0.00    -0.050 A 
ATOM     13  C   UNL     1      -0.019  -0.746  -1.228  0.00  0.00    +0.004 A 
ATOM     14  C   UNL     1       0.004  -2.128  -1.226  0.00  0.00    +0.006 A 
ATOM     15  C   UNL     1       0.024  -2.817  -0.027  0.00  0.00    -0.027 A 
ATOM     16  C   UNL     1       0.020  -2.123   1.169  0.00  0.00    +0.006 A 
ATOM     17  C   UNL     1       0.001  -0.741   1.166  0.00  0.00    +0.004 A 
ENDBRANCH   1  15
BRANCH   7  18
ATOM     18  C   UNL     1       0.405  -4.790   6.002  0.00  0.00    +0.268 C 
ATOM     19  O   UNL     1       1.533  -5.006   6.399  0.00  0.00    -0.268 OA
ATOM     20  N   UNL     1      -0.599  -4.619   6.885  0.00  0.00    -0.280 N 
ATOM     21  H   UNL     1      -1.482  -4.368   6.572  0.00  0.00    +0.155 HD
BRANCH  20  22
ATOM     22  C   UNL     1      -0.368  -4.804   8.252  0.00  0.00    +0.045 A 
ATOM     23  C   UNL     1       0.667  -5.627   8.677  0.00  0.00    +0.024 A 
ATOM     24  C   UNL     1       0.894  -5.806  10.028  0.00  0.00    +0.002 A 
ATOM     25  C   UNL     1       0.091  -5.168  10.956  0.00  0.00    +0.001 A 
ATOM     26  C   UNL     1      -0.940  -4.349  10.536  0.00  0.00    +0.014 A 
ATOM     27  C   UNL     1      -1.168  -4.160   9.186  0.00  0.00    +0.076 A 
BRANCH  27  28
ATOM     28  C   UNL     1      -2.288  -3.262   8.729  0.00  0.00    +0.419 C 
ATOM     29  F   UNL     1      -2.946  -2.732   9.845  0.00  0.00    -0.166 F 
ATOM     30  F   UNL     1      -1.764  -2.218   7.958  0.00  0.00    -0.166 F 
ATOM     31  F   UNL     1      -3.194  -4.000   7.960  0.00  0.00    -0.166 F 
ENDBRANCH  27  28
ENDBRANCH  20  22
ENDBRANCH   7  18
BRANCH   3  32
ATOM     32  C   UNL     1      -3.179  -5.024   1.959  0.00  0.00    +0.412 C 
ATOM     33  F   UNL     1      -2.916  -6.390   2.108  0.00  0.00    -0.168 F 
ATOM     34  F   UNL     1      -3.659  -4.507   3.167  0.00  0.00    -0.168 F 
ATOM     35  F   UNL     1      -4.139  -4.839   0.959  0.00  0.00    -0.168 F 
ENDBRANCH   3  32
TORSDOF 5
