REMARK  Name = ZINC10068504
REMARK  12 active torsions:
REMARK  status: ('A' for Active; 'I' for Inactive)
REMARK    1  A    between atoms: C_1  and  C_2
REMARK    2  A    between atoms: C_4  and  C_33
REMARK    3  A    between atoms: C_5  and  N_9
REMARK    4  A    between atoms: C_6  and  C_8
REMARK    5  A    between atoms: C_10  and  C_12
REMARK    6  A    between atoms: C_12  and  C_14
REMARK    7  A    between atoms: C_12  and  O_15
REMARK    8  A    between atoms: O_15  and  C_16
REMARK    9  A    between atoms: C_16  and  C_18
REMARK   10  A    between atoms: C_21  and  C_23
REMARK   11  A    between atoms: C_23  and  S_24
REMARK   12  A    between atoms: S_24  and  C_27
REMARK                            x       y       z     vdW  Elec       q    Type
REMARK                         _______ _______ _______ _____ _____    ______ ____
ROOT
ATOM      1  C   UNL     1       8.424  -0.280  -0.207  0.00  0.00    +0.376 C 
ATOM      2  O   UNL     1       8.579  -1.272   0.480  0.00  0.00    -0.241 OA
ENDROOT
BRANCH   1   3
ATOM      3  C   UNL     1       9.563   0.593  -0.501  0.00  0.00    +0.212 A 
ATOM      4  C   UNL     1      10.845   0.414  -0.065  0.00  0.00    +0.057 A 
ATOM      5  C   UNL     1      11.599   1.478  -0.583  0.00  0.00    +0.047 A 
ATOM      6  C   UNL     1      10.754   2.254  -1.297  0.00  0.00    +0.127 A 
ATOM      7  O   UNL     1       9.528   1.718  -1.246  0.00  0.00    -0.451 OA
BRANCH   6   8
ATOM      8  C   UNL     1      11.129   3.516  -2.030  0.00  0.00    +0.245 C 
BRANCH   8   9
ATOM      9  S   UNL     1      11.623   3.106  -3.727  0.00  0.00    +0.004 S 
ATOM     10  O   UNL     1      12.841   2.374  -3.719  0.00  0.00    -0.169 OA
ATOM     11  O   UNL     1      10.501   2.637  -4.463  0.00  0.00    -0.169 OA
BRANCH   9  12
ATOM     12  C   UNL     1      12.032   4.652  -4.466  0.00  0.00    +0.089 A 
ATOM     13  C   UNL     1      11.059   5.383  -5.122  0.00  0.00    +0.027 A 
ATOM     14  C   UNL     1      11.379   6.599  -5.697  0.00  0.00    +0.002 A 
ATOM     15  C   UNL     1      12.674   7.078  -5.627  0.00  0.00    +0.000 A 
ATOM     16  C   UNL     1      13.648   6.343  -4.976  0.00  0.00    +0.002 A 
ATOM     17  C   UNL     1      13.327   5.130  -4.396  0.00  0.00    +0.027 A 
ENDBRANCH   9  12
ENDBRANCH   8   9
ENDBRANCH   6   8
ENDBRANCH   1   3
BRANCH   1  18
ATOM     18  O   UNL     1       7.203   0.015  -0.698  0.00  0.00    -0.447 OA
BRANCH  18  19
ATOM     19  C   UNL     1       6.121  -0.894  -0.366  0.00  0.00    +0.259 C 
ATOM     20  C   UNL     1       6.029  -1.988  -1.432  0.00  0.00    +0.062 C 
BRANCH  19  22
ATOM     21  N   UNL     1       3.691  -0.753   0.074  0.00  0.00    -0.282 N 
ATOM     22  C   UNL     1       4.822  -0.132  -0.316  0.00  0.00    +0.258 C 
ATOM     23  O   UNL     1       4.794   1.040  -0.625  0.00  0.00    -0.271 OA
ATOM     24  H   UNL     1       3.725  -1.670   0.389  0.00  0.00    +0.155 HD
BRANCH  21  29
ATOM     25  C   UNL     1      -1.267   1.997  -0.134  0.00  0.00    +0.044 C 
ATOM     26  C   UNL     1       0.049   1.264  -0.075  0.00  0.00    -0.050 A 
ATOM     27  C   UNL     1       1.101   1.792   0.650  0.00  0.00    +0.008 A 
ATOM     28  C   UNL     1       2.309   1.126   0.702  0.00  0.00    -0.029 A 
ATOM     29  C   UNL     1       2.468  -0.076   0.024  0.00  0.00    +0.039 A 
ATOM     30  C   UNL     1       1.409  -0.604  -0.703  0.00  0.00    -0.029 A 
ATOM     31  C   UNL     1       0.203   0.067  -0.750  0.00  0.00    +0.008 A 
ATOM     32  C   UNL     1       1.576  -1.908  -1.440  0.00  0.00    +0.045 C 
ATOM     33  C   UNL     1       3.456   1.703   1.492  0.00  0.00    +0.045 C 
ENDBRANCH  21  29
ENDBRANCH  19  22
ENDBRANCH  18  19
ENDBRANCH   1  18
TORSDOF 8
