REMARK  Name = ZINC38980025
REMARK  7 active torsions:
REMARK  status: ('A' for Active; 'I' for Inactive)
REMARK    1  A    between atoms: C_1  and  C_2
REMARK    2  A    between atoms: C_2  and  O_3
REMARK    3  A    between atoms: O_3  and  C_4
REMARK    4  A    between atoms: C_4  and  C_6
REMARK    5  A    between atoms: N_9  and  C_12
REMARK    6  A    between atoms: N_15  and  S_16
REMARK    7  A    between atoms: S_16  and  C_19
REMARK                            x       y       z     vdW  Elec       q    Type
REMARK                         _______ _______ _______ _____ _____    ______ ____
ROOT
ATOM      1  C   UNL     1       1.875  -4.607  -6.160  0.00  0.00    +0.222 C 
ATOM      2  C   UNL     1       1.891  -6.103  -5.936  0.00  0.00    +0.189 C 
ATOM      3  N   UNL     1       2.568  -6.615  -4.951  0.00  0.00    -0.110 NA
ATOM      4  N   UNL     1       1.197  -6.894  -6.770  0.00  0.00    -0.226 NA
ATOM      5  C   UNL     1       0.504  -6.400  -7.774  0.00  0.00    +0.089 A 
ATOM      6  C   UNL     1      -0.217  -7.266  -8.635  0.00  0.00    +0.030 A 
ATOM      7  C   UNL     1      -0.930  -6.764  -9.667  0.00  0.00    +0.002 A 
ATOM      8  C   UNL     1      -0.999  -5.389  -9.946  0.00  0.00    +0.002 A 
ATOM      9  C   UNL     1      -0.348  -4.477  -9.190  0.00  0.00    +0.027 A 
ATOM     10  C   UNL     1       0.450  -4.942  -8.045  0.00  0.00    +0.063 A 
ATOM     11  N   UNL     1       1.089  -4.092  -7.293  0.00  0.00    -0.361 N 
ATOM     12  H   UNL     1       1.048  -3.140  -7.475  0.00  0.00    +0.162 HD
ENDROOT
BRANCH   1  16
ATOM     13  C   UNL     1      -0.326  -2.255  -3.349  0.00  0.00    +0.100 C 
ATOM     14  C   UNL     1      -0.498  -3.776  -3.357  0.00  0.00    +0.030 C 
ATOM     15  C   UNL     1      -0.044  -4.329  -4.710  0.00  0.00    +0.087 C 
ATOM     16  N   UNL     1       1.364  -3.977  -4.936  0.00  0.00    -0.276 NA
ATOM     17  C   UNL     1       1.546  -2.520  -4.979  0.00  0.00    +0.087 C 
ATOM     18  C   UNL     1       1.139  -1.914  -3.634  0.00  0.00    +0.030 C 
BRANCH  13  19
ATOM     19  C   UNL     1      -0.715  -1.712  -1.998  0.00  0.00    +0.310 C 
ATOM     20  O   UNL     1       0.095  -1.113  -1.331  0.00  0.00    -0.251 OA
BRANCH  19  21
ATOM     21  O   UNL     1      -1.962  -1.893  -1.536  0.00  0.00    -0.465 OA
BRANCH  21  23
ATOM     22  C   UNL     1      -3.719  -1.656   0.106  0.00  0.00    +0.048 C 
ATOM     23  C   UNL     1      -2.263  -1.351  -0.248  0.00  0.00    +0.229 C 
ENDBRANCH  21  23
ENDBRANCH  19  21
ENDBRANCH  13  19
ENDBRANCH   1  16
BRANCH   3  24
ATOM     24  S   UNL     1       2.578  -8.254  -4.717  0.00  0.00    +0.102 S 
ATOM     25  O   UNL     1       1.253  -8.621  -4.359  0.00  0.00    -0.146 OA
ATOM     26  O   UNL     1       3.251  -8.819  -5.834  0.00  0.00    -0.146 OA
BRANCH  24  27
ATOM     27  C   UNL     1       3.587  -8.573  -3.308  0.00  0.00    +0.132 A 
ATOM     28  C   UNL     1       3.027  -9.113  -2.165  0.00  0.00    +0.050 A 
ATOM     29  C   UNL     1       3.819  -9.363  -1.059  0.00  0.00    +0.043 A 
ATOM     30  C   UNL     1       5.171  -9.073  -1.096  0.00  0.00    +0.021 A 
ATOM     31  C   UNL     1       5.731  -8.533  -2.239  0.00  0.00    +0.023 A 
ATOM     32  C   UNL     1       4.940  -8.288  -3.347  0.00  0.00    +0.068 A 
ATOM     33 CL   UNL     1       5.644  -7.617  -4.785  0.00  0.00    -0.082 Cl
ATOM     34 CL   UNL     1       3.116 -10.041   0.376  0.00  0.00    -0.083 Cl
ENDBRANCH  24  27
ENDBRANCH   3  24
TORSDOF 6
