REMARK  Name = ZINC36500843
REMARK  10 active torsions:
REMARK  status: ('A' for Active; 'I' for Inactive)
REMARK    1  A    between atoms: C_3  and  C_9
REMARK    2  A    between atoms: C_4  and  O_8
REMARK    3  A    between atoms: C_5  and  O_7
REMARK    4  A    between atoms: N_11  and  C_12
REMARK    5  A    between atoms: N_11  and  C_18
REMARK    6  A    between atoms: C_12  and  C_13
REMARK    7  A    between atoms: C_18  and  C_20
REMARK    8  A    between atoms: C_18  and  C_29
REMARK    9  A    between atoms: C_23  and  N_26
REMARK   10  A    between atoms: N_31  and  C_32
REMARK                            x       y       z     vdW  Elec       q    Type
REMARK                         _______ _______ _______ _____ _____    ______ ____
ROOT
ATOM      1  C   UNL     1       4.567   4.482   1.093  0.00  0.00    +0.193 C 
ENDROOT
BRANCH   1   2
ATOM      2  C   UNL     1       3.502   4.811   2.107  0.00  0.00    -0.018 A 
ATOM      3  C   UNL     1       2.171   4.817   1.734  0.00  0.00    +0.008 A 
ATOM      4  C   UNL     1       1.194   5.119   2.664  0.00  0.00    +0.033 A 
ATOM      5  C   UNL     1       1.548   5.415   3.967  0.00  0.00    +0.126 A 
ATOM      6  C   UNL     1       2.880   5.409   4.340  0.00  0.00    +0.033 A 
ATOM      7  C   UNL     1       3.856   5.103   3.411  0.00  0.00    +0.008 A 
BRANCH   5   8
ATOM      8  N   UNL     1       0.502   5.739   4.963  0.00  0.00    +0.056 N 
ATOM      9  O   UNL     1      -0.662   5.745   4.637  0.00  0.00    -0.126 OA
ATOM     10  O   UNL     1       0.812   5.998   6.103  0.00  0.00    -0.126 OA
ENDBRANCH   5   8
ENDBRANCH   1   2
BRANCH   1  11
ATOM     11  C   UNL     1       5.910   4.424   1.775  0.00  0.00    +0.238 C 
ATOM     12  O   UNL     1       6.701   5.332   1.635  0.00  0.00    -0.273 OA
ATOM     13  N   UNL     1       6.231   3.362   2.540  0.00  0.00    -0.311 N 
ATOM     14  H   UNL     1       5.598   2.635   2.652  0.00  0.00    +0.149 HD
BRANCH  13  15
ATOM     15  C   UNL     1       7.536   3.305   3.204  0.00  0.00    +0.073 C 
ATOM     16  C   UNL     1       8.575   2.736   2.236  0.00  0.00    +0.022 C 
ATOM     17  C   UNL     1       9.938   2.677   2.928  0.00  0.00    +0.002 C 
ATOM     18  C   UNL     1       9.844   1.777   4.162  0.00  0.00    +0.000 C 
ATOM     19  C   UNL     1       8.805   2.345   5.130  0.00  0.00    +0.002 C 
ATOM     20  C   UNL     1       7.442   2.405   4.437  0.00  0.00    +0.022 C 
ENDBRANCH  13  15
ENDBRANCH   1  11
BRANCH   1  23
ATOM     21  C   UNL     1       4.478   5.173  -1.242  0.00  0.00    +0.252 C 
ATOM     22  O   UNL     1       4.726   5.988  -2.110  0.00  0.00    -0.270 OA
ATOM     23  N   UNL     1       4.591   5.517   0.056  0.00  0.00    -0.275 N 
BRANCH  21  26
ATOM     24  C   UNL     1       2.698   1.869  -1.193  0.00  0.00    +0.005 A 
ATOM     25  C   UNL     1       3.092   3.143  -0.846  0.00  0.00    +0.017 A 
ATOM     26  C   UNL     1       4.054   3.809  -1.610  0.00  0.00    +0.082 A 
ATOM     27  C   UNL     1       4.614   3.175  -2.726  0.00  0.00    +0.171 A 
ATOM     28  C   UNL     1       4.206   1.888  -3.063  0.00  0.00    +0.159 A 
ATOM     29  C   UNL     1       3.251   1.242  -2.297  0.00  0.00    +0.049 A 
BRANCH  28  30
ATOM     30  O   UNL     1       4.744   1.266  -4.146  0.00  0.00    -0.503 OA
ATOM     31  H   UNL     1       5.538   0.750  -3.950  0.00  0.00    +0.292 HD
ENDBRANCH  28  30
BRANCH  27  32
ATOM     32  O   UNL     1       5.549   3.813  -3.475  0.00  0.00    -0.503 OA
ATOM     33  H   UNL     1       6.458   3.662  -3.182  0.00  0.00    +0.292 HD
ENDBRANCH  27  32
ENDBRANCH  21  26
BRANCH  23  34
ATOM     34  C   UNL     1       4.737   6.926   0.431  0.00  0.00    +0.183 C 
BRANCH  34  35
ATOM     35  C   UNL     1       5.756   7.581  -0.466  0.00  0.00    +0.122 A 
ATOM     36  C   UNL     1       5.485   8.293  -1.575  0.00  0.00    +0.046 A 
ATOM     37  C   UNL     1       6.726   8.719  -2.102  0.00  0.00    +0.041 A 
ATOM     38  C   UNL     1       7.681   8.242  -1.283  0.00  0.00    +0.195 A 
ATOM     39  O   UNL     1       7.087   7.558  -0.291  0.00  0.00    -0.466 OA
ENDBRANCH  34  35
ENDBRANCH  23  34
ENDBRANCH   1  23
TORSDOF 10
