REMARK  Name = ZINC00718463
REMARK  7 active torsions:
REMARK  status: ('A' for Active; 'I' for Inactive)
REMARK    1  A    between atoms: C_1  and  O_2
REMARK    2  A    between atoms: O_2  and  C_3
REMARK    3  A    between atoms: C_5  and  C_11
REMARK    4  A    between atoms: C_8  and  O_9
REMARK    5  A    between atoms: C_14  and  C_25
REMARK    6  A    between atoms: C_20  and  N_24
REMARK    7  A    between atoms: C_21  and  C_22
REMARK                            x       y       z     vdW  Elec       q    Type
REMARK                         _______ _______ _______ _____ _____    ______ ____
ROOT
ATOM      1  C   UNL     1      -4.871   0.259   0.038  0.00  0.00    +0.102 C 
ATOM      2  C   UNL     1      -5.696  -0.080  -1.177  0.00  0.00    +0.054 A 
ATOM      3  C   UNL     1      -5.480   0.262  -2.515  0.00  0.00    +0.100 A 
ATOM      4  N   UNL     1      -6.462  -0.254  -3.230  0.00  0.00    -0.171 NA
ATOM      5  N   UNL     1      -7.328  -0.937  -2.362  0.00  0.00    -0.246 N 
ATOM      6  H   UNL     1      -8.134  -1.412  -2.618  0.00  0.00    +0.192 HD
ATOM      7  C   UNL     1      -6.842  -0.818  -1.109  0.00  0.00    +0.223 A 
ATOM      8  O   UNL     1      -7.331  -1.304   0.059  0.00  0.00    -0.423 OA
ATOM      9  C   UNL     1      -6.813  -0.817   1.205  0.00  0.00    +0.200 C 
ATOM     10  C   UNL     1      -5.679  -0.083   1.266  0.00  0.00    +0.098 C 
ENDROOT
BRANCH   1  13
ATOM     11  C   UNL     1      -1.201  -0.638   0.010  0.00  0.00    +0.163 A 
ATOM     12  C   UNL     1      -2.374   0.100   0.019  0.00  0.00    +0.054 A 
ATOM     13  C   UNL     1      -3.597  -0.545   0.028  0.00  0.00    -0.029 A 
ATOM     14  C   UNL     1      -3.653  -1.927   0.027  0.00  0.00    +0.028 A 
ATOM     15  C   UNL     1      -2.486  -2.669   0.018  0.00  0.00    +0.086 A 
ATOM     16  C   UNL     1      -1.257  -2.028   0.003  0.00  0.00    +0.177 A 
ATOM     17 CL   UNL     1      -2.560  -4.404   0.018  0.00  0.00    -0.080 Cl
BRANCH  11  19
ATOM     18  C   UNL     1      -0.017   1.425   0.010  0.00  0.00    +0.277 C 
ATOM     19  O   UNL     1       0.002  -0.004   0.002  0.00  0.00    -0.491 OA
ENDBRANCH  11  19
BRANCH  16  20
ATOM     20  O   UNL     1      -0.108  -2.756  -0.012  0.00  0.00    -0.502 OA
ATOM     21  H   UNL     1       0.233  -2.971   0.867  0.00  0.00    +0.292 HD
ENDBRANCH  16  20
ENDBRANCH   1  13
BRANCH   3  22
ATOM     22  C   UNL     1      -4.346   1.063  -3.040  0.00  0.00    +0.003 A 
ATOM     23  C   UNL     1      -3.817   2.105  -2.282  0.00  0.00    +0.011 A 
ATOM     24  C   UNL     1      -2.762   2.847  -2.774  0.00  0.00    +0.016 A 
ATOM     25  C   UNL     1      -2.231   2.558  -4.019  0.00  0.00    +0.018 A 
ATOM     26  C   UNL     1      -2.754   1.525  -4.777  0.00  0.00    +0.016 A 
ATOM     27  C   UNL     1      -3.804   0.773  -4.291  0.00  0.00    +0.011 A 
ATOM     28 BR   UNL     1      -0.787   3.579  -4.688  0.00  0.00    -0.050 Br
ENDBRANCH   3  22
BRANCH   9  29
ATOM     29  N   UNL     1      -7.476  -1.080   2.377  0.00  0.00    -0.328 N 
ATOM     30  H   UNL     1      -8.293  -1.603   2.366  0.00  0.00    +0.145 HD
ATOM     31  H   UNL     1      -7.128  -0.743   3.218  0.00  0.00    +0.145 HD
ENDBRANCH   9  29
BRANCH  10  32
ATOM     32  C   UNL     1      -5.227   0.387   2.541  0.00  0.00    +0.101 C 
ATOM     33  N   UNL     1      -4.868   0.759   3.553  0.00  0.00    -0.191 NA
ENDBRANCH  10  32
TORSDOF 6
