REMARK  Name = ZINC58918215
REMARK  8 active torsions:
REMARK  status: ('A' for Active; 'I' for Inactive)
REMARK    1  A    between atoms: C_1  and  C_2
REMARK    2  A    between atoms: C_7  and  N_8
REMARK    3  A    between atoms: N_8  and  C_9
REMARK    4  A    between atoms: N_8  and  S_25
REMARK    5  A    between atoms: C_9  and  C_10
REMARK    6  A    between atoms: N_12  and  N_13
REMARK    7  A    between atoms: C_14  and  C_15
REMARK    8  A    between atoms: S_25  and  C_28
REMARK                            x       y       z     vdW  Elec       q    Type
REMARK                         _______ _______ _______ _____ _____    ______ ____
ROOT
ATOM      1  N   UNL     1      -0.192   0.150   2.597  0.00  0.00    -0.194 N 
ENDROOT
BRANCH   1   8
ATOM      2  C   UNL     1       0.274  -2.655   2.662  0.00  0.00    +0.046 C 
ATOM      3  C   UNL     1       0.367  -1.861   1.385  0.00  0.00    -0.028 A 
ATOM      4  C   UNL     1       0.680  -2.494   0.198  0.00  0.00    +0.006 A 
ATOM      5  C   UNL     1       0.766  -1.767  -0.974  0.00  0.00    +0.020 A 
ATOM      6  C   UNL     1       0.538  -0.401  -0.963  0.00  0.00    +0.043 A 
ATOM      7  C   UNL     1       0.224   0.238   0.221  0.00  0.00    +0.045 A 
ATOM      8  C   UNL     1       0.132  -0.492   1.399  0.00  0.00    +0.056 A 
ATOM      9 CL   UNL     1       0.646   0.508  -2.438  0.00  0.00    -0.083 Cl
ENDBRANCH   1   8
BRANCH   1  10
ATOM     10  S   UNL     1      -1.766   0.207   3.107  0.00  0.00    +0.075 S 
ATOM     11  O   UNL     1      -1.843   1.249   4.070  0.00  0.00    -0.150 OA
ATOM     12  O   UNL     1      -2.573   0.189   1.938  0.00  0.00    -0.150 OA
BRANCH  10  13
ATOM     13  C   UNL     1      -2.090  -1.297   3.966  0.00  0.00    +0.109 A 
ATOM     14  C   UNL     1      -2.665  -2.363   3.300  0.00  0.00    +0.029 A 
ATOM     15  C   UNL     1      -2.919  -3.543   3.973  0.00  0.00    +0.002 A 
ATOM     16  C   UNL     1      -2.598  -3.657   5.313  0.00  0.00    +0.000 A 
ATOM     17  C   UNL     1      -2.022  -2.591   5.979  0.00  0.00    +0.002 A 
ATOM     18  C   UNL     1      -1.764  -1.413   5.304  0.00  0.00    +0.029 A 
ENDBRANCH  10  13
ENDBRANCH   1  10
BRANCH   1  19
ATOM     19  C   UNL     1       0.862   0.773   3.401  0.00  0.00    +0.228 C 
BRANCH  19  20
ATOM     20  C   UNL     1       1.137   2.161   2.882  0.00  0.00    +0.251 C 
ATOM     21  O   UNL     1       0.450   2.624   1.995  0.00  0.00    -0.272 OA
ATOM     22  N   UNL     1       2.145   2.889   3.403  0.00  0.00    -0.206 N 
ATOM     23  H   UNL     1       2.694   2.519   4.112  0.00  0.00    +0.177 HD
BRANCH  22  24
ATOM     24  N   UNL     1       2.400   4.179   2.920  0.00  0.00    -0.188 NA
ATOM     25  C   UNL     1       3.370   4.879   3.421  0.00  0.00    +0.142 C 
BRANCH  25  26
ATOM     26  C   UNL     1       3.639   6.237   2.913  0.00  0.00    +0.040 A 
ATOM     27  C   UNL     1       4.687   6.991   3.447  0.00  0.00    +0.013 A 
ATOM     28  C   UNL     1       4.934   8.260   2.969  0.00  0.00    +0.004 A 
ATOM     29  C   UNL     1       4.148   8.793   1.962  0.00  0.00    +0.049 A 
ATOM     30  C   UNL     1       3.103   8.056   1.423  0.00  0.00    +0.163 A 
ATOM     31  C   UNL     1       2.848   6.774   1.889  0.00  0.00    +0.171 A 
ATOM     32  O   UNL     1       1.837   6.029   1.366  0.00  0.00    -0.484 OA
ATOM     33  C   UNL     1       0.842   6.732   0.613  0.00  0.00    +0.270 C 
ATOM     34  C   UNL     1       1.557   7.692  -0.348  0.00  0.00    +0.270 C 
ATOM     35  O   UNL     1       2.341   8.602   0.435  0.00  0.00    -0.485 OA
ENDBRANCH  25  26
ENDBRANCH  22  24
ENDBRANCH  19  20
ENDBRANCH   1  19
TORSDOF 7
