REMARK  Name = ZINC38799091
REMARK  9 active torsions:
REMARK  status: ('A' for Active; 'I' for Inactive)
REMARK    1  A    between atoms: C_1  and  C_2
REMARK    2  A    between atoms: C_2  and  C_3
REMARK    3  A    between atoms: C_3  and  C_4
REMARK    4  A    between atoms: C_3  and  C_6
REMARK    5  A    between atoms: C_4  and  C_5
REMARK    6  A    between atoms: C_6  and  C_7
REMARK    7  A    between atoms: C_10  and  C_34
REMARK    8  A    between atoms: C_13  and  C_15
REMARK    9  A    between atoms: C_17  and  C_28
REMARK                            x       y       z     vdW  Elec       q    Type
REMARK                         _______ _______ _______ _____ _____    ______ ____
ROOT
ATOM      1  C   UNL     1       2.608  -7.113   1.832  0.00  0.00    +0.152 C 
ATOM      2  C   UNL     1       2.051  -7.031   0.424  0.00  0.00    -0.014 C 
ATOM      3  C   UNL     1       0.976  -7.870   0.117  0.00  0.00    +0.002 A 
ATOM      4  C   UNL     1       0.398  -7.859  -1.170  0.00  0.00    +0.030 A 
ATOM      5  C   UNL     1      -0.647  -8.687  -1.443  0.00  0.00    +0.042 A 
ATOM      6  C   UNL     1      -1.161  -9.548  -0.474  0.00  0.00    +0.022 A 
ATOM      7  C   UNL     1      -0.644  -9.604   0.784  0.00  0.00    +0.025 A 
ATOM      8  C   UNL     1       0.437  -8.777   1.137  0.00  0.00    +0.041 A 
ATOM      9  N   UNL     1       0.943  -8.833   2.373  0.00  0.00    -0.284 N 
ATOM     10  C   UNL     1       1.954  -8.092   2.780  0.00  0.00    +0.230 C 
ATOM     11  O   UNL     1       2.362  -8.197   3.922  0.00  0.00    -0.274 OA
ATOM     12 CL   UNL     1      -1.356  -8.669  -3.027  0.00  0.00    -0.084 Cl
ATOM     13  H   UNL     1       0.545  -9.453   3.004  0.00  0.00    +0.155 HD
ENDROOT
BRANCH   1  19
ATOM     14  C   UNL     1       1.397  -2.404   2.363  0.00  0.00    +0.235 C 
ATOM     15  O   UNL     1       1.595  -1.423   3.049  0.00  0.00    -0.274 OA
ATOM     16  N   UNL     1       1.961  -3.583   2.693  0.00  0.00    -0.186 N 
ATOM     17  C   UNL     1       2.736  -3.850   3.916  0.00  0.00    +0.147 C 
ATOM     18  C   UNL     1       3.128  -5.335   3.768  0.00  0.00    +0.082 C 
ATOM     19  C   UNL     1       2.514  -5.740   2.447  0.00  0.00    +0.055 C 
ATOM     20  N   UNL     1       1.902  -4.751   1.937  0.00  0.00    -0.185 NA
BRANCH  17  21
ATOM     21  C   UNL     1       1.871  -3.638   5.160  0.00  0.00    +0.199 C 
ATOM     22  C   UNL     1       1.636  -2.130   5.421  0.00  0.00    +0.076 C 
ATOM     23  C   UNL     1       1.703  -2.067   6.938  0.00  0.00    +0.014 C 
ATOM     24  C   UNL     1       2.243  -3.192   7.354  0.00  0.00    +0.183 C 
ATOM     25  O   UNL     1       2.576  -4.037   6.352  0.00  0.00    -0.494 OA
ENDBRANCH  17  21
BRANCH  14  26
ATOM     26  C   UNL     1       0.520  -2.304   1.141  0.00  0.00    +0.101 C 
BRANCH  26  27
ATOM     27  C   UNL     1      -0.054  -0.889   1.039  0.00  0.00    -0.003 C 
BRANCH  27  29
ATOM     28  C   UNL     1       0.526   1.528   0.782  0.00  0.00    +0.004 C 
ATOM     29  C   UNL     1       1.079   0.101   0.760  0.00  0.00    +0.000 C 
ENDBRANCH  27  29
BRANCH  27  30
ATOM     30  C   UNL     1      -1.073  -0.833  -0.101  0.00  0.00    +0.000 C 
ATOM     31  C   UNL     1      -2.280  -1.704   0.251  0.00  0.00    +0.004 C 
ENDBRANCH  27  30
ENDBRANCH  26  27
ENDBRANCH  14  26
ENDBRANCH   1  19
BRANCH   2  32
ATOM     32  C   UNL     1       2.596  -6.143  -0.538  0.00  0.00    -0.020 A 
ATOM     33  C   UNL     1       1.818  -5.091  -1.049  0.00  0.00    +0.008 A 
ATOM     34  C   UNL     1       2.357  -4.234  -1.982  0.00  0.00    +0.001 A 
ATOM     35  C   UNL     1       3.660  -4.407  -2.418  0.00  0.00    +0.000 A 
ATOM     36  C   UNL     1       4.436  -5.441  -1.920  0.00  0.00    +0.001 A 
ATOM     37  C   UNL     1       3.918  -6.306  -0.982  0.00  0.00    +0.008 A 
ENDBRANCH   2  32
TORSDOF 7
