REMARK  Name = ZINC35967026
REMARK  7 active torsions:
REMARK  status: ('A' for Active; 'I' for Inactive)
REMARK    1  A    between atoms: C_1  and  C_2
REMARK    2  A    between atoms: C_5  and  C_8
REMARK    3  A    between atoms: N_13  and  C_16
REMARK    4  A    between atoms: C_16  and  C_18
REMARK    5  A    between atoms: C_16  and  C_25
REMARK    6  A    between atoms: C_18  and  C_19
REMARK    7  A    between atoms: N_32  and  C_36
REMARK                            x       y       z     vdW  Elec       q    Type
REMARK                         _______ _______ _______ _____ _____    ______ ____
ROOT
ATOM      1  C   UNL     1       0.019  -4.993   0.622  0.00  0.00    +0.142 C 
ATOM      2  C   UNL     1      -1.468  -5.282   0.592  0.00  0.00    +0.058 C 
ATOM      3  C   UNL     1      -1.974  -6.065   1.566  0.00  0.00    +0.042 C 
ATOM      4  C   UNL     1      -3.457  -6.182   1.291  0.00  0.00    +0.160 C 
ATOM      5  N   UNL     1      -3.680  -5.382   0.077  0.00  0.00    -0.280 N 
ATOM      6  C   UNL     1      -2.489  -4.877  -0.292  0.00  0.00    +0.247 C 
ATOM      7  O   UNL     1      -2.315  -4.164  -1.264  0.00  0.00    -0.270 OA
ATOM      8  N   UNL     1      -1.175  -6.582   2.546  0.00  0.00    -0.260 N 
ATOM      9  C   UNL     1       0.143  -6.360   2.620  0.00  0.00    +0.307 C 
ATOM     10  O   UNL     1       0.774  -6.864   3.529  0.00  0.00    -0.252 OA
ATOM     11  N   UNL     1       0.793  -5.596   1.720  0.00  0.00    -0.288 N 
ATOM     12  C   UNL     1      -1.795  -7.425   3.571  0.00  0.00    +0.139 C 
ATOM     13  H   UNL     1       1.749  -5.448   1.794  0.00  0.00    +0.151 HD
ENDROOT
BRANCH   1  18
ATOM     14  C   UNL     1       0.713   0.738   0.890  0.00  0.00    +0.044 C 
ATOM     15  C   UNL     1       0.532  -0.757   0.820  0.00  0.00    -0.050 A 
ATOM     16  C   UNL     1       0.596  -1.404  -0.400  0.00  0.00    +0.004 A 
ATOM     17  C   UNL     1       0.430  -2.775  -0.464  0.00  0.00    +0.006 A 
ATOM     18  C   UNL     1       0.201  -3.498   0.692  0.00  0.00    -0.023 A 
ATOM     19  C   UNL     1       0.138  -2.851   1.912  0.00  0.00    +0.006 A 
ATOM     20  C   UNL     1       0.308  -1.480   1.976  0.00  0.00    +0.004 A 
ENDBRANCH   1  18
BRANCH   5  21
ATOM     21  C   UNL     1      -4.961  -5.174  -0.603  0.00  0.00    +0.167 C 
BRANCH  21  22
ATOM     22  C   UNL     1      -4.869  -5.693  -2.015  0.00  0.00    +0.236 C 
ATOM     23  O   UNL     1      -3.789  -5.783  -2.559  0.00  0.00    -0.274 OA
ATOM     24  N   UNL     1      -5.988  -6.056  -2.674  0.00  0.00    -0.300 N 
ATOM     25  C   UNL     1      -7.363  -5.896  -2.179  0.00  0.00    +0.108 C 
ATOM     26  C   UNL     1      -8.307  -6.473  -3.255  0.00  0.00    +0.020 C 
ATOM     27  C   UNL     1      -7.384  -7.438  -4.045  0.00  0.00    +0.020 C 
ATOM     28  C   UNL     1      -6.036  -6.672  -4.012  0.00  0.00    +0.108 C 
ENDBRANCH  21  22
BRANCH  21  29
ATOM     29  C   UNL     1      -5.288  -3.680  -0.629  0.00  0.00    +0.067 C 
BRANCH  29  30
ATOM     30  C   UNL     1      -5.514  -3.191   0.779  0.00  0.00    -0.045 A 
ATOM     31  C   UNL     1      -6.782  -3.229   1.328  0.00  0.00    +0.004 A 
ATOM     32  C   UNL     1      -6.990  -2.781   2.619  0.00  0.00    +0.000 A 
ATOM     33  C   UNL     1      -5.929  -2.295   3.361  0.00  0.00    +0.000 A 
ATOM     34  C   UNL     1      -4.661  -2.258   2.812  0.00  0.00    +0.000 A 
ATOM     35  C   UNL     1      -4.453  -2.710   1.522  0.00  0.00    +0.004 A 
ENDBRANCH  29  30
ENDBRANCH  21  29
ENDBRANCH   5  21
TORSDOF 5
