REMARK  Name = ZINC19655268
REMARK  8 active torsions:
REMARK  status: ('A' for Active; 'I' for Inactive)
REMARK    1  A    between atoms: C_1  and  C_2
REMARK    2  A    between atoms: N_5  and  C_8
REMARK    3  A    between atoms: C_8  and  C_9
REMARK    4  A    between atoms: C_9  and  N_15
REMARK    5  A    between atoms: C_16  and  C_18
REMARK    6  A    between atoms: C_18  and  N_19
REMARK    7  A    between atoms: N_19  and  C_20
REMARK    8  A    between atoms: N_19  and  C_21
REMARK                            x       y       z     vdW  Elec       q    Type
REMARK                         _______ _______ _______ _____ _____    ______ ____
ROOT
ATOM      1  C   UNL     1      -2.186  -4.362   1.822  0.00  0.00    +0.020 C 
ATOM      2  C   UNL     1      -2.606  -3.586   3.072  0.00  0.00    +0.024 C 
ATOM      3  C   UNL     1      -4.032  -3.978   3.462  0.00  0.00    +0.002 C 
ATOM      4  C   UNL     1      -4.087  -5.479   3.751  0.00  0.00    +0.000 C 
ATOM      5  C   UNL     1      -3.668  -6.256   2.501  0.00  0.00    +0.002 C 
ATOM      6  C   UNL     1      -2.241  -5.863   2.112  0.00  0.00    +0.024 C 
ENDROOT
BRANCH   1   7
ATOM      7  N   UNL     1      -3.098  -4.043   0.721  0.00  0.00    -0.313 N 
ATOM      8  C   UNL     1      -2.980  -4.684  -0.459  0.00  0.00    +0.197 C 
ATOM      9  O   UNL     1      -2.063  -5.458  -0.639  0.00  0.00    -0.278 OA
ATOM     10  H   UNL     1      -3.879  -3.281   0.857  0.00  0.00    +0.149 HD
BRANCH   8  11
ATOM     11  C   UNL     1      -3.987  -4.441  -1.553  0.00  0.00    +0.019 C 
BRANCH  11  12
ATOM     12  N   UNL     1      -3.640  -5.252  -2.728  0.00  0.00    +0.387 N 
ATOM     13  C   UNL     1      -3.779  -6.685  -2.438  0.00  0.00    -0.095 C 
ATOM     14  H   UNL     1      -2.585  -5.057  -2.973  0.00  0.00    -0.081 HD
BRANCH  12  15
ATOM     15  C   UNL     1      -4.451  -4.869  -3.890  0.00  0.00    -0.046 C 
ATOM     16  C   UNL     1      -3.980  -5.645  -5.131  0.00  0.00    +0.009 C 
ATOM     17  C   UNL     1      -5.016  -5.497  -6.272  0.00  0.00    +0.164 C 
ATOM     18  S   UNL     1      -6.590  -5.241  -5.356  0.00  0.00    -0.033 S 
ATOM     19  O   UNL     1      -7.102  -3.952  -5.668  0.00  0.00    -0.174 OA
ATOM     20  O   UNL     1      -7.418  -6.383  -5.532  0.00  0.00    -0.174 OA
ATOM     21  C   UNL     1      -5.942  -5.228  -3.632  0.00  0.00    +0.151 C 
ENDBRANCH  12  15
ENDBRANCH  11  12
ENDBRANCH   8  11
ENDBRANCH   1   7
BRANCH   1  22
ATOM     22  C   UNL     1      -0.760  -3.969   1.433  0.00  0.00    -0.053 C 
BRANCH  22  27
ATOM     23  C   UNL     1       0.075   1.529   0.115  0.00  0.00    +0.007 C 
ATOM     24  C   UNL     1       0.089  -0.000   0.089  0.00  0.00    -0.018 C 
ATOM     25  C   UNL     1      -1.348  -0.524   0.032  0.00  0.00    -0.016 C 
ATOM     26  C   UNL     1      -1.330  -2.054   0.067  0.00  0.00    -0.078 C 
ATOM     27  N   UNL     1      -0.673  -2.509   1.298  0.00  0.00    +0.381 N 
ATOM     28  C   UNL     1       0.723  -2.058   1.353  0.00  0.00    -0.078 C 
ATOM     29  C   UNL     1       0.766  -0.528   1.357  0.00  0.00    -0.016 C 
ATOM     30  H   UNL     1      -1.205  -2.058   2.149  0.00  0.00    -0.082 HD
ENDBRANCH  22  27
ENDBRANCH   1  22
TORSDOF 6
