REMARK  Name = ZINC36378890
REMARK  7 active torsions:
REMARK  status: ('A' for Active; 'I' for Inactive)
REMARK    1  A    between atoms: C_1  and  C_2
REMARK    2  A    between atoms: C_2  and  C_3
REMARK    3  A    between atoms: C_2  and  C_4
REMARK    4  A    between atoms: C_4  and  C_6
REMARK    5  A    between atoms: C_4  and  N_39
REMARK    6  A    between atoms: C_18  and  C_32
REMARK    7  A    between atoms: C_32  and  C_33
REMARK                            x       y       z     vdW  Elec       q    Type
REMARK                         _______ _______ _______ _____ _____    ______ ____
ROOT
ATOM      1  C   UNL     1      -2.155  -1.630  -1.654  0.00  0.00    +0.237 C 
ATOM      2  O   UNL     1      -3.271  -1.206  -1.871  0.00  0.00    -0.274 OA
ATOM      3  N   UNL     1      -1.313  -1.862  -2.679  0.00  0.00    -0.285 N 
ATOM      4  C   UNL     1       0.016  -2.477  -2.589  0.00  0.00    +0.112 C 
ATOM      5  C   UNL     1       0.415  -2.999  -3.972  0.00  0.00    +0.066 C 
ATOM      6  C   UNL     1      -0.703  -2.534  -4.915  0.00  0.00    +0.204 C 
ATOM      7  C   UNL     1      -1.555  -1.541  -4.107  0.00  0.00    +0.202 C 
ATOM      8  C   UNL     1      -1.145  -0.131  -4.348  0.00  0.00    +0.238 C 
ATOM      9  O   UNL     1       0.081   0.029  -4.441  0.00  0.00    -0.274 OA
ATOM     10  N   UNL     1      -1.839   0.991  -4.474  0.00  0.00    -0.302 N 
ATOM     11  C   UNL     1      -3.266   1.285  -4.552  0.00  0.00    +0.163 C 
ATOM     12  C   UNL     1      -3.572   1.765  -5.941  0.00  0.00    +0.237 C 
ATOM     13  O   UNL     1      -2.661   2.350  -6.506  0.00  0.00    -0.273 OA
ATOM     14  N   UNL     1      -4.726   1.661  -6.610  0.00  0.00    -0.290 N 
ATOM     15  C   UNL     1      -4.700   1.897  -7.993  0.00  0.00    +0.075 C 
ATOM     16  C   UNL     1      -3.759   1.371  -8.759  0.00  0.00    +0.023 C 
ATOM     17  C   UNL     1      -2.787   0.443  -8.167  0.00  0.00    -0.024 A 
ATOM     18  C   UNL     1      -1.410   0.638  -8.322  0.00  0.00    +0.011 A 
ATOM     19  C   UNL     1      -0.526  -0.199  -7.668  0.00  0.00    +0.046 A 
ATOM     20  C   UNL     1      -0.996  -1.231  -6.871  0.00  0.00    +0.121 A 
ATOM     21  C   UNL     1      -2.361  -1.481  -6.788  0.00  0.00    +0.046 A 
ATOM     22  C   UNL     1      -3.244  -0.641  -7.420  0.00  0.00    +0.011 A 
ATOM     23  O   UNL     1      -0.157  -1.973  -6.103  0.00  0.00    -0.486 OA
ATOM     24  H   UNL     1      -1.253   1.809  -4.531  0.00  0.00    +0.150 HD
ATOM     25  H   UNL     1      -5.565   1.435  -6.162  0.00  0.00    +0.154 HD
ENDROOT
BRANCH   1  26
ATOM     26  C   UNL     1      -1.713  -1.898  -0.239  0.00  0.00    +0.161 C 
BRANCH  26  27
ATOM     27  N   UNL     1      -2.883  -1.926   0.642  0.00  0.00    -0.306 N 
ATOM     28  C   UNL     1      -2.981  -2.866   1.602  0.00  0.00    +0.326 C 
ATOM     29  O   UNL     1      -2.101  -3.689   1.737  0.00  0.00    -0.280 OA
ATOM     30  H   UNL     1      -3.587  -1.268   0.534  0.00  0.00    +0.149 HD
ENDBRANCH  26  27
BRANCH  26  32
ATOM     31  C   UNL     1      -1.513   0.540   0.271  0.00  0.00    +0.009 C 
ATOM     32  C   UNL     1      -0.759  -0.790   0.215  0.00  0.00    +0.012 C 
ATOM     33  C   UNL     1      -0.212  -1.126   1.604  0.00  0.00    +0.009 C 
ENDBRANCH  26  32
ENDBRANCH   1  26
BRANCH  11  34
ATOM     34  C   UNL     1      -4.181   0.140  -4.160  0.00  0.00    +0.067 C 
BRANCH  34  35
ATOM     35  C   UNL     1      -5.607   0.627  -4.119  0.00  0.00    -0.045 A 
ATOM     36  C   UNL     1      -5.998   1.541  -3.159  0.00  0.00    +0.004 A 
ATOM     37  C   UNL     1      -7.305   1.988  -3.122  0.00  0.00    +0.000 A 
ATOM     38  C   UNL     1      -8.222   1.521  -4.046  0.00  0.00    +0.000 A 
ATOM     39  C   UNL     1      -7.830   0.608  -5.006  0.00  0.00    +0.000 A 
ATOM     40  C   UNL     1      -6.522   0.164  -5.046  0.00  0.00    +0.004 A 
ENDBRANCH  34  35
ENDBRANCH  11  34
TORSDOF 5
