REMARK  Name = ZINC35993628
REMARK  8 active torsions:
REMARK  status: ('A' for Active; 'I' for Inactive)
REMARK    1  A    between atoms: C_1  and  C_2
REMARK    2  A    between atoms: C_3  and  C_16
REMARK    3  A    between atoms: C_8  and  C_10
REMARK    4  A    between atoms: C_16  and  C_17
REMARK    5  A    between atoms: C_17  and  C_19
REMARK    6  A    between atoms: C_17  and  C_20
REMARK    7  A    between atoms: N_22  and  N_23
REMARK    8  A    between atoms: C_24  and  C_25
REMARK                            x       y       z     vdW  Elec       q    Type
REMARK                         _______ _______ _______ _____ _____    ______ ____
ROOT
ATOM      1  C   UNL     1      -1.996   0.911  -0.121  0.00  0.00    +0.055 C 
ENDROOT
BRANCH   1   4
ATOM      2  C   UNL     1      -0.244   3.100   0.542  0.00  0.00    +0.066 C 
ATOM      3  C   UNL     1       0.331   1.756   0.178  0.00  0.00    +0.049 A 
ATOM      4  C   UNL     1      -0.501   0.722  -0.136  0.00  0.00    +0.039 A 
ATOM      5  C   UNL     1       0.060  -0.525  -0.473  0.00  0.00    +0.255 A 
ATOM      6  O   UNL     1      -0.654  -1.472  -0.760  0.00  0.00    -0.268 OA
ATOM      7  N   UNL     1       1.404  -0.652  -0.474  0.00  0.00    -0.307 N 
ATOM      8  H   UNL     1       1.813  -1.501  -0.704  0.00  0.00    +0.170 HD
ATOM      9  C   UNL     1       2.184   0.418  -0.152  0.00  0.00    +0.141 A 
ATOM     10  N   UNL     1       1.651   1.581   0.158  0.00  0.00    -0.234 NA
BRANCH   9  11
ATOM     11  C   UNL     1       3.654   0.272  -0.154  0.00  0.00    +0.017 A 
ATOM     12  C   UNL     1       4.237  -0.952  -0.490  0.00  0.00    +0.011 A 
ATOM     13  C   UNL     1       5.610  -1.082  -0.491  0.00  0.00    +0.001 A 
ATOM     14  C   UNL     1       6.410  -0.003  -0.160  0.00  0.00    +0.000 A 
ATOM     15  C   UNL     1       5.840   1.213   0.174  0.00  0.00    +0.001 A 
ATOM     16  C   UNL     1       4.468   1.358   0.173  0.00  0.00    +0.011 A 
ENDBRANCH   9  11
ENDBRANCH   1   4
BRANCH   1  17
ATOM     17  C   UNL     1      -2.482   1.245  -1.532  0.00  0.00    +0.078 C 
ATOM     18  C   UNL     1      -2.234   0.049  -2.454  0.00  0.00    +0.017 C 
BRANCH  17  19
ATOM     19  C   UNL     1      -3.957   1.554  -1.496  0.00  0.00    +0.235 C 
ATOM     20  O   UNL     1      -4.560   1.511  -0.445  0.00  0.00    -0.274 OA
ATOM     21  N   UNL     1      -4.606   1.878  -2.632  0.00  0.00    -0.207 N 
ATOM     22  H   UNL     1      -4.124   1.913  -3.473  0.00  0.00    +0.177 HD
BRANCH  21  23
ATOM     23  N   UNL     1      -5.977   2.165  -2.598  0.00  0.00    -0.188 NA
ATOM     24  C   UNL     1      -6.626   2.362  -3.705  0.00  0.00    +0.138 C 
BRANCH  24  25
ATOM     25  C   UNL     1      -6.093   1.836  -4.976  0.00  0.00    -0.005 A 
ATOM     26  C   UNL     1      -6.619   2.277  -6.192  0.00  0.00    +0.010 A 
ATOM     27  C   UNL     1      -6.116   1.782  -7.377  0.00  0.00    +0.016 A 
ATOM     28  C   UNL     1      -5.092   0.850  -7.362  0.00  0.00    +0.018 A 
ATOM     29  C   UNL     1      -4.566   0.409  -6.160  0.00  0.00    +0.016 A 
ATOM     30  C   UNL     1      -5.056   0.900  -4.968  0.00  0.00    +0.010 A 
ATOM     31 BR   UNL     1      -4.409   0.176  -8.992  0.00  0.00    -0.050 Br
ENDBRANCH  24  25
ENDBRANCH  21  23
ENDBRANCH  17  19
ENDBRANCH   1  17
TORSDOF 6
