REMARK  Name = ZINC09001087
REMARK  4 active torsions:
REMARK  status: ('A' for Active; 'I' for Inactive)
REMARK    1  A    between atoms: C_2  and  C_3
REMARK    2  A    between atoms: C_3  and  N_4
REMARK    3  A    between atoms: N_13  and  C_14
REMARK    4  A    between atoms: C_14  and  C_16
REMARK                            x       y       z     vdW  Elec       q    Type
REMARK                         _______ _______ _______ _____ _____    ______ ____
ROOT
ATOM      1  N   UNL     1       4.952  -4.158  -0.071  0.00  0.00    -0.310 N 
ATOM      2  C   UNL     1       6.226  -4.696  -0.087  0.00  0.00    +0.059 A 
ATOM      3  C   UNL     1       6.599  -6.050  -0.099  0.00  0.00    +0.028 A 
ATOM      4  C   UNL     1       7.925  -6.413  -0.114  0.00  0.00    +0.017 A 
ATOM      5  C   UNL     1       8.931  -5.460  -0.119  0.00  0.00    +0.019 A 
ATOM      6  C   UNL     1       8.591  -4.118  -0.108  0.00  0.00    +0.032 A 
ATOM      7  C   UNL     1       7.265  -3.754  -0.092  0.00  0.00    +0.040 A 
ATOM      8  S   UNL     1       6.407  -2.201  -0.082  0.00  0.00    -0.052 S 
ATOM      9  C   UNL     1       4.783  -2.808  -0.061  0.00  0.00    +0.168 A 
ATOM     10  N   UNL     1       3.646  -2.121  -0.046  0.00  0.00    -0.152 NA
ATOM     11 BR   UNL     1      10.747  -5.987  -0.140  0.00  0.00    -0.050 Br
ENDROOT
BRANCH  10  12
ATOM     12  C   UNL     1       3.673  -0.784  -0.039  0.00  0.00    +0.269 C 
ATOM     13  O   UNL     1       4.741  -0.196  -0.046  0.00  0.00    -0.268 OA
BRANCH  12  14
ATOM     14  C   UNL     1       2.408  -0.018  -0.021  0.00  0.00    +0.040 A 
ATOM     15  C   UNL     1       1.175  -0.685  -0.013  0.00  0.00    +0.015 A 
ATOM     16  C   UNL     1       0.002  -0.004   0.002  0.00  0.00    +0.029 A 
ATOM     17  C   UNL     1      -0.017   1.411   0.010  0.00  0.00    +0.078 A 
ATOM     18  C   UNL     1       1.239   2.063   0.001  0.00  0.00    +0.040 A 
ATOM     19  C   UNL     1       2.426   1.378  -0.014  0.00  0.00    +0.030 A 
ATOM     20  S   UNL     1       0.770   3.775   0.014  0.00  0.00    -0.075 S 
ATOM     21  C   UNL     1      -0.951   3.541   0.029  0.00  0.00    +0.157 A 
ATOM     22  N   UNL     1      -1.077   2.242   0.019  0.00  0.00    -0.247 NA
ENDBRANCH  12  14
ENDBRANCH  10  12
BRANCH   1  23
ATOM     23  C   UNL     1       3.784  -5.042  -0.065  0.00  0.00    +0.212 C 
BRANCH  23  25
ATOM     24  C   UNL     1       3.056  -5.559  -2.555  0.00  0.00    +0.005 C 
ATOM     25  C   UNL     1       3.379  -5.330  -1.450  0.00  0.00    -0.084 C 
ENDBRANCH  23  25
ENDBRANCH   1  23
TORSDOF 4
