REMARK  Name = ZINC63315235
REMARK  15 active torsions:
REMARK  status: ('A' for Active; 'I' for Inactive)
REMARK    1  A    between atoms: C_1  and  C_2
REMARK    2  A    between atoms: C_2  and  C_4
REMARK    3  A    between atoms: C_2  and  N_10
REMARK    4  A    between atoms: C_4  and  C_5
REMARK    5  A    between atoms: C_5  and  C_6
REMARK    6  A    between atoms: C_6  and  C_7
REMARK    7  A    between atoms: C_7  and  C_8
REMARK    8  A    between atoms: C_7  and  C_9
REMARK    9  A    between atoms: C_11  and  C_13
REMARK   10  A    between atoms: C_13  and  C_14
REMARK   11  A    between atoms: C_14  and  C_15
REMARK   12  A    between atoms: N_19  and  C_23
REMARK   13  A    between atoms: C_20  and  O_22
REMARK   14  A    between atoms: C_23  and  C_24
REMARK   15  A    between atoms: C_24  and  C_25
REMARK                            x       y       z     vdW  Elec       q    Type
REMARK                         _______ _______ _______ _____ _____    ______ ____
ROOT
ATOM      1  C   UNL     1       0.549  -1.711   5.996  0.00  0.00    +0.197 C 
ATOM      2  C   UNL     1      -0.408  -1.861   7.163  0.00  0.00    +0.248 C 
ATOM      3  O   UNL     1      -1.377  -2.585   7.233  0.00  0.00    -0.273 OA
ATOM      4  N   UNL     1       0.055  -1.013   8.106  0.00  0.00    -0.224 N 
ATOM      5  C   UNL     1       1.177  -0.361   7.662  0.00  0.00    +0.285 C 
ATOM      6  N   UNL     1       1.523  -0.710   6.461  0.00  0.00    -0.224 NA
ENDROOT
BRANCH   5   7
ATOM      7  O   UNL     1       1.853   0.547   8.399  0.00  0.00    -0.481 OA
ATOM      8  H   UNL     1       2.624   0.921   7.951  0.00  0.00    +0.295 HD
ENDBRANCH   5   7
BRANCH   1   9
ATOM      9  C   UNL     1      -0.191  -1.204   4.756  0.00  0.00    +0.045 C 
BRANCH   9  10
ATOM     10  C   UNL     1       0.780  -1.133   3.576  0.00  0.00    +0.098 C 
BRANCH  10  12
ATOM     11  N   UNL     1       0.711  -0.489   1.189  0.00  0.00    -0.313 N 
ATOM     12  C   UNL     1       0.051  -0.633   2.355  0.00  0.00    +0.213 C 
ATOM     13  O   UNL     1      -1.129  -0.361   2.423  0.00  0.00    -0.276 OA
ATOM     14  H   UNL     1       1.654  -0.707   1.135  0.00  0.00    +0.149 HD
BRANCH  11  16
ATOM     15  C   UNL     1      -0.019   1.526   0.010  0.00  0.00    +0.028 C 
ATOM     16  C   UNL     1       0.002  -0.004   0.002  0.00  0.00    +0.070 C 
BRANCH  16  17
ATOM     17  C   UNL     1       0.718  -0.497  -1.257  0.00  0.00    +0.022 C 
BRANCH  17  18
ATOM     18  C   UNL     1       0.630  -2.023  -1.329  0.00  0.00    +0.002 C 
BRANCH  18  19
ATOM     19  C   UNL     1       1.347  -2.517  -2.587  0.00  0.00    +0.003 C 
BRANCH  19  20
ATOM     20  C   UNL     1       1.259  -4.043  -2.659  0.00  0.00    -0.017 C 
ATOM     21  C   UNL     1       1.865  -4.527  -3.978  0.00  0.00    +0.007 C 
ATOM     22  C   UNL     1       2.031  -4.654  -1.488  0.00  0.00    +0.007 C 
ENDBRANCH  19  20
ENDBRANCH  18  19
ENDBRANCH  17  18
ENDBRANCH  16  17
ENDBRANCH  11  16
ENDBRANCH  10  12
ENDBRANCH   9  10
ENDBRANCH   1   9
BRANCH   4  23
ATOM     23  C   UNL     1      -0.558  -0.816   9.422  0.00  0.00    +0.122 C 
BRANCH  23  24
ATOM     24  C   UNL     1       0.053  -1.800  10.422  0.00  0.00    +0.052 C 
BRANCH  24  25
ATOM     25  C   UNL     1      -0.578  -1.597  11.775  0.00  0.00    -0.040 C 
ATOM     26  C   UNL     1      -1.621  -2.282  12.297  0.00  0.00    +0.000 A 
ATOM     27  C   UNL     1      -2.449  -3.378  11.780  0.00  0.00    +0.030 A 
ATOM     28  C   UNL     1      -3.446  -3.868  12.554  0.00  0.00    +0.042 A 
ATOM     29  C   UNL     1      -3.706  -3.355  13.833  0.00  0.00    +0.022 A 
ATOM     30  C   UNL     1      -2.988  -2.349  14.376  0.00  0.00    +0.027 A 
ATOM     31  C   UNL     1      -1.916  -1.759  13.651  0.00  0.00    +0.043 A 
ATOM     32  N   UNL     1      -1.087  -0.789  13.953  0.00  0.00    -0.380 N 
ATOM     33  C   UNL     1      -0.168  -0.591  12.828  0.00  0.00    +0.144 C 
ATOM     34 CL   UNL     1      -4.427  -5.164  11.946  0.00  0.00    -0.084 Cl
ATOM     35  H   UNL     1      -1.081  -0.289  14.784  0.00  0.00    +0.160 HD
ENDBRANCH  24  25
ENDBRANCH  23  24
ENDBRANCH   4  23
TORSDOF 12
