REMARK  Name = ZINC32734805
REMARK  12 active torsions:
REMARK  status: ('A' for Active; 'I' for Inactive)
REMARK    1  A    between atoms: C_1  and  C_2
REMARK    2  A    between atoms: C_2  and  C_3
REMARK    3  A    between atoms: C_6  and  C_9
REMARK    4  A    between atoms: C_9  and  C_11
REMARK    5  A    between atoms: C_9  and  N_34
REMARK    6  A    between atoms: C_11  and  N_12
REMARK    7  A    between atoms: C_13  and  C_15
REMARK    8  A    between atoms: C_20  and  S_21
REMARK    9  A    between atoms: S_21  and  C_22
REMARK   10  A    between atoms: C_22  and  C_23
REMARK   11  A    between atoms: N_34  and  C_35
REMARK   12  A    between atoms: N_34  and  C_36
REMARK                            x       y       z     vdW  Elec       q    Type
REMARK                         _______ _______ _______ _____ _____    ______ ____
ROOT
ATOM      1  C   UNL     1       8.184  -2.579  -0.958  0.00  0.00    +0.050 A 
ATOM      2  C   UNL     1       8.722  -3.842  -1.220  0.00  0.00    +0.014 A 
ATOM      3  C   UNL     1       7.891  -4.886  -1.564  0.00  0.00    +0.001 A 
ATOM      4  C   UNL     1       6.521  -4.691  -1.653  0.00  0.00    +0.001 A 
ATOM      5  C   UNL     1       5.973  -3.453  -1.393  0.00  0.00    +0.015 A 
ATOM      6  C   UNL     1       6.796  -2.385  -1.050  0.00  0.00    +0.020 A 
ENDROOT
BRANCH   1   8
ATOM      7  N   UNL     1      10.398  -1.650  -0.502  0.00  0.00    -0.313 N 
ATOM      8  C   UNL     1       9.066  -1.459  -0.589  0.00  0.00    +0.245 C 
ATOM      9  O   UNL     1       8.594  -0.362  -0.361  0.00  0.00    -0.270 OA
ATOM     10  H   UNL     1      10.825  -2.642  -0.707  0.00  0.00    +0.149 HD
BRANCH   7  11
ATOM     11  C   UNL     1      11.275  -0.536  -0.135  0.00  0.00    +0.094 C 
BRANCH  11  12
ATOM     12  C   UNL     1      12.703  -1.053   0.057  0.00  0.00    -0.021 C 
BRANCH  12  16
ATOM     13  C   UNL     1      15.298   2.225   0.931  0.00  0.00    -0.048 A 
ATOM     14  C   UNL     1      15.310   1.651  -0.326  0.00  0.00    +0.004 A 
ATOM     15  C   UNL     1      14.470   0.590  -0.609  0.00  0.00    +0.002 A 
ATOM     16  C   UNL     1      13.618   0.103   0.366  0.00  0.00    -0.059 A 
ATOM     17  C   UNL     1      13.603   0.682   1.621  0.00  0.00    +0.002 A 
ATOM     18  C   UNL     1      14.446   1.739   1.906  0.00  0.00    +0.004 A 
BRANCH  13  20
ATOM     19  C   UNL     1      15.502   4.697   0.912  0.00  0.00    +0.009 C 
ATOM     20  C   UNL     1      16.213   3.382   1.239  0.00  0.00    +0.032 C 
ENDBRANCH  13  20
ENDBRANCH  12  16
BRANCH  12  21
ATOM     21  N   UNL     1      12.731  -2.010   1.171  0.00  0.00    +0.382 N 
ATOM     22  C   UNL     1      11.660  -1.728   2.136  0.00  0.00    -0.096 C 
ATOM     23  C   UNL     1      12.646  -3.392   0.679  0.00  0.00    -0.096 C 
ATOM     24  H   UNL     1      13.693  -1.896   1.691  0.00  0.00    -0.082 HD
ENDBRANCH  12  21
ENDBRANCH  11  12
ENDBRANCH   7  11
ENDBRANCH   1   8
BRANCH   6  25
ATOM     25  S   UNL     1       6.099  -0.800  -0.724  0.00  0.00    -0.115 S 
BRANCH  25  26
ATOM     26  C   UNL     1       4.318  -1.045  -0.965  0.00  0.00    +0.170 C 
BRANCH  26  27
ATOM     27  C   UNL     1       3.594   0.253  -0.713  0.00  0.00    +0.230 C 
ATOM     28  O   UNL     1       4.219   1.245  -0.402  0.00  0.00    -0.274 OA
ATOM     29  N   UNL     1       2.253   0.311  -0.834  0.00  0.00    -0.270 N 
ATOM     30  C   UNL     1       1.441   1.510  -0.615  0.00  0.00    +0.118 C 
ATOM     31  C   UNL     1      -0.009   1.068  -0.872  0.00  0.00    +0.056 C 
ATOM     32  C   UNL     1       0.098  -0.397  -1.228  0.00  0.00    -0.024 A 
ATOM     33  C   UNL     1       1.433  -0.766  -1.186  0.00  0.00    +0.039 A 
ATOM     34  C   UNL     1       1.782  -2.084  -1.483  0.00  0.00    +0.024 A 
ATOM     35  C   UNL     1       0.809  -3.004  -1.811  0.00  0.00    +0.002 A 
ATOM     36  C   UNL     1      -0.521  -2.627  -1.850  0.00  0.00    +0.000 A 
ATOM     37  C   UNL     1      -0.874  -1.322  -1.558  0.00  0.00    +0.005 A 
ENDBRANCH  26  27
ENDBRANCH  25  26
ENDBRANCH   6  25
TORSDOF 9
