REMARK  Name = ZINC35712349
REMARK  10 active torsions:
REMARK  status: ('A' for Active; 'I' for Inactive)
REMARK    1  A    between atoms: C_1  and  C_2
REMARK    2  A    between atoms: C_2  and  C_3
REMARK    3  A    between atoms: C_3  and  N_4
REMARK    4  A    between atoms: C_5  and  C_36
REMARK    5  A    between atoms: C_6  and  C_32
REMARK    6  A    between atoms: C_7  and  C_12
REMARK    7  A    between atoms: C_16  and  N_18
REMARK    8  A    between atoms: N_21  and  C_22
REMARK    9  A    between atoms: C_32  and  O_34
REMARK   10  A    between atoms: O_34  and  C_35
REMARK                            x       y       z     vdW  Elec       q    Type
REMARK                         _______ _______ _______ _____ _____    ______ ____
ROOT
ATOM      1  C   UNL     1       0.332  -5.917  -0.598  0.00  0.00    -0.021 A 
ATOM      2  C   UNL     1      -0.527  -5.578   0.432  0.00  0.00    +0.006 A 
ATOM      3  C   UNL     1      -1.146  -6.568   1.173  0.00  0.00    +0.002 A 
ATOM      4  C   UNL     1      -0.907  -7.898   0.887  0.00  0.00    +0.023 A 
ATOM      5  C   UNL     1      -0.045  -8.241  -0.146  0.00  0.00    +0.035 A 
ATOM      6  C   UNL     1       0.570  -7.245  -0.892  0.00  0.00    +0.029 A 
ENDROOT
BRANCH   1  10
ATOM      7  N   UNL     1       1.227  -2.172  -0.690  0.00  0.00    -0.259 N 
ATOM      8  C   UNL     1       2.227  -3.016  -0.299  0.00  0.00    +0.024 C 
ATOM      9  C   UNL     1       2.191  -4.330  -0.609  0.00  0.00    +0.078 C 
ATOM     10  C   UNL     1       1.004  -4.835  -1.404  0.00  0.00    +0.144 C 
ATOM     11  N   UNL     1      -0.020  -3.844  -1.775  0.00  0.00    -0.288 N 
ATOM     12  C   UNL     1       0.154  -2.565  -1.388  0.00  0.00    +0.307 C 
ATOM     13  O   UNL     1      -0.688  -1.740  -1.687  0.00  0.00    -0.252 OA
ATOM     14  C   UNL     1       3.390  -2.472   0.490  0.00  0.00    +0.061 C 
ATOM     15  H   UNL     1      -0.803  -4.106  -2.284  0.00  0.00    +0.151 HD
BRANCH   9  16
ATOM     16  C   UNL     1       3.227  -5.205  -0.206  0.00  0.00    +0.339 C 
ATOM     17  O   UNL     1       4.171  -4.777   0.432  0.00  0.00    -0.245 OA
BRANCH  16  18
ATOM     18  O   UNL     1       3.167  -6.514  -0.528  0.00  0.00    -0.465 OA
ATOM     19  C   UNL     1       4.248  -7.340  -0.088  0.00  0.00    +0.280 C 
ENDBRANCH  16  18
ENDBRANCH   9  16
BRANCH   7  20
ATOM     20  C   UNL     1       1.331  -0.758  -0.319  0.00  0.00    +0.114 C 
BRANCH  20  22
ATOM     21  C   UNL     1       2.298   1.454  -0.962  0.00  0.00    +0.005 C 
ATOM     22  C   UNL     1       2.190  -0.023  -1.349  0.00  0.00    +0.016 C 
ENDBRANCH  20  22
ENDBRANCH   7  20
ENDBRANCH   1  10
BRANCH   5  23
ATOM     23  N   UNL     1       0.199  -9.588  -0.438  0.00  0.00    -0.269 N 
ATOM     24  C   UNL     1       0.202 -10.502   0.552  0.00  0.00    +0.304 C 
ATOM     25  O   UNL     1       0.089 -10.146   1.709  0.00  0.00    -0.252 OA
ATOM     26  N   UNL     1       0.330 -11.812   0.260  0.00  0.00    -0.294 N 
ATOM     27  H   UNL     1       0.365  -9.863  -1.353  0.00  0.00    +0.156 HD
ATOM     28  H   UNL     1       0.420 -12.096  -0.663  0.00  0.00    +0.151 HD
BRANCH  26  29
ATOM     29  C   UNL     1       0.334 -12.805   1.336  0.00  0.00    +0.037 C 
ATOM     30  C   UNL     1       1.499 -12.523   2.287  0.00  0.00    +0.029 C 
ATOM     31  C   UNL     1       1.503 -13.561   3.411  0.00  0.00    -0.008 C 
ATOM     32  C   UNL     1       1.660 -14.960   2.812  0.00  0.00    +0.007 C 
ATOM     33  C   UNL     1       0.495 -15.243   1.861  0.00  0.00    -0.008 C 
ATOM     34  C   UNL     1       0.491 -14.205   0.738  0.00  0.00    +0.029 C 
ATOM     35  C   UNL     1      -0.823 -15.164   2.633  0.00  0.00    +0.007 C 
ATOM     36  C   UNL     1      -0.981 -13.764   3.232  0.00  0.00    -0.008 C 
ATOM     37  C   UNL     1       0.184 -13.482   4.183  0.00  0.00    +0.007 C 
ATOM     38  C   UNL     1      -0.985 -12.726   2.108  0.00  0.00    +0.029 C 
ENDBRANCH  26  29
ENDBRANCH   5  23
TORSDOF 7
