REMARK  Name = ZINC09075561
REMARK  10 active torsions:
REMARK  status: ('A' for Active; 'I' for Inactive)
REMARK    1  A    between atoms: C_1  and  C_2
REMARK    2  A    between atoms: C_3  and  C_30
REMARK    3  A    between atoms: C_4  and  C_25
REMARK    4  A    between atoms: C_6  and  C_23
REMARK    5  A    between atoms: C_7  and  S_9
REMARK    6  A    between atoms: S_9  and  C_10
REMARK    7  A    between atoms: C_10  and  C_11
REMARK    8  A    between atoms: N_13  and  C_14
REMARK    9  A    between atoms: C_17  and  N_20
REMARK   10  A    between atoms: N_32  and  C_33
REMARK                            x       y       z     vdW  Elec       q    Type
REMARK                         _______ _______ _______ _____ _____    ______ ____
ROOT
ATOM      1  C   UNL     1     -11.011   6.934  -0.149  0.00  0.00    +0.061 C 
ATOM      2  C   UNL     1      -9.954   7.929   0.254  0.00  0.00    +0.015 C 
ATOM      3  C   UNL     1     -10.273   9.230   0.352  0.00  0.00    +0.047 C 
ATOM      4  C   UNL     1      -9.261  10.263   0.758  0.00  0.00    +0.134 C 
ATOM      5  C   UNL     1      -7.865   9.721   0.635  0.00  0.00    +0.072 C 
ATOM      6  C   UNL     1      -7.634   8.386   0.524  0.00  0.00    +0.080 C 
ATOM      7  N   UNL     1      -8.683   7.494   0.507  0.00  0.00    -0.312 N 
ATOM      8  H   UNL     1      -8.495   6.427   0.700  0.00  0.00    +0.152 HD
ENDROOT
BRANCH   4   9
ATOM      9  C   UNL     1      -9.513  10.666   2.188  0.00  0.00    +0.118 A 
ATOM     10  C   UNL     1      -9.828  11.903   2.613  0.00  0.00    +0.045 A 
ATOM     11  C   UNL     1      -9.974  11.829   4.017  0.00  0.00    +0.041 A 
ATOM     12  C   UNL     1      -9.738  10.552   4.367  0.00  0.00    +0.195 A 
ATOM     13  O   UNL     1      -9.465   9.851   3.254  0.00  0.00    -0.467 OA
ENDBRANCH   4   9
BRANCH   3  14
ATOM     14  C   UNL     1     -11.597   9.638   0.065  0.00  0.00    +0.247 C 
ATOM     15  O   UNL     1     -11.881  10.049  -1.046  0.00  0.00    -0.270 OA
ATOM     16  N   UNL     1     -12.545   9.572   1.021  0.00  0.00    -0.282 N 
ATOM     17  H   UNL     1     -12.308   9.130   2.000  0.00  0.00    +0.155 HD
BRANCH  16  18
ATOM     18  C   UNL     1     -13.829  10.065   0.768  0.00  0.00    +0.034 A 
ATOM     19  C   UNL     1     -14.555  10.670   1.785  0.00  0.00    +0.023 A 
ATOM     20  C   UNL     1     -15.821  11.161   1.531  0.00  0.00    +0.002 A 
ATOM     21  C   UNL     1     -16.370  11.040   0.267  0.00  0.00    +0.000 A 
ATOM     22  C   UNL     1     -15.652  10.432  -0.747  0.00  0.00    +0.002 A 
ATOM     23  C   UNL     1     -14.383   9.945  -0.500  0.00  0.00    +0.023 A 
ENDBRANCH  16  18
ENDBRANCH   3  14
BRANCH   5  24
ATOM     24  C   UNL     1      -6.757  10.628   0.636  0.00  0.00    +0.098 C 
ATOM     25  N   UNL     1      -5.878  11.348   0.636  0.00  0.00    -0.191 NA
ENDBRANCH   5  24
BRANCH   6  26
ATOM     26  S   UNL     1      -5.980   7.792   0.392  0.00  0.00    -0.100 S 
BRANCH  26  27
ATOM     27  C   UNL     1      -6.292   6.013   0.277  0.00  0.00    +0.171 C 
BRANCH  27  28
ATOM     28  C   UNL     1      -4.982   5.280   0.152  0.00  0.00    +0.227 C 
ATOM     29  O   UNL     1      -3.939   5.899   0.143  0.00  0.00    -0.275 OA
ATOM     30  N   UNL     1      -4.968   3.936   0.052  0.00  0.00    -0.285 N 
ATOM     31  H   UNL     1      -5.914   3.382  -0.037  0.00  0.00    +0.155 HD
BRANCH  30  32
ATOM     32  C   UNL     1      -3.751   3.246   0.061  0.00  0.00    +0.034 A 
ATOM     33  C   UNL     1      -2.642   3.799   0.688  0.00  0.00    +0.025 A 
ATOM     34  C   UNL     1      -1.442   3.115   0.695  0.00  0.00    +0.034 A 
ATOM     35  C   UNL     1      -1.344   1.881   0.079  0.00  0.00    +0.126 A 
ATOM     36  C   UNL     1      -2.445   1.331  -0.551  0.00  0.00    +0.034 A 
ATOM     37  C   UNL     1      -3.649   2.007  -0.557  0.00  0.00    +0.025 A 
BRANCH  35  38
ATOM     38  N   UNL     1      -0.057   1.151   0.088  0.00  0.00    +0.056 N 
ATOM     39  O   UNL     1       0.915   1.637   0.639  0.00  0.00    -0.126 OA
ATOM     40  O   UNL     1       0.030   0.062  -0.450  0.00  0.00    -0.126 OA
ENDBRANCH  35  38
ENDBRANCH  30  32
ENDBRANCH  27  28
ENDBRANCH  26  27
ENDBRANCH   6  26
TORSDOF 9
