REMARK  Name = ZINC62412158
REMARK  7 active torsions:
REMARK  status: ('A' for Active; 'I' for Inactive)
REMARK    1  A    between atoms: C_1  and  C_2
REMARK    2  A    between atoms: C_2  and  C_3
REMARK    3  A    between atoms: C_2  and  N_4
REMARK    4  A    between atoms: C_7  and  C_9
REMARK    5  A    between atoms: C_9  and  N_10
REMARK    6  A    between atoms: C_17  and  C_19
REMARK    7  A    between atoms: N_21  and  C_22
REMARK                            x       y       z     vdW  Elec       q    Type
REMARK                         _______ _______ _______ _____ _____    ______ ____
ROOT
ATOM      1  N   UNL     1      -4.382  -2.238  -3.284  0.00  0.00    -0.299 N 
ATOM      2  C   UNL     1      -5.591  -2.272  -3.879  0.00  0.00    +0.302 C 
ATOM      3  O   UNL     1      -6.371  -1.352  -3.723  0.00  0.00    -0.253 OA
ATOM      4  N   UNL     1      -5.936  -3.325  -4.645  0.00  0.00    -0.285 N 
ATOM      5  C   UNL     1      -5.054  -4.496  -4.749  0.00  0.00    +0.109 C 
ATOM      6  C   UNL     1      -4.780  -4.777  -6.230  0.00  0.00    +0.020 C 
ATOM      7  C   UNL     1      -6.110  -4.925  -6.971  0.00  0.00    +0.016 C 
ATOM      8  C   UNL     1      -6.903  -3.620  -6.866  0.00  0.00    +0.092 C 
ATOM      9  C   UNL     1      -7.203  -3.328  -5.388  0.00  0.00    +0.122 C 
ATOM     10  H   UNL     1      -3.789  -3.002  -3.347  0.00  0.00    +0.150 HD
ENDROOT
BRANCH   8  11
ATOM     11  C   UNL     1      -8.198  -3.755  -7.624  0.00  0.00    +0.218 C 
ATOM     12  O   UNL     1      -8.463  -4.794  -8.192  0.00  0.00    -0.275 OA
ATOM     13  N   UNL     1      -9.064  -2.723  -7.670  0.00  0.00    -0.312 N 
ATOM     14  H   UNL     1      -8.852  -1.893  -7.215  0.00  0.00    +0.149 HD
BRANCH  13  15
ATOM     15  C   UNL     1     -10.323  -2.855  -8.406  0.00  0.00    +0.073 C 
ATOM     16  C   UNL     1     -10.087  -2.531  -9.883  0.00  0.00    +0.022 C 
ATOM     17  C   UNL     1     -11.402  -2.669 -10.652  0.00  0.00    +0.002 C 
ATOM     18  C   UNL     1     -12.434  -1.698 -10.076  0.00  0.00    +0.000 C 
ATOM     19  C   UNL     1     -12.670  -2.021  -8.599  0.00  0.00    +0.002 C 
ATOM     20  C   UNL     1     -11.355  -1.883  -7.830  0.00  0.00    +0.022 C 
ENDBRANCH  13  15
ENDBRANCH   8  11
BRANCH   1  21
ATOM     21  C   UNL     1      -3.964  -1.045  -2.543  0.00  0.00    +0.107 C 
BRANCH  21  25
ATOM     22  N   UNL     1      -1.374  -0.509   0.008  0.00  0.00    +0.381 N 
ATOM     23  C   UNL     1      -1.359  -1.988  -0.020  0.00  0.00    -0.078 C 
ATOM     24  C   UNL     1      -2.579  -2.379  -0.891  0.00  0.00    -0.015 C 
ATOM     25  C   UNL     1      -2.562  -1.266  -1.972  0.00  0.00    -0.012 C 
ATOM     26  C   UNL     1      -2.091  -0.024  -1.185  0.00  0.00    -0.074 C 
ATOM     27  H   UNL     1      -1.846  -0.192   0.841  0.00  0.00    -0.081 HD
BRANCH  22  29
ATOM     28  C   UNL     1      -0.016   1.529   0.004  0.00  0.00    -0.014 C 
ATOM     29  C   UNL     1       0.005  -0.001  -0.003  0.00  0.00    -0.075 C 
ATOM     30  C   UNL     1       0.745  -0.507   1.236  0.00  0.00    -0.014 C 
ENDBRANCH  22  29
ENDBRANCH  21  25
ENDBRANCH   1  21
TORSDOF 5
