REMARK  Name = ZINC35404847
REMARK  14 active torsions:
REMARK  status: ('A' for Active; 'I' for Inactive)
REMARK    1  A    between atoms: C_1  and  C_2
REMARK    2  A    between atoms: C_2  and  C_3
REMARK    3  A    between atoms: C_2  and  N_4
REMARK    4  A    between atoms: C_5  and  C_7
REMARK    5  A    between atoms: C_10  and  C_12
REMARK    6  A    between atoms: C_12  and  N_13
REMARK    7  A    between atoms: N_13  and  C_14
REMARK    8  A    between atoms: N_13  and  C_25
REMARK    9  A    between atoms: C_14  and  C_15
REMARK   10  A    between atoms: C_18  and  C_21
REMARK   11  A    between atoms: C_21  and  C_22
REMARK   12  A    between atoms: C_21  and  C_23
REMARK   13  A    between atoms: C_21  and  C_24
REMARK   14  A    between atoms: C_25  and  C_26
REMARK                            x       y       z     vdW  Elec       q    Type
REMARK                         _______ _______ _______ _____ _____    ______ ____
ROOT
ATOM      1  N   UNL     1      -6.986   0.232  -0.852  0.00  0.00    +0.389 N 
ATOM      2  H   UNL     1      -6.419   0.865  -1.397  0.00  0.00    -0.080 HD
ENDROOT
BRANCH   1   3
ATOM      3  C   UNL     1      -6.138  -0.475   0.117  0.00  0.00    -0.014 C 
BRANCH   3   7
ATOM      4  C   UNL     1      -2.963  -1.459  -1.547  0.00  0.00    +0.133 A 
ATOM      5  C   UNL     1      -3.413  -2.711  -1.873  0.00  0.00    +0.079 A 
ATOM      6  S   UNL     1      -4.973  -2.708  -1.250  0.00  0.00    -0.082 S 
ATOM      7  C   UNL     1      -5.007  -1.157  -0.609  0.00  0.00    +0.063 A 
ATOM      8  N   UNL     1      -3.823  -0.680  -0.882  0.00  0.00    -0.241 NA
BRANCH   4  10
ATOM      9  N   UNL     1      -1.205   0.238  -1.555  0.00  0.00    -0.308 N 
ATOM     10  C   UNL     1      -1.609  -1.001  -1.901  0.00  0.00    +0.263 C 
ATOM     11  O   UNL     1      -0.856  -1.739  -2.506  0.00  0.00    -0.269 OA
ATOM     12  H   UNL     1      -1.806   0.827  -1.073  0.00  0.00    +0.149 HD
BRANCH   9  14
ATOM     13  C   UNL     1       0.157   2.222  -1.990  0.00  0.00    +0.027 C 
ATOM     14  C   UNL     1       0.141   0.694  -1.908  0.00  0.00    +0.067 C 
ATOM     15  C   UNL     1       1.133   0.231  -0.839  0.00  0.00    +0.027 C 
ENDBRANCH   9  14
ENDBRANCH   4  10
ENDBRANCH   3   7
ENDBRANCH   1   3
BRANCH   1  16
ATOM     16  C   UNL     1      -8.018   0.994  -0.135  0.00  0.00    -0.042 C 
BRANCH  16  17
ATOM     17  C   UNL     1      -7.365   2.084   0.675  0.00  0.00    -0.064 A 
ATOM     18  C   UNL     1      -7.075   1.874   2.011  0.00  0.00    +0.002 A 
ATOM     19  C   UNL     1      -6.477   2.874   2.754  0.00  0.00    +0.004 A 
ATOM     20  C   UNL     1      -6.167   4.084   2.162  0.00  0.00    -0.042 A 
ATOM     21  C   UNL     1      -6.456   4.294   0.826  0.00  0.00    +0.004 A 
ATOM     22  C   UNL     1      -7.051   3.293   0.082  0.00  0.00    +0.002 A 
BRANCH  20  23
ATOM     23  C   UNL     1      -5.516   5.175   2.972  0.00  0.00    -0.013 C 
ATOM     24  C   UNL     1      -4.229   4.641   3.604  0.00  0.00    +0.015 C 
ATOM     25  C   UNL     1      -5.184   6.358   2.061  0.00  0.00    +0.015 C 
ATOM     26  C   UNL     1      -6.473   5.632   4.075  0.00  0.00    +0.015 C 
ENDBRANCH  20  23
ENDBRANCH  16  17
ENDBRANCH   1  16
BRANCH   1  27
ATOM     27  C   UNL     1      -7.628  -0.742  -1.744  0.00  0.00    -0.042 C 
BRANCH  27  28
ATOM     28  C   UNL     1      -8.401  -0.012  -2.812  0.00  0.00    -0.060 A 
ATOM     29  C   UNL     1      -9.754   0.219  -2.649  0.00  0.00    +0.005 A 
ATOM     30  C   UNL     1     -10.467   0.889  -3.626  0.00  0.00    +0.050 A 
ATOM     31  C   UNL     1      -9.826   1.330  -4.772  0.00  0.00    +0.166 A 
ATOM     32  C   UNL     1      -8.463   1.097  -4.937  0.00  0.00    +0.166 A 
ATOM     33  C   UNL     1      -7.753   0.430  -3.951  0.00  0.00    +0.051 A 
ATOM     34  O   UNL     1      -8.072   1.622  -6.135  0.00  0.00    -0.453 OA
ATOM     35  C   UNL     1      -9.286   1.817  -6.883  0.00  0.00    +0.466 C 
ATOM     36  O   UNL     1     -10.289   2.001  -5.867  0.00  0.00    -0.453 OA
ENDBRANCH  27  28
ENDBRANCH   1  27
TORSDOF 9
