REMARK  Name = ZINC12886956
REMARK  7 active torsions:
REMARK  status: ('A' for Active; 'I' for Inactive)
REMARK    1  A    between atoms: C_1  and  C_2
REMARK    2  A    between atoms: C_2  and  C_3
REMARK    3  A    between atoms: C_3  and  C_5
REMARK    4  A    between atoms: C_3  and  N_6
REMARK    5  A    between atoms: C_11  and  C_28
REMARK    6  A    between atoms: C_20  and  C_27
REMARK    7  A    between atoms: C_28  and  C_29
REMARK                            x       y       z     vdW  Elec       q    Type
REMARK                         _______ _______ _______ _____ _____    ______ ____
ROOT
ATOM      1  N   UNL     1       4.761  -0.960  -1.363  0.00  0.00    -0.239 N 
ATOM      2  C   UNL     1       5.408   0.099  -0.863  0.00  0.00    +0.224 C 
ATOM      3  O   UNL     1       6.582   0.124  -0.562  0.00  0.00    -0.275 OA
ATOM      4  C   UNL     1       4.448   1.259  -0.733  0.00  0.00    +0.073 C 
ATOM      5  C   UNL     1       4.208   1.559   0.762  0.00  0.00    -0.053 C 
ATOM      6  C   UNL     1       2.184   0.689  -0.015  0.00  0.00    +0.050 C 
ATOM      7  C   UNL     1       3.097   0.687  -1.247  0.00  0.00    +0.088 C 
ATOM      8  C   UNL     1       3.463  -0.750  -1.615  0.00  0.00    +0.225 C 
ATOM      9  O   UNL     1       2.696  -1.571  -2.070  0.00  0.00    -0.275 OA
ATOM     10  C   UNL     1       1.282   1.891   0.000  0.00  0.00    -0.027 A 
ATOM     11  C   UNL     1       1.513   3.249   0.004  0.00  0.00    +0.008 A 
ATOM     12  C   UNL     1       0.448   4.132   0.018  0.00  0.00    -0.050 A 
ATOM     13  C   UNL     1      -0.848   3.647   0.028  0.00  0.00    +0.005 A 
ATOM     14  C   UNL     1      -1.083   2.288   0.019  0.00  0.00    +0.024 A 
ATOM     15  C   UNL     1      -0.017   1.392   0.010  0.00  0.00    +0.036 A 
ATOM     16  N   UNL     1       0.002  -0.004   0.002  0.00  0.00    -0.286 N 
ATOM     17  C   UNL     1       1.256  -0.495  -0.014  0.00  0.00    +0.211 C 
ATOM     18  O   UNL     1       1.576  -1.665  -0.026  0.00  0.00    -0.277 OA
ATOM     19  C   UNL     1       0.698   5.618   0.020  0.00  0.00    +0.044 C 
ATOM     20  H   UNL     1      -0.795  -0.556   0.008  0.00  0.00    +0.155 HD
ATOM     21  N   UNL     1       3.086   0.690   1.123  0.00  0.00    +0.394 N 
ATOM     22  H   UNL     1       2.608   1.054   1.955  0.00  0.00    -0.083 HD
ATOM     23  H   UNL     1       3.421  -0.263   1.311  0.00  0.00    -0.083 HD
ENDROOT
BRANCH   1  24
ATOM     24  C   UNL     1       5.419  -2.244  -1.616  0.00  0.00    +0.081 C 
ATOM     25  C   UNL     1       6.555  -2.046  -2.621  0.00  0.00    +0.028 C 
BRANCH  24  27
ATOM     26  C   UNL     1       4.840  -3.107   0.656  0.00  0.00    +0.006 C 
ATOM     27  C   UNL     1       5.987  -2.792  -0.305  0.00  0.00    +0.019 C 
ENDBRANCH  24  27
ENDBRANCH   1  24
BRANCH   5  28
ATOM     28  C   UNL     1       5.457   1.226   1.581  0.00  0.00    +0.022 C 
BRANCH  28  29
ATOM     29  C   UNL     1       5.217   1.572   3.027  0.00  0.00    -0.024 A 
ATOM     30  C   UNL     1       5.554   2.717   3.641  0.00  0.00    +0.087 A 
ATOM     31  N   UNL     1       5.177   2.671   4.956  0.00  0.00    -0.360 N 
ATOM     32  H   UNL     1       5.315   3.382   5.601  0.00  0.00    +0.165 HD
ATOM     33  C   UNL     1       4.572   1.464   5.227  0.00  0.00    +0.047 A 
ATOM     34  C   UNL     1       4.566   0.725   4.029  0.00  0.00    +0.003 A 
ATOM     35  C   UNL     1       4.003  -0.553   4.002  0.00  0.00    +0.010 A 
ATOM     36  C   UNL     1       3.458  -1.078   5.140  0.00  0.00    +0.001 A 
ATOM     37  C   UNL     1       3.459  -0.352   6.323  0.00  0.00    +0.002 A 
ATOM     38  C   UNL     1       4.015   0.908   6.374  0.00  0.00    +0.026 A 
ENDBRANCH  28  29
ENDBRANCH   5  28
TORSDOF 4
