REMARK  Name = ZINC55597767
REMARK  4 active torsions:
REMARK  status: ('A' for Active; 'I' for Inactive)
REMARK    1  A    between atoms: C_3  and  N_13
REMARK    2  A    between atoms: C_5  and  N_7
REMARK    3  A    between atoms: N_13  and  S_14
REMARK    4  A    between atoms: S_14  and  C_17
REMARK                            x       y       z     vdW  Elec       q    Type
REMARK                         _______ _______ _______ _____ _____    ______ ____
ROOT
ATOM      1  N   UNL     1       3.582   2.131   0.010  0.00  0.00    -0.216 N 
ATOM      2  H   UNL     1       4.305   1.875  -0.583  0.00  0.00    +0.174 HD
ENDROOT
BRANCH   1   5
ATOM      3  C   UNL     1      -0.017   1.377  -0.006  0.00  0.00    +0.004 A 
ATOM      4  C   UNL     1       1.169   2.087   0.002  0.00  0.00    +0.024 A 
ATOM      5  C   UNL     1       2.384   1.413   0.002  0.00  0.00    +0.050 A 
ATOM      6  C   UNL     1       2.406   0.025  -0.005  0.00  0.00    +0.048 A 
ATOM      7  C   UNL     1       1.214  -0.684  -0.013  0.00  0.00    +0.040 A 
ATOM      8  C   UNL     1       0.002  -0.004  -0.014  0.00  0.00    +0.024 A 
BRANCH   7   9
ATOM      9  N   UNL     1       1.232  -2.083  -0.021  0.00  0.00    -0.254 N 
ATOM     10  C   UNL     1       0.049  -2.951   0.084  0.00  0.00    +0.134 C 
ATOM     11  C   UNL     1       0.631  -4.377   0.023  0.00  0.00    +0.125 C 
ATOM     12  N   UNL     1       2.079  -4.161  -0.109  0.00  0.00    -0.297 N 
ATOM     13  C   UNL     1       2.328  -2.845  -0.131  0.00  0.00    +0.307 C 
ATOM     14  O   UNL     1       3.448  -2.383  -0.238  0.00  0.00    -0.252 OA
ATOM     15  H   UNL     1       2.748  -4.860  -0.173  0.00  0.00    +0.150 HD
ENDBRANCH   7   9
ENDBRANCH   1   5
BRANCH   1  16
ATOM     16  S   UNL     1       3.767   3.422   1.031  0.00  0.00    +0.072 S 
ATOM     17  O   UNL     1       5.082   3.918   0.825  0.00  0.00    -0.150 OA
ATOM     18  O   UNL     1       2.613   4.235   0.872  0.00  0.00    -0.150 OA
BRANCH  16  19
ATOM     19  C   UNL     1       3.718   2.795   2.677  0.00  0.00    +0.109 A 
ATOM     20  C   UNL     1       2.509   2.696   3.342  0.00  0.00    +0.030 A 
ATOM     21  C   UNL     1       2.467   2.205   4.633  0.00  0.00    +0.025 A 
ATOM     22  C   UNL     1       3.640   1.809   5.261  0.00  0.00    +0.037 A 
ATOM     23  C   UNL     1       4.852   1.909   4.590  0.00  0.00    -0.024 A 
ATOM     24  C   UNL     1       4.887   2.396   3.299  0.00  0.00    +0.034 A 
ATOM     25  C   UNL     1       6.124   1.479   5.273  0.00  0.00    +0.046 C 
ATOM     26  C   UNL     1       6.030   1.783   6.768  0.00  0.00    +0.101 C 
ATOM     27  C   UNL     1       4.723   1.273   7.314  0.00  0.00    +0.218 C 
ATOM     28  O   UNL     1       4.678   0.824   8.439  0.00  0.00    -0.275 OA
ATOM     29  N   UNL     1       3.604   1.310   6.567  0.00  0.00    -0.285 N 
ATOM     30  H   UNL     1       2.767   0.990   6.937  0.00  0.00    +0.155 HD
ENDBRANCH  16  19
ENDBRANCH   1  16
TORSDOF 4
