REMARK  Name = ZINC55026819
REMARK  9 active torsions:
REMARK  status: ('A' for Active; 'I' for Inactive)
REMARK    1  A    between atoms: C_1  and  C_2
REMARK    2  A    between atoms: C_2  and  C_4
REMARK    3  A    between atoms: C_2  and  N_15
REMARK    4  A    between atoms: N_6  and  C_7
REMARK    5  A    between atoms: N_6  and  C_8
REMARK    6  A    between atoms: C_8  and  C_9
REMARK    7  A    between atoms: N_11  and  C_12
REMARK    8  A    between atoms: C_23  and  O_25
REMARK    9  A    between atoms: O_25  and  C_26
REMARK                            x       y       z     vdW  Elec       q    Type
REMARK                         _______ _______ _______ _____ _____    ______ ____
ROOT
ATOM      1  C   UNL     1      -0.004   1.393   0.435  0.00  0.00    +0.038 C 
ATOM      2  C   UNL     1       0.130  -0.034  -0.100  0.00  0.00    +0.156 C 
ENDROOT
BRANCH   2   3
ATOM      3  N   UNL     1       1.022  -0.801   0.772  0.00  0.00    -0.318 N 
ATOM      4  C   UNL     1       0.766  -0.884   2.216  0.00  0.00    +0.106 C 
ATOM      5  C   UNL     1       2.101  -0.671   2.942  0.00  0.00    +0.024 C 
ATOM      6  C   UNL     1       3.052  -1.808   2.570  0.00  0.00    +0.038 C 
ATOM      7  C   UNL     1       3.129  -1.963   1.073  0.00  0.00    -0.023 A 
ATOM      8  C   UNL     1       2.132  -1.474   0.241  0.00  0.00    +0.034 A 
ATOM      9  C   UNL     1       2.227  -1.641  -1.135  0.00  0.00    +0.027 A 
ATOM     10  C   UNL     1       3.312  -2.297  -1.680  0.00  0.00    +0.047 A 
ATOM     11  C   UNL     1       4.309  -2.790  -0.851  0.00  0.00    +0.127 A 
ATOM     12  C   UNL     1       4.220  -2.615   0.524  0.00  0.00    +0.051 A 
BRANCH  11  13
ATOM     13  O   UNL     1       5.380  -3.436  -1.386  0.00  0.00    -0.434 OA
BRANCH  13  14
ATOM     14  C   UNL     1       5.413  -3.570  -2.808  0.00  0.00    +0.541 C 
ATOM     15  F   UNL     1       4.290  -4.288  -3.235  0.00  0.00    -0.166 F 
ATOM     16  F   UNL     1       5.407  -2.301  -3.397  0.00  0.00    -0.166 F 
ENDBRANCH  13  14
ENDBRANCH  11  13
ENDBRANCH   2   3
BRANCH   2  17
ATOM     17  C   UNL     1      -1.227  -0.689  -0.131  0.00  0.00    +0.236 C 
ATOM     18  O   UNL     1      -1.540  -1.476   0.737  0.00  0.00    -0.274 OA
ATOM     19  N   UNL     1      -2.093  -0.399  -1.123  0.00  0.00    -0.294 N 
ATOM     20  C   UNL     1      -1.757   0.628  -2.112  0.00  0.00    +0.132 C 
BRANCH  19  21
ATOM     21  C   UNL     1      -3.370  -1.111  -1.211  0.00  0.00    +0.203 C 
BRANCH  21  22
ATOM     22  C   UNL     1      -4.416  -0.367  -0.422  0.00  0.00    +0.231 C 
ATOM     23  O   UNL     1      -4.124   0.658   0.157  0.00  0.00    -0.274 OA
ATOM     24  N   UNL     1      -5.677  -0.840  -0.360  0.00  0.00    -0.311 N 
ATOM     25  H   UNL     1      -5.911  -1.659  -0.824  0.00  0.00    +0.149 HD
BRANCH  24  26
ATOM     26  C   UNL     1      -6.694  -0.116   0.407  0.00  0.00    +0.073 C 
ATOM     27  C   UNL     1      -7.628  -0.941   1.295  0.00  0.00    +0.024 C 
ATOM     28  C   UNL     1      -8.156  -0.313   0.003  0.00  0.00    +0.024 C 
ENDBRANCH  24  26
ENDBRANCH  21  22
ENDBRANCH  19  21
ENDBRANCH   2  17
TORSDOF 7
