REMARK  Name = ZINC63869771
REMARK  10 active torsions:
REMARK  status: ('A' for Active; 'I' for Inactive)
REMARK    1  A    between atoms: C_1  and  C_2
REMARK    2  A    between atoms: C_5  and  S_30
REMARK    3  A    between atoms: C_7  and  N_8
REMARK    4  A    between atoms: C_9  and  C_11
REMARK    5  A    between atoms: C_11  and  N_12
REMARK    6  A    between atoms: C_15  and  C_20
REMARK    7  A    between atoms: C_20  and  C_21
REMARK    8  A    between atoms: S_30  and  N_33
REMARK    9  A    between atoms: N_33  and  C_34
REMARK   10  A    between atoms: N_33  and  C_35
REMARK                            x       y       z     vdW  Elec       q    Type
REMARK                         _______ _______ _______ _____ _____    ______ ____
ROOT
ATOM      1  N   UNL     1      -0.241  -0.905   5.988  0.00  0.00    -0.216 N 
ATOM      2  C   UNL     1      -1.391  -1.419   6.470  0.00  0.00    +0.244 C 
ATOM      3  O   UNL     1      -2.516  -1.184   6.084  0.00  0.00    -0.273 OA
ATOM      4  C   UNL     1      -0.984  -2.351   7.594  0.00  0.00    +0.165 C 
ATOM      5  N   UNL     1       0.486  -2.244   7.617  0.00  0.00    -0.287 N 
ATOM      6  C   UNL     1       0.824  -1.382   6.642  0.00  0.00    +0.310 C 
ATOM      7  O   UNL     1       1.970  -1.069   6.385  0.00  0.00    -0.252 OA
ATOM      8  H   UNL     1       1.091  -2.708   8.217  0.00  0.00    +0.151 HD
ENDROOT
BRANCH   1   9
ATOM      9  C   UNL     1      -0.168   0.052   4.882  0.00  0.00    +0.214 C 
BRANCH   9  11
ATOM     10  N   UNL     1       0.025  -0.015   2.417  0.00  0.00    -0.284 N 
ATOM     11  C   UNL     1      -0.056  -0.694   3.578  0.00  0.00    +0.235 C 
ATOM     12  O   UNL     1      -0.040  -1.907   3.573  0.00  0.00    -0.274 OA
ATOM     13  H   UNL     1       0.078   0.954   2.425  0.00  0.00    +0.155 HD
BRANCH  10  20
ATOM     14  C   UNL     1      -1.264   1.184   0.181  0.00  0.00    +0.045 C 
ATOM     15  C   UNL     1      -0.584  -0.158   0.084  0.00  0.00    -0.029 A 
ATOM     16  C   UNL     1      -0.568  -0.840  -1.117  0.00  0.00    +0.007 A 
ATOM     17  C   UNL     1       0.055  -2.071  -1.206  0.00  0.00    +0.029 A 
ATOM     18  C   UNL     1       0.666  -2.622  -0.095  0.00  0.00    +0.107 A 
ATOM     19  C   UNL     1       0.655  -1.945   1.108  0.00  0.00    +0.052 A 
ATOM     20  C   UNL     1       0.034  -0.706   1.201  0.00  0.00    +0.038 A 
BRANCH  18  21
ATOM     21  S   UNL     1       1.460  -4.191  -0.214  0.00  0.00    +0.060 S 
ATOM     22  O   UNL     1       1.482  -4.736   1.098  0.00  0.00    -0.153 OA
ATOM     23  O   UNL     1       0.858  -4.868  -1.310  0.00  0.00    -0.153 OA
BRANCH  21  24
ATOM     24  N   UNL     1       3.036  -3.912  -0.638  0.00  0.00    -0.183 NA
ATOM     25  C   UNL     1       4.051  -3.721   0.401  0.00  0.00    +0.131 C 
ATOM     26  C   UNL     1       3.415  -3.856  -2.052  0.00  0.00    +0.131 C 
ENDBRANCH  21  24
ENDBRANCH  18  21
ENDBRANCH  10  20
ENDBRANCH   9  11
ENDBRANCH   1   9
BRANCH   4  27
ATOM     27  C   UNL     1      -1.418  -3.786   7.287  0.00  0.00    +0.065 C 
BRANCH  27  28
ATOM     28  C   UNL     1      -1.112  -4.667   8.470  0.00  0.00    -0.039 C 
ATOM     29  C   UNL     1      -1.958  -5.013   9.467  0.00  0.00    -0.001 A 
ATOM     30  C   UNL     1      -3.363  -4.684   9.738  0.00  0.00    +0.010 A 
ATOM     31  C   UNL     1      -3.954  -5.192  10.843  0.00  0.00    +0.001 A 
ATOM     32  C   UNL     1      -3.260  -6.023  11.735  0.00  0.00    +0.002 A 
ATOM     33  C   UNL     1      -1.968  -6.369  11.553  0.00  0.00    +0.026 A 
ATOM     34  C   UNL     1      -1.248  -5.892  10.424  0.00  0.00    +0.043 A 
ATOM     35  N   UNL     1      -0.011  -6.082  10.033  0.00  0.00    -0.380 N 
ATOM     36  C   UNL     1       0.202  -5.349   8.780  0.00  0.00    +0.144 C 
ATOM     37  H   UNL     1       0.651  -6.621  10.494  0.00  0.00    +0.160 HD
ENDBRANCH  27  28
ENDBRANCH   4  27
TORSDOF 7
