REMARK  Name = ZINC04453458
REMARK  6 active torsions:
REMARK  status: ('A' for Active; 'I' for Inactive)
REMARK    1  A    between atoms: C_1  and  C_2
REMARK    2  A    between atoms: C_2  and  C_3
REMARK    3  A    between atoms: C_3  and  C_4
REMARK    4  A    between atoms: C_11  and  N_24
REMARK    5  A    between atoms: C_12  and  C_22
REMARK    6  A    between atoms: C_13  and  C_15
REMARK                            x       y       z     vdW  Elec       q    Type
REMARK                         _______ _______ _______ _____ _____    ______ ____
ROOT
ATOM      1  C   UNL     1       0.739  -2.004  -1.265  0.00  0.00    +0.044 A 
ATOM      2  C   UNL     1      -0.234  -2.807  -1.723  0.00  0.00    +0.049 A 
ATOM      3  C   UNL     1       0.182  -4.145  -1.546  0.00  0.00    +0.245 A 
ATOM      4  N   UNL     1       1.364  -4.131  -1.002  0.00  0.00    -0.135 NA
ATOM      5  N   UNL     1       1.744  -2.792  -0.818  0.00  0.00    -0.278 N 
ATOM      6  H   UNL     1       2.580  -2.485  -0.434  0.00  0.00    +0.189 HD
ATOM      7  O   UNL     1      -0.598  -5.197  -1.914  0.00  0.00    -0.421 OA
ATOM      8  C   UNL     1      -1.889  -4.941  -2.203  0.00  0.00    +0.201 C 
ATOM      9  C   UNL     1      -2.398  -3.708  -2.405  0.00  0.00    +0.098 C 
ATOM     10  C   UNL     1      -1.566  -2.453  -2.333  0.00  0.00    +0.104 C 
ENDROOT
BRANCH  10  11
ATOM     11  C   UNL     1      -1.359  -1.901  -3.720  0.00  0.00    +0.001 A 
ATOM     12  C   UNL     1      -0.753  -2.677  -4.690  0.00  0.00    +0.007 A 
ATOM     13  C   UNL     1      -0.564  -2.171  -5.962  0.00  0.00    +0.000 A 
ATOM     14  C   UNL     1      -0.980  -0.888  -6.266  0.00  0.00    +0.003 A 
ATOM     15  C   UNL     1      -1.586  -0.110  -5.298  0.00  0.00    +0.038 A 
ATOM     16  C   UNL     1      -1.782  -0.618  -4.025  0.00  0.00    +0.127 A 
ATOM     17  F   UNL     1      -2.379   0.140  -3.079  0.00  0.00    -0.205 F 
ENDBRANCH  10  11
BRANCH   8  18
ATOM     18  N   UNL     1      -2.746  -6.009  -2.299  0.00  0.00    -0.328 N 
ATOM     19  H   UNL     1      -2.415  -6.910  -2.160  0.00  0.00    +0.145 HD
ATOM     20  H   UNL     1      -3.683  -5.863  -2.505  0.00  0.00    +0.145 HD
ENDBRANCH   8  18
BRANCH   9  21
ATOM     21  C   UNL     1      -3.794  -3.585  -2.700  0.00  0.00    +0.101 C 
ATOM     22  N   UNL     1      -4.901  -3.488  -2.935  0.00  0.00    -0.191 NA
ENDBRANCH   9  21
BRANCH   1  23
ATOM     23  C   UNL     1       0.718  -0.497  -1.257  0.00  0.00    +0.055 C 
BRANCH  23  25
ATOM     24  C   UNL     1      -0.019   1.526   0.010  0.00  0.00    +0.004 C 
ATOM     25  C   UNL     1       0.002  -0.004   0.002  0.00  0.00    +0.003 C 
ENDBRANCH  23  25
ENDBRANCH   1  23
TORSDOF 5
