REMARK  Name = ZINC14931854
REMARK  10 active torsions:
REMARK  status: ('A' for Active; 'I' for Inactive)
REMARK    1  A    between atoms: C_1  and  C_2
REMARK    2  A    between atoms: C_2  and  C_4
REMARK    3  A    between atoms: C_2  and  N_16
REMARK    4  A    between atoms: N_6  and  C_7
REMARK    5  A    between atoms: C_12  and  C_13
REMARK    6  A    between atoms: C_13  and  C_14
REMARK    7  A    between atoms: C_13  and  C_15
REMARK    8  A    between atoms: N_19  and  S_22
REMARK    9  A    between atoms: S_22  and  C_25
REMARK   10  A    between atoms: C_28  and  C_31
REMARK                            x       y       z     vdW  Elec       q    Type
REMARK                         _______ _______ _______ _____ _____    ______ ____
ROOT
ATOM      1  N   UNL     1       0.581  -0.582   1.198  0.00  0.00    +0.389 N 
ATOM      2  C   UNL     1      -0.162  -0.189   2.402  0.00  0.00    -0.060 C 
ATOM      3  C   UNL     1       0.538  -0.756   3.641  0.00  0.00    +0.091 C 
ATOM      4  N   UNL     1       0.689  -2.209   3.467  0.00  0.00    -0.180 NA
ATOM      5  C   UNL     1       1.278  -2.700   2.212  0.00  0.00    +0.091 C 
ATOM      6  C   UNL     1       0.542  -2.042   1.040  0.00  0.00    -0.060 C 
ATOM      7  H   UNL     1       1.540  -0.280   1.284  0.00  0.00    -0.081 HD
ENDROOT
BRANCH   4   8
ATOM      8  S   UNL     1       0.210  -3.263   4.652  0.00  0.00    +0.061 S 
ATOM      9  O   UNL     1       0.959  -4.455   4.463  0.00  0.00    -0.153 OA
ATOM     10  O   UNL     1       0.230  -2.536   5.873  0.00  0.00    -0.153 OA
BRANCH   8  11
ATOM     11  C   UNL     1      -1.475  -3.671   4.336  0.00  0.00    +0.105 A 
ATOM     12  C   UNL     1      -2.486  -2.905   4.886  0.00  0.00    +0.029 A 
ATOM     13  C   UNL     1      -3.808  -3.226   4.638  0.00  0.00    +0.014 A 
ATOM     14  C   UNL     1      -4.118  -4.311   3.840  0.00  0.00    +0.055 A 
ATOM     15  C   UNL     1      -3.107  -5.076   3.290  0.00  0.00    +0.014 A 
ATOM     16  C   UNL     1      -1.785  -4.753   3.534  0.00  0.00    +0.029 A 
BRANCH  14  17
ATOM     17  C   UNL     1      -5.559  -4.661   3.571  0.00  0.00    +0.417 C 
ATOM     18  F   UNL     1      -5.995  -3.990   2.423  0.00  0.00    -0.166 F 
ATOM     19  F   UNL     1      -5.675  -6.041   3.376  0.00  0.00    -0.166 F 
ATOM     20  F   UNL     1      -6.344  -4.276   4.663  0.00  0.00    -0.166 F 
ENDBRANCH  14  17
ENDBRANCH   8  11
ENDBRANCH   4   8
BRANCH   1  22
ATOM     21  C   UNL     1      -0.112   1.563   0.242  0.00  0.00    -0.004 C 
ATOM     22  C   UNL     1      -0.028   0.052   0.021  0.00  0.00    +0.017 C 
BRANCH  22  23
ATOM     23  C   UNL     1       0.817  -0.232  -1.195  0.00  0.00    +0.203 C 
ATOM     24  O   UNL     1       1.935  -0.683  -1.065  0.00  0.00    -0.277 OA
ATOM     25  N   UNL     1       0.330   0.017  -2.427  0.00  0.00    -0.287 N 
ATOM     26  H   UNL     1      -0.533   0.448  -2.529  0.00  0.00    +0.155 HD
BRANCH  25  27
ATOM     27  C   UNL     1       1.069  -0.346  -3.558  0.00  0.00    +0.037 A 
ATOM     28  C   UNL     1       2.456  -0.282  -3.533  0.00  0.00    +0.023 A 
ATOM     29  C   UNL     1       3.182  -0.642  -4.651  0.00  0.00    +0.002 A 
ATOM     30  C   UNL     1       2.530  -1.065  -5.795  0.00  0.00    +0.000 A 
ATOM     31  C   UNL     1       1.149  -1.129  -5.823  0.00  0.00    +0.006 A 
ATOM     32  C   UNL     1       0.417  -0.777  -4.706  0.00  0.00    -0.024 A 
BRANCH  32  33
ATOM     33  C   UNL     1      -1.088  -0.854  -4.735  0.00  0.00    +0.015 C 
ATOM     34  C   UNL     1      -1.618  -0.030  -5.910  0.00  0.00    +0.012 C 
ATOM     35  C   UNL     1      -1.521  -2.312  -4.899  0.00  0.00    +0.012 C 
ENDBRANCH  32  33
ENDBRANCH  25  27
ENDBRANCH  22  23
ENDBRANCH   1  22
TORSDOF 7
