REMARK  Name = ZINC35057257
REMARK  6 active torsions:
REMARK  status: ('A' for Active; 'I' for Inactive)
REMARK    1  A    between atoms: C_1  and  C_2
REMARK    2  A    between atoms: N_8  and  C_9
REMARK    3  A    between atoms: C_11  and  O_18
REMARK    4  A    between atoms: C_14  and  O_15
REMARK    5  A    between atoms: O_15  and  C_16
REMARK    6  A    between atoms: O_18  and  C_19
REMARK                            x       y       z     vdW  Elec       q    Type
REMARK                         _______ _______ _______ _____ _____    ______ ____
ROOT
ATOM      1  C   UNL     1      -0.310  -2.264   4.187  0.00  0.00    +0.112 A 
ATOM      2  C   UNL     1      -1.487  -2.863   3.739  0.00  0.00    +0.078 A 
ATOM      3  C   UNL     1      -2.255  -3.614   4.613  0.00  0.00    +0.141 A 
ATOM      4  C   UNL     1      -1.855  -3.771   5.934  0.00  0.00    +0.086 A 
ATOM      5  C   UNL     1      -0.688  -3.178   6.384  0.00  0.00    +0.071 A 
ATOM      6  C   UNL     1       0.090  -2.430   5.518  0.00  0.00    +0.147 A 
ATOM      7 CL   UNL     1      -2.823  -4.712   7.024  0.00  0.00    -0.080 Cl
ENDROOT
BRANCH   1  14
ATOM      8  C   UNL     1       0.746   2.576   1.421  0.00  0.00    +0.028 C 
ATOM      9  C   UNL     1      -0.181   1.388   1.160  0.00  0.00    +0.079 C 
ATOM     10  C   UNL     1      -1.528   1.640   1.877  0.00  0.00    +0.099 C 
ATOM     11  S   UNL     1      -1.797  -0.014   2.642  0.00  0.00    -0.089 S 
ATOM     12  C   UNL     1      -0.105  -0.587   2.591  0.00  0.00    +0.155 C 
ATOM     13  N   UNL     1       0.476   0.175   1.607  0.00  0.00    -0.320 N 
ATOM     14  N   UNL     1       0.454  -1.520   3.326  0.00  0.00    -0.223 NA
ATOM     15  H   UNL     1       1.319  -0.098   1.214  0.00  0.00    +0.148 HD
ENDBRANCH   1  14
BRANCH   6  16
ATOM     16  O   UNL     1       1.240  -1.853   5.961  0.00  0.00    -0.493 OA
ATOM     17  C   UNL     1       1.587  -2.066   7.330  0.00  0.00    +0.277 C 
ENDBRANCH   6  16
BRANCH   3  18
ATOM     18  O   UNL     1      -3.403  -4.199   4.178  0.00  0.00    -0.494 OA
ATOM     19  C   UNL     1      -3.755  -3.997   2.808  0.00  0.00    +0.277 C 
ENDBRANCH   3  18
TORSDOF 3
