REMARK  Name = ZINC50982789
REMARK  3 active torsions:
REMARK  status: ('A' for Active; 'I' for Inactive)
REMARK    1  A    between atoms: C_2  and  C_12
REMARK    2  A    between atoms: C_12  and  C_14
REMARK    3  A    between atoms: N_16  and  C_17
REMARK                            x       y       z     vdW  Elec       q    Type
REMARK                         _______ _______ _______ _____ _____    ______ ____
ROOT
ATOM      1  C   UNL     1      -0.017   1.383   0.010  0.00  0.00    +0.055 A 
ATOM      2  C   UNL     1       1.170   2.092   0.002  0.00  0.00    -0.016 A 
ATOM      3  C   UNL     1       2.378   1.421  -0.013  0.00  0.00    +0.024 A 
ATOM      4  C   UNL     1       2.405   0.038  -0.023  0.00  0.00    +0.063 A 
ATOM      5  C   UNL     1       1.217  -0.679  -0.016  0.00  0.00    +0.176 A 
ATOM      6  C   UNL     1       0.002  -0.004   0.002  0.00  0.00    +0.163 A 
ATOM      7  O   UNL     1      -1.174  -0.688   0.017  0.00  0.00    -0.485 OA
ATOM      8  C   UNL     1      -1.122  -2.066  -0.368  0.00  0.00    +0.270 C 
ATOM      9  C   UNL     1       0.061  -2.723   0.356  0.00  0.00    +0.270 C 
ATOM     10  O   UNL     1       1.258  -2.039  -0.029  0.00  0.00    -0.484 OA
ATOM     11 BR   UNL     1       4.060  -0.875  -0.046  0.00  0.00    -0.046 Br
ENDROOT
BRANCH   2  12
ATOM     12  C   UNL     1       1.146   3.599   0.010  0.00  0.00    +0.196 C 
ATOM     13 CL   UNL     1       2.098   4.223  -1.388  0.00  0.00    -0.107 Cl
BRANCH  12  14
ATOM     14  C   UNL     1       1.750   4.104   1.295  0.00  0.00    +0.235 C 
ATOM     15  O   UNL     1       2.781   3.620   1.711  0.00  0.00    -0.274 OA
ATOM     16  N   UNL     1       1.145   5.093   1.981  0.00  0.00    -0.311 N 
ATOM     17  H   UNL     1       0.320   5.480   1.648  0.00  0.00    +0.149 HD
BRANCH  16  18
ATOM     18  C   UNL     1       1.732   5.584   3.230  0.00  0.00    +0.073 C 
ATOM     19  C   UNL     1       1.224   4.743   4.420  0.00  0.00    +0.022 C 
ATOM     20  C   UNL     1       1.057   5.771   5.567  0.00  0.00    +0.002 C 
ATOM     21  C   UNL     1       0.516   7.021   4.830  0.00  0.00    +0.002 C 
ATOM     22  C   UNL     1       1.282   7.032   3.491  0.00  0.00    +0.022 C 
ENDBRANCH  16  18
ENDBRANCH  12  14
ENDBRANCH   2  12
TORSDOF 3
