REMARK  Name = ZINC39197400
REMARK  15 active torsions:
REMARK  status: ('A' for Active; 'I' for Inactive)
REMARK    1  A    between atoms: C_1  and  C_2
REMARK    2  A    between atoms: C_2  and  C_3
REMARK    3  A    between atoms: C_8  and  N_9
REMARK    4  A    between atoms: C_10  and  C_30
REMARK    5  A    between atoms: C_12  and  C_14
REMARK    6  A    between atoms: N_16  and  C_17
REMARK    7  A    between atoms: C_17  and  C_19
REMARK    8  A    between atoms: C_17  and  C_20
REMARK    9  A    between atoms: N_22  and  C_23
REMARK   10  A    between atoms: C_23  and  C_24
REMARK   11  A    between atoms: C_27  and  C_29
REMARK   12  A    between atoms: C_33  and  C_36
REMARK   13  A    between atoms: C_36  and  C_37
REMARK   14  A    between atoms: C_36  and  C_38
REMARK   15  A    between atoms: C_36  and  C_39
REMARK                            x       y       z     vdW  Elec       q    Type
REMARK                         _______ _______ _______ _____ _____    ______ ____
ROOT
ATOM      1  N   UNL     1      -1.621  -0.433  -2.517  0.00  0.00    -0.231 N 
ATOM      2  C   UNL     1      -2.394  -0.149  -3.607  0.00  0.00    +0.075 A 
ATOM      3  C   UNL     1      -1.592   0.504  -4.500  0.00  0.00    +0.063 A 
ATOM      4  C   UNL     1      -0.326   0.584  -3.881  0.00  0.00    +0.148 A 
ATOM      5  N   UNL     1      -0.428   0.008  -2.699  0.00  0.00    -0.161 NA
ENDROOT
BRANCH   1  11
ATOM      6  C   UNL     1      -1.960  -0.490  -0.125  0.00  0.00    -0.022 A 
ATOM      7  C   UNL     1      -2.404  -1.149   1.005  0.00  0.00    +0.006 A 
ATOM      8  C   UNL     1      -2.946  -2.417   0.900  0.00  0.00    +0.000 A 
ATOM      9  C   UNL     1      -3.046  -3.029  -0.336  0.00  0.00    +0.002 A 
ATOM     10  C   UNL     1      -2.604  -2.376  -1.469  0.00  0.00    +0.028 A 
ATOM     11  C   UNL     1      -2.064  -1.100  -1.368  0.00  0.00    +0.069 A 
BRANCH   6  13
ATOM     12  C   UNL     1      -2.431   1.932  -0.375  0.00  0.00    +0.009 C 
ATOM     13  C   UNL     1      -1.370   0.892  -0.010  0.00  0.00    +0.034 C 
ENDBRANCH   6  13
ENDBRANCH   1  11
BRANCH   2  14
ATOM     14  C   UNL     1      -3.825  -0.484  -3.785  0.00  0.00    +0.000 A 
ATOM     15  C   UNL     1      -4.636  -0.706  -2.672  0.00  0.00    +0.010 A 
ATOM     16  C   UNL     1      -5.969  -1.018  -2.846  0.00  0.00    +0.005 A 
ATOM     17  C   UNL     1      -6.501  -1.111  -4.120  0.00  0.00    -0.042 A 
ATOM     18  C   UNL     1      -5.701  -0.891  -5.227  0.00  0.00    +0.005 A 
ATOM     19  C   UNL     1      -4.368  -0.574  -5.067  0.00  0.00    +0.010 A 
BRANCH  17  20
ATOM     20  C   UNL     1      -7.957  -1.452  -4.301  0.00  0.00    -0.013 C 
ATOM     21  C   UNL     1      -8.820  -0.391  -3.615  0.00  0.00    +0.015 C 
ATOM     22  C   UNL     1      -8.289  -1.492  -5.794  0.00  0.00    +0.015 C 
ATOM     23  C   UNL     1      -8.242  -2.821  -3.679  0.00  0.00    +0.015 C 
ENDBRANCH  17  20
ENDBRANCH   2  14
BRANCH   4  24
ATOM     24  C   UNL     1       0.888   1.205  -4.449  0.00  0.00    +0.265 C 
ATOM     25  O   UNL     1       0.851   1.712  -5.554  0.00  0.00    -0.268 OA
ATOM     26  N   UNL     1       2.036   1.210  -3.743  0.00  0.00    -0.299 N 
ATOM     27  H   UNL     1       2.065   0.806  -2.862  0.00  0.00    +0.150 HD
BRANCH  26  28
ATOM     28  C   UNL     1       3.240   1.826  -4.307  0.00  0.00    +0.156 C 
ATOM     29  C   UNL     1       3.227   3.329  -4.018  0.00  0.00    +0.038 C 
BRANCH  28  30
ATOM     30  C   UNL     1       4.462   1.205  -3.681  0.00  0.00    +0.233 C 
ATOM     31  O   UNL     1       4.339   0.334  -2.847  0.00  0.00    -0.274 OA
ATOM     32  N   UNL     1       5.691   1.618  -4.049  0.00  0.00    -0.307 N 
ATOM     33  H   UNL     1       5.789   2.315  -4.717  0.00  0.00    +0.149 HD
BRANCH  32  34
ATOM     34  C   UNL     1       6.879   1.014  -3.441  0.00  0.00    +0.178 C 
BRANCH  34  35
ATOM     35  C   UNL     1       8.117   1.647  -4.021  0.00  0.00    +0.122 A 
ATOM     36  C   UNL     1       8.748   2.731  -3.534  0.00  0.00    +0.046 A 
ATOM     37  C   UNL     1       9.854   2.976  -4.380  0.00  0.00    +0.045 A 
ATOM     38  C   UNL     1       9.832   2.028  -5.334  0.00  0.00    +0.102 A 
ATOM     39  O   UNL     1       8.781   1.222  -5.108  0.00  0.00    -0.463 OA
ATOM     40  C   UNL     1      10.822   1.890  -6.462  0.00  0.00    +0.086 C 
ENDBRANCH  34  35
ENDBRANCH  32  34
ENDBRANCH  28  30
ENDBRANCH  26  28
ENDBRANCH   4  24
TORSDOF 9
