REMARK  Name = ZINC06321058
REMARK  15 active torsions:
REMARK  status: ('A' for Active; 'I' for Inactive)
REMARK    1  A    between atoms: C_1  and  C_2
REMARK    2  A    between atoms: C_6  and  C_15
REMARK    3  A    between atoms: C_13  and  C_14
REMARK    4  A    between atoms: C_15  and  C_17
REMARK    5  A    between atoms: C_15  and  N_71
REMARK    6  A    between atoms: N_21  and  C_22
REMARK    7  A    between atoms: C_22  and  C_23
REMARK    8  A    between atoms: C_23  and  O_24
REMARK    9  A    between atoms: O_24  and  C_25
REMARK   10  A    between atoms: C_26  and  C_27
REMARK   11  A    between atoms: C_26  and  N_71
REMARK   12  A    between atoms: C_30  and  O_33
REMARK   13  A    between atoms: O_33  and  C_34
REMARK   14  A    between atoms: C_35  and  C_36
REMARK   15  A    between atoms: C_35  and  N_71
REMARK                            x       y       z     vdW  Elec       q    Type
REMARK                         _______ _______ _______ _____ _____    ______ ____
ROOT
ATOM      1  C   UNL     1      -5.032   3.809   0.914  0.00  0.00    +0.040 C 
ENDROOT
BRANCH   1   7
ATOM      2  C   UNL     1       1.718   1.268  -0.982  0.00  0.00    +0.044 C 
ATOM      3  C   UNL     1       0.805   1.980  -0.017  0.00  0.00    -0.047 A 
ATOM      4  C   UNL     1      -0.519   2.127  -0.321  0.00  0.00    +0.013 A 
ATOM      5  C   UNL     1      -1.367   2.788   0.574  0.00  0.00    -0.001 A 
ATOM      6  C   UNL     1      -2.790   2.963   0.280  0.00  0.00    +0.017 A 
ATOM      7  C   UNL     1      -3.563   3.611   1.186  0.00  0.00    +0.011 A 
ATOM      8  C   UNL     1      -2.998   4.102   2.382  0.00  0.00    +0.251 A 
ATOM      9  O   UNL     1      -3.711   4.682   3.183  0.00  0.00    -0.268 OA
ATOM     10  N   UNL     1      -1.692   3.945   2.661  0.00  0.00    -0.322 N 
ATOM     11  H   UNL     1      -1.335   4.295   3.493  0.00  0.00    +0.169 HD
ATOM     12  C   UNL     1      -0.853   3.290   1.785  0.00  0.00    +0.049 A 
ATOM     13  C   UNL     1       0.499   3.132   2.071  0.00  0.00    +0.030 A 
ATOM     14  C   UNL     1       1.316   2.479   1.173  0.00  0.00    -0.046 A 
ATOM     15  C   UNL     1       2.779   2.304   1.488  0.00  0.00    +0.044 C 
ENDBRANCH   1   7
BRANCH   1  16
ATOM     16  C   UNL     1      -5.382   3.204  -0.421  0.00  0.00    +0.143 A 
ATOM     17  N   UNL     1      -5.616   1.938  -0.669  0.00  0.00    -0.115 NA
ATOM     18  N   UNL     1      -5.881   1.821  -1.924  0.00  0.00    -0.023 NA
ATOM     19  N   UNL     1      -5.815   2.978  -2.485  0.00  0.00    -0.044 NA
ATOM     20  N   UNL     1      -5.510   3.856  -1.591  0.00  0.00    -0.228 N 
BRANCH  20  21
ATOM     21  C   UNL     1      -5.334   5.295  -1.809  0.00  0.00    +0.175 C 
BRANCH  21  22
ATOM     22  C   UNL     1      -3.861   5.591  -2.092  0.00  0.00    +0.183 C 
BRANCH  22  23
ATOM     23  O   UNL     1      -3.690   6.994  -2.305  0.00  0.00    -0.381 OA
ATOM     24  C   UNL     1      -2.341   7.381  -2.579  0.00  0.00    +0.194 C 
ENDBRANCH  22  23
ENDBRANCH  21  22
ENDBRANCH  20  21
ENDBRANCH   1  16
BRANCH   1  25
ATOM     25  N   UNL     1      -5.811   3.169   1.994  0.00  0.00    +0.397 N 
ATOM     26  H   UNL     1      -5.564   3.607   2.889  0.00  0.00    -0.079 HD
BRANCH  25  27
ATOM     27  C   UNL     1      -7.258   3.354   1.752  0.00  0.00    -0.041 C 
BRANCH  27  28
ATOM     28  C   UNL     1      -7.626   4.776   2.090  0.00  0.00    -0.064 A 
ATOM     29  C   UNL     1      -7.893   5.127   3.400  0.00  0.00    +0.005 A 
ATOM     30  C   UNL     1      -8.226   6.431   3.713  0.00  0.00    +0.046 A 
ATOM     31  C   UNL     1      -8.302   7.386   2.709  0.00  0.00    +0.120 A 
ATOM     32  C   UNL     1      -8.039   7.029   1.394  0.00  0.00    +0.046 A 
ATOM     33  C   UNL     1      -7.702   5.726   1.088  0.00  0.00    +0.005 A 
BRANCH  31  34
ATOM     34  O   UNL     1      -8.634   8.668   3.014  0.00  0.00    -0.495 OA
ATOM     35  C   UNL     1      -8.783   8.988   4.398  0.00  0.00    +0.277 C 
ENDBRANCH  31  34
ENDBRANCH  27  28
ENDBRANCH  25  27
BRANCH  25  36
ATOM     36  C   UNL     1      -5.491   1.727   2.061  0.00  0.00    -0.001 C 
BRANCH  36  37
ATOM     37  C   UNL     1      -5.966   1.187   3.385  0.00  0.00    +0.089 A 
ATOM     38  C   UNL     1      -7.135   0.559   3.605  0.00  0.00    +0.042 A 
ATOM     39  C   UNL     1      -7.170   0.225   4.978  0.00  0.00    +0.041 A 
ATOM     40  C   UNL     1      -6.020   0.670   5.516  0.00  0.00    +0.195 A 
ATOM     41  O   UNL     1      -5.292   1.247   4.545  0.00  0.00    -0.470 OA
ENDBRANCH  36  37
ENDBRANCH  25  36
ENDBRANCH   1  25
TORSDOF 11
