REMARK  Name = ZINC21660827
REMARK  5 active torsions:
REMARK  status: ('A' for Active; 'I' for Inactive)
REMARK    1  A    between atoms: C_1  and  C_2
REMARK    2  A    between atoms: N_15  and  C_16
REMARK    3  A    between atoms: C_21  and  C_23
REMARK    4  A    between atoms: C_26  and  O_30
REMARK    5  A    between atoms: O_30  and  C_31
REMARK                            x       y       z     vdW  Elec       q    Type
REMARK                         _______ _______ _______ _____ _____    ______ ____
ROOT
ATOM      1  C   UNL     1      -2.557   5.247  -2.876  0.00  0.00    +0.068 C 
ATOM      2  C   UNL     1      -3.378   4.063  -2.432  0.00  0.00    +0.066 A 
ATOM      3  C   UNL     1      -3.361   3.490  -1.168  0.00  0.00    +0.023 A 
ATOM      4  C   UNL     1      -4.247   2.446  -1.165  0.00  0.00    +0.136 A 
ATOM      5  N   UNL     1      -4.791   2.369  -2.400  0.00  0.00    -0.185 N 
ATOM      6  N   UNL     1      -4.231   3.398  -3.175  0.00  0.00    -0.167 NA
ATOM      7  C   UNL     1      -5.732   1.441  -2.826  0.00  0.00    +0.234 A 
ATOM      8  N   UNL     1      -6.234   0.487  -2.085  0.00  0.00    -0.211 NA
ATOM      9  C   UNL     1      -7.127  -0.234  -2.812  0.00  0.00    +0.091 A 
ATOM     10  C   UNL     1      -7.936  -1.336  -2.522  0.00  0.00    +0.030 A 
ATOM     11  C   UNL     1      -8.753  -1.860  -3.498  0.00  0.00    +0.002 A 
ATOM     12  C   UNL     1      -8.780  -1.302  -4.768  0.00  0.00    +0.002 A 
ATOM     13  C   UNL     1      -7.988  -0.214  -5.071  0.00  0.00    +0.028 A 
ATOM     14  C   UNL     1      -7.158   0.327  -4.100  0.00  0.00    +0.070 A 
ATOM     15  N   UNL     1      -6.267   1.385  -4.080  0.00  0.00    -0.311 N 
ATOM     16  C   UNL     1      -5.954   2.278  -5.198  0.00  0.00    +0.152 C 
ATOM     17  N   UNL     1      -4.477   1.677  -0.026  0.00  0.00    -0.270 N 
ATOM     18  C   UNL     1      -3.957   2.104   1.144  0.00  0.00    +0.219 C 
ATOM     19  O   UNL     1      -3.981   1.362   2.103  0.00  0.00    -0.275 OA
ATOM     20  C   UNL     1      -3.349   3.471   1.296  0.00  0.00    +0.109 C 
ATOM     21  C   UNL     1      -2.554   3.866   0.048  0.00  0.00    +0.063 C 
ATOM     22  H   UNL     1      -5.066   0.751  -0.098  0.00  0.00    +0.156 HD
ENDROOT
BRANCH  21  23
ATOM     23  C   UNL     1      -1.238   3.133   0.031  0.00  0.00    -0.038 A 
ATOM     24  C   UNL     1      -1.218   1.751   0.017  0.00  0.00    +0.008 A 
ATOM     25  C   UNL     1      -0.013   1.076   0.008  0.00  0.00    +0.047 A 
ATOM     26  C   UNL     1       1.179   1.786   0.000  0.00  0.00    +0.134 A 
ATOM     27  C   UNL     1       1.157   3.174   0.008  0.00  0.00    +0.060 A 
ATOM     28  C   UNL     1      -0.052   3.844   0.023  0.00  0.00    +0.023 A 
ATOM     29 BR   UNL     1       2.778   4.147  -0.003  0.00  0.00    -0.047 Br
BRANCH  26  30
ATOM     30  O   UNL     1       2.366   1.124  -0.015  0.00  0.00    -0.494 OA
ATOM     31  C   UNL     1       2.313  -0.304  -0.023  0.00  0.00    +0.277 C 
ENDBRANCH  26  30
ENDBRANCH  21  23
TORSDOF 2
