REMARK  Name = ZINC28156916
REMARK  5 active torsions:
REMARK  status: ('A' for Active; 'I' for Inactive)
REMARK    1  A    between atoms: C_4  and  C_7
REMARK    2  A    between atoms: C_10  and  C_33
REMARK    3  A    between atoms: C_17  and  C_20
REMARK    4  A    between atoms: C_20  and  C_21
REMARK    5  A    between atoms: N_23  and  C_24
REMARK                            x       y       z     vdW  Elec       q    Type
REMARK                         _______ _______ _______ _____ _____    ______ ____
ROOT
ATOM      1  C   UNL     1       1.395  -0.435  -0.004  0.00  0.00    +0.136 C 
ATOM      2  C   UNL     1       2.197   0.881   0.003  0.00  0.00    +0.087 C 
ATOM      3  C   UNL     1       1.134   1.956   0.025  0.00  0.00    +0.069 C 
ATOM      4  N   UNL     1      -0.032   1.408   0.030  0.00  0.00    -0.182 NA
ATOM      5  N   UNL     1      -0.006   0.015   0.014  0.00  0.00    -0.195 N 
ATOM      6  C   UNL     1      -1.102  -0.800   0.015  0.00  0.00    +0.170 C 
ATOM      7  N   UNL     1      -1.137  -2.126   0.002  0.00  0.00    -0.157 NA
ATOM      8  C   UNL     1      -2.234  -2.833   0.005  0.00  0.00    +0.252 C 
ATOM      9  O   UNL     1      -2.224  -4.049  -0.009  0.00  0.00    -0.272 OA
ATOM     10  C   UNL     1      -3.528  -2.029   0.025  0.00  0.00    +0.150 C 
ATOM     11  S   UNL     1      -2.827  -0.330   0.044  0.00  0.00    -0.078 S 
ENDROOT
BRANCH   3  12
ATOM     12  C   UNL     1       1.392   3.407   0.039  0.00  0.00    -0.002 A 
ATOM     13  C   UNL     1       2.705   3.886   0.037  0.00  0.00    +0.012 A 
ATOM     14  C   UNL     1       2.939   5.245   0.046  0.00  0.00    +0.039 A 
ATOM     15  C   UNL     1       1.877   6.135   0.067  0.00  0.00    +0.123 A 
ATOM     16  C   UNL     1       0.573   5.665   0.073  0.00  0.00    +0.039 A 
ATOM     17  C   UNL     1       0.325   4.309   0.059  0.00  0.00    +0.012 A 
ATOM     18  F   UNL     1       2.113   7.465   0.080  0.00  0.00    -0.205 F 
ENDBRANCH   3  12
BRANCH   1  22
ATOM     19  C   UNL     1       2.208  -2.674  -3.551  0.00  0.00    +0.000 A 
ATOM     20  C   UNL     1       2.765  -3.061  -2.346  0.00  0.00    +0.000 A 
ATOM     21  C   UNL     1       2.502  -2.337  -1.198  0.00  0.00    +0.005 A 
ATOM     22  C   UNL     1       1.682  -1.225  -1.256  0.00  0.00    -0.025 A 
ATOM     23  C   UNL     1       1.121  -0.841  -2.459  0.00  0.00    +0.005 A 
ATOM     24  C   UNL     1       1.389  -1.562  -3.608  0.00  0.00    +0.000 A 
ENDBRANCH   1  22
BRANCH  10  25
ATOM     25  C   UNL     1      -4.363  -2.282  -1.232  0.00  0.00    +0.120 C 
BRANCH  25  26
ATOM     26  C   UNL     1      -5.683  -1.565  -1.111  0.00  0.00    +0.219 C 
ATOM     27  O   UNL     1      -5.932  -0.916  -0.117  0.00  0.00    -0.275 OA
ATOM     28  N   UNL     1      -6.587  -1.645  -2.107  0.00  0.00    -0.285 N 
ATOM     29  H   UNL     1      -6.332  -2.170  -3.040  0.00  0.00    +0.155 HD
BRANCH  28  30
ATOM     30  C   UNL     1      -7.851  -1.060  -1.955  0.00  0.00    +0.037 A 
ATOM     31  C   UNL     1      -8.967  -1.662  -2.520  0.00  0.00    +0.027 A 
ATOM     32  C   UNL     1     -10.215  -1.089  -2.367  0.00  0.00    +0.051 A 
ATOM     33  C   UNL     1     -10.354   0.094  -1.658  0.00  0.00    +0.166 A 
ATOM     34  C   UNL     1      -9.236   0.703  -1.095  0.00  0.00    +0.168 A 
ATOM     35  C   UNL     1      -7.986   0.125  -1.245  0.00  0.00    +0.072 A 
ATOM     36  O   UNL     1      -9.634   1.842  -0.457  0.00  0.00    -0.453 OA
ATOM     37  C   UNL     1     -10.942   2.139  -0.981  0.00  0.00    +0.466 C 
ATOM     38  O   UNL     1     -11.454   0.852  -1.372  0.00  0.00    -0.453 OA
ENDBRANCH  28  30
ENDBRANCH  25  26
ENDBRANCH  10  25
TORSDOF 5
