REMARK  Name = ZINC36546480
REMARK  9 active torsions:
REMARK  status: ('A' for Active; 'I' for Inactive)
REMARK    1  A    between atoms: C_1  and  C_2
REMARK    2  A    between atoms: C_2  and  C_3
REMARK    3  A    between atoms: C_2  and  C_4
REMARK    4  A    between atoms: C_2  and  N_5
REMARK    5  A    between atoms: C_6  and  C_8
REMARK    6  A    between atoms: C_8  and  C_10
REMARK    7  A    between atoms: C_8  and  N_16
REMARK    8  A    between atoms: N_16  and  C_17
REMARK    9  A    between atoms: C_24  and  C_26
REMARK                            x       y       z     vdW  Elec       q    Type
REMARK                         _______ _______ _______ _____ _____    ______ ____
ROOT
ATOM      1  N   UNL     1       4.020  -0.301  -2.431  0.00  0.00    -0.254 N 
ATOM      2  C   UNL     1       4.708   0.015  -3.546  0.00  0.00    +0.252 C 
ATOM      3  O   UNL     1       4.113   0.262  -4.578  0.00  0.00    -0.270 OA
ENDROOT
BRANCH   1   4
ATOM      4  C   UNL     1       4.693  -0.453  -1.214  0.00  0.00    +0.056 A 
ATOM      5  C   UNL     1       4.930  -1.723  -0.705  0.00  0.00    +0.025 A 
ATOM      6  C   UNL     1       5.595  -1.870   0.497  0.00  0.00    +0.002 A 
ATOM      7  C   UNL     1       6.023  -0.755   1.194  0.00  0.00    +0.002 A 
ATOM      8  C   UNL     1       5.788   0.511   0.691  0.00  0.00    +0.022 A 
ATOM      9  C   UNL     1       5.130   0.665  -0.515  0.00  0.00    +0.062 A 
ATOM     10 CL   UNL     1       4.842   2.255  -1.150  0.00  0.00    -0.082 Cl
ENDBRANCH   1   4
BRANCH   2  11
ATOM     11  C   UNL     1       6.185   0.061  -3.515  0.00  0.00    +0.037 A 
ATOM     12  C   UNL     1       6.901  -0.890  -2.787  0.00  0.00    +0.013 A 
ATOM     13  C   UNL     1       8.279  -0.841  -2.762  0.00  0.00    +0.001 A 
ATOM     14  C   UNL     1       8.952   0.148  -3.458  0.00  0.00    +0.000 A 
ATOM     15  C   UNL     1       8.248   1.094  -4.181  0.00  0.00    +0.001 A 
ATOM     16  C   UNL     1       6.870   1.053  -4.219  0.00  0.00    +0.013 A 
ENDBRANCH   2  11
BRANCH   1  17
ATOM     17  C   UNL     1       2.568  -0.484  -2.493  0.00  0.00    +0.170 C 
BRANCH  17  18
ATOM     18  C   UNL     1       2.223  -1.940  -2.174  0.00  0.00    +0.019 C 
ATOM     19  C   UNL     1       2.885  -2.858  -3.203  0.00  0.00    +0.006 C 
ATOM     20  C   UNL     1       2.541  -4.315  -2.884  0.00  0.00    +0.000 C 
ATOM     21  C   UNL     1       1.023  -4.503  -2.934  0.00  0.00    +0.000 C 
ATOM     22  C   UNL     1       0.361  -3.584  -1.904  0.00  0.00    +0.000 C 
ATOM     23  C   UNL     1       0.706  -2.128  -2.224  0.00  0.00    +0.006 C 
ENDBRANCH  17  18
BRANCH  17  25
ATOM     24  N   UNL     1       0.691   0.947  -1.753  0.00  0.00    -0.309 N 
ATOM     25  C   UNL     1       1.903   0.421  -1.488  0.00  0.00    +0.235 C 
ATOM     26  O   UNL     1       2.460   0.677  -0.442  0.00  0.00    -0.274 OA
ATOM     27  H   UNL     1       0.278   0.803  -2.619  0.00  0.00    +0.149 HD
BRANCH  24  29
ATOM     28  C   UNL     1       0.851   2.949  -0.357  0.00  0.00    +0.031 C 
ATOM     29  C   UNL     1      -0.004   1.736  -0.733  0.00  0.00    +0.026 C 
ATOM     30  C   UNL     1      -0.238   0.873   0.508  0.00  0.00    +0.031 C 
ATOM     31  C   UNL     1      -1.349   2.212  -1.285  0.00  0.00    +0.031 C 
ENDBRANCH  24  29
ENDBRANCH  17  25
ENDBRANCH   1  17
TORSDOF 6
