REMARK  Name = ZINC35747085
REMARK  15 active torsions:
REMARK  status: ('A' for Active; 'I' for Inactive)
REMARK    1  A    between atoms: C_1  and  C_2
REMARK    2  A    between atoms: C_8  and  C_19
REMARK    3  A    between atoms: C_12  and  C_13
REMARK    4  A    between atoms: C_13  and  O_15
REMARK    5  A    between atoms: O_15  and  C_16
REMARK    6  A    between atoms: C_16  and  C_17
REMARK    7  A    between atoms: C_19  and  N_20
REMARK    8  A    between atoms: N_20  and  C_21
REMARK    9  A    between atoms: N_20  and  C_33
REMARK   10  A    between atoms: C_21  and  C_22
REMARK   11  A    between atoms: C_22  and  C_24
REMARK   12  A    between atoms: C_22  and  O_32
REMARK   13  A    between atoms: C_24  and  O_25
REMARK   14  A    between atoms: O_25  and  C_26
REMARK   15  A    between atoms: C_26  and  C_27
REMARK                            x       y       z     vdW  Elec       q    Type
REMARK                         _______ _______ _______ _____ _____    ______ ____
ROOT
ATOM      1  N   UNL     1       0.038  -4.704  -4.117  0.00  0.00    +0.388 N 
ATOM      2  H   UNL     1       0.695  -4.921  -3.382  0.00  0.00    -0.081 HD
ENDROOT
BRANCH   1   3
ATOM      3  C   UNL     1      -1.320  -5.053  -3.678  0.00  0.00    -0.068 C 
ATOM      4  C   UNL     1      -1.681  -4.234  -2.438  0.00  0.00    -0.015 C 
ATOM      5  C   UNL     1      -3.096  -4.597  -1.981  0.00  0.00    -0.002 C 
ATOM      6  C   UNL     1      -4.089  -4.290  -3.103  0.00  0.00    -0.000 C 
ATOM      7  C   UNL     1      -3.727  -5.109  -4.343  0.00  0.00    -0.002 C 
ATOM      8  C   UNL     1      -2.313  -4.745  -4.800  0.00  0.00    -0.015 C 
ENDBRANCH   1   3
BRANCH   1   9
ATOM      9  C   UNL     1       0.101  -3.268  -4.420  0.00  0.00    -0.003 C 
BRANCH   9  17
ATOM     10  C   UNL     1       0.975   0.912   0.682  0.00  0.00    +0.046 C 
ATOM     11  C   UNL     1       0.991  -0.580   0.470  0.00  0.00    -0.015 A 
ATOM     12  C   UNL     1       0.753  -1.110  -0.800  0.00  0.00    +0.076 A 
ATOM     13  C   UNL     1       0.467  -0.403  -2.069  0.00  0.00    +0.260 A 
ATOM     14  O   UNL     1       0.412   0.813  -2.109  0.00  0.00    -0.267 OA
ATOM     15  N   UNL     1       0.270  -1.141  -3.180  0.00  0.00    -0.312 N 
ATOM     16  H   UNL     1       0.082  -0.694  -4.020  0.00  0.00    +0.170 HD
ATOM     17  C   UNL     1       0.330  -2.495  -3.147  0.00  0.00    +0.094 A 
ATOM     18  N   UNL     1       0.579  -3.148  -2.045  0.00  0.00    -0.229 NA
ATOM     19  C   UNL     1       0.788  -2.520  -0.896  0.00  0.00    +0.116 A 
ATOM     20  S   UNL     1       1.146  -3.033   0.766  0.00  0.00    -0.062 S 
ATOM     21  C   UNL     1       1.243  -1.417   1.519  0.00  0.00    +0.102 A 
BRANCH  21  22
ATOM     22  C   UNL     1       1.521  -1.075   2.915  0.00  0.00    +0.347 C 
ATOM     23  O   UNL     1       1.546   0.090   3.262  0.00  0.00    -0.244 OA
BRANCH  22  24
ATOM     24  O   UNL     1       1.748  -2.052   3.817  0.00  0.00    -0.457 OA
BRANCH  24  25
ATOM     25  C   UNL     1       2.012  -1.646   5.161  0.00  0.00    +0.259 C 
BRANCH  25  26
ATOM     26  C   UNL     1       2.240  -2.864   6.019  0.00  0.00    +0.006 C 
ATOM     27  C   UNL     1       3.238  -2.891   6.867  0.00  0.00    +0.007 C 
ENDBRANCH  25  26
ENDBRANCH  24  25
ENDBRANCH  22  24
ENDBRANCH  21  22
ENDBRANCH   9  17
ENDBRANCH   1   9
BRANCH   1  28
ATOM     28  C   UNL     1       0.377  -5.474  -5.321  0.00  0.00    -0.044 C 
BRANCH  28  29
ATOM     29  C   UNL     1       0.458  -6.961  -4.969  0.00  0.00    +0.124 C 
BRANCH  29  30
ATOM     30  O   UNL     1       1.470  -7.162  -3.981  0.00  0.00    -0.391 OA
ATOM     31  H   UNL     1       2.354  -6.887  -4.261  0.00  0.00    +0.210 HD
ENDBRANCH  29  30
BRANCH  29  32
ATOM     32  C   UNL     1       0.804  -7.764  -6.224  0.00  0.00    +0.189 C 
BRANCH  32  33
ATOM     33  O   UNL     1       0.766  -9.160  -5.923  0.00  0.00    -0.370 OA
BRANCH  33  34
ATOM     34  C   UNL     1       1.076 -10.004  -7.034  0.00  0.00    +0.234 C 
BRANCH  34  35
ATOM     35  C   UNL     1       1.006 -11.447  -6.604  0.00  0.00    +0.130 A 
ATOM     36  C   UNL     1      -0.085 -12.231  -6.657  0.00  0.00    +0.047 A 
ATOM     37  C   UNL     1       0.296 -13.498  -6.159  0.00  0.00    +0.041 A 
ATOM     38  C   UNL     1       1.598 -13.412  -5.831  0.00  0.00    +0.195 A 
ATOM     39  O   UNL     1       2.024 -12.169  -6.108  0.00  0.00    -0.465 OA
ENDBRANCH  34  35
ENDBRANCH  33  34
ENDBRANCH  32  33
ENDBRANCH  29  32
ENDBRANCH  28  29
ENDBRANCH   1  28
TORSDOF 14
