REMARK  Name = ZINC15034562
REMARK  9 active torsions:
REMARK  status: ('A' for Active; 'I' for Inactive)
REMARK    1  A    between atoms: C_1  and  C_2
REMARK    2  A    between atoms: C_5  and  N_8
REMARK    3  A    between atoms: C_9  and  C_11
REMARK    4  A    between atoms: C_11  and  O_12
REMARK    5  A    between atoms: O_12  and  C_13
REMARK    6  A    between atoms: C_18  and  C_19
REMARK    7  A    between atoms: N_23  and  C_27
REMARK    8  A    between atoms: C_27  and  C_29
REMARK    9  A    between atoms: C_27  and  C_30
REMARK                            x       y       z     vdW  Elec       q    Type
REMARK                         _______ _______ _______ _____ _____    ______ ____
ROOT
ATOM      1  C   UNL     1       0.758  -8.213   2.632  0.00  0.00    +0.128 A 
ATOM      2  C   UNL     1       0.861  -9.068   1.546  0.00  0.00    +0.048 A 
ATOM      3  C   UNL     1       0.939 -10.433   1.744  0.00  0.00    +0.023 A 
ATOM      4  C   UNL     1       0.915 -10.960   3.026  0.00  0.00    +0.042 A 
ATOM      5  C   UNL     1       0.812 -10.126   4.119  0.00  0.00    +0.031 A 
ATOM      6  C   UNL     1       0.738  -8.741   3.933  0.00  0.00    +0.019 A 
ATOM      7 CL   UNL     1       1.014 -12.678   3.256  0.00  0.00    -0.084 Cl
ENDROOT
BRANCH   6   8
ATOM      8  C   UNL     1       0.635  -7.845   5.092  0.00  0.00    +0.032 C 
ATOM      9  C   UNL     1       0.232  -8.332   6.293  0.00  0.00    +0.077 C 
ATOM     10  C   UNL     1       0.215  -7.679   7.617  0.00  0.00    +0.259 C 
ATOM     11  O   UNL     1       0.598  -6.533   7.769  0.00  0.00    -0.269 OA
ATOM     12  N   UNL     1      -0.236  -8.400   8.629  0.00  0.00    -0.241 N 
ATOM     13  C   UNL     1      -0.659  -9.669   8.456  0.00  0.00    +0.121 C 
ATOM     14  S   UNL     1      -1.272 -10.755   9.629  0.00  0.00    -0.027 S 
ATOM     15  S   UNL     1      -0.433  -9.940   6.705  0.00  0.00    -0.061 S 
BRANCH  12  16
ATOM     16  C   UNL     1      -0.277  -7.808   9.968  0.00  0.00    +0.192 C 
ATOM     17  C   UNL     1       0.595  -8.632  10.917  0.00  0.00    +0.040 C 
BRANCH  16  18
ATOM     18  C   UNL     1      -1.698  -7.801  10.470  0.00  0.00    +0.376 C 
ATOM     19  O   UNL     1      -2.478  -8.665  10.108  0.00  0.00    -0.244 OA
ATOM     20  O   UNL     1      -2.068  -6.930  11.239  0.00  0.00    -0.244 OA
ENDBRANCH  16  18
ENDBRANCH  12  16
ENDBRANCH   6   8
BRANCH   1  21
ATOM     21  O   UNL     1       0.681  -6.872   2.438  0.00  0.00    -0.482 OA
BRANCH  21  22
ATOM     22  C   UNL     1       0.707  -6.409   1.087  0.00  0.00    +0.324 C 
BRANCH  22  24
ATOM     23  N   UNL     1       0.619  -4.243  -0.105  0.00  0.00    -0.283 N 
ATOM     24  C   UNL     1       0.613  -4.905   1.069  0.00  0.00    +0.255 C 
ATOM     25  O   UNL     1       0.532  -4.290   2.112  0.00  0.00    -0.272 OA
ATOM     26  H   UNL     1       0.608  -4.736  -0.940  0.00  0.00    +0.155 HD
BRANCH  23  31
ATOM     27  C   UNL     1       0.706   1.429  -0.164  0.00  0.00    +0.044 C 
ATOM     28  C   UNL     1       0.682  -0.077  -0.148  0.00  0.00    -0.050 A 
ATOM     29  C   UNL     1       1.369  -0.768   0.834  0.00  0.00    +0.005 A 
ATOM     30  C   UNL     1       1.349  -2.149   0.851  0.00  0.00    +0.023 A 
ATOM     31  C   UNL     1       0.640  -2.844  -0.119  0.00  0.00    +0.034 A 
ATOM     32  C   UNL     1      -0.049  -2.147  -1.104  0.00  0.00    +0.023 A 
ATOM     33  C   UNL     1      -0.030  -0.766  -1.112  0.00  0.00    +0.005 A 
ENDBRANCH  23  31
ENDBRANCH  22  24
ENDBRANCH  21  22
ENDBRANCH   1  21
TORSDOF 7
