REMARK  Name = ZINC22735808
REMARK  8 active torsions:
REMARK  status: ('A' for Active; 'I' for Inactive)
REMARK    1  A    between atoms: C_1  and  N_2
REMARK    2  A    between atoms: N_5  and  C_8
REMARK    3  A    between atoms: C_8  and  C_10
REMARK    4  A    between atoms: C_8  and  C_25
REMARK    5  A    between atoms: C_10  and  N_11
REMARK    6  A    between atoms: N_11  and  S_12
REMARK    7  A    between atoms: S_12  and  C_15
REMARK    8  A    between atoms: N_33  and  C_34
REMARK                            x       y       z     vdW  Elec       q    Type
REMARK                         _______ _______ _______ _____ _____    ______ ____
ROOT
ATOM      1  C   UNL     1       4.044   1.443  -3.795  0.00  0.00    +0.102 C 
ENDROOT
BRANCH   1   2
ATOM      2  C   UNL     1       4.321   2.646  -4.659  0.00  0.00    -0.029 A 
ATOM      3  C   UNL     1       3.309   3.198  -5.424  0.00  0.00    +0.007 A 
ATOM      4  C   UNL     1       3.559   4.299  -6.217  0.00  0.00    +0.024 A 
ATOM      5  C   UNL     1       4.833   4.862  -6.253  0.00  0.00    +0.033 A 
ATOM      6  C   UNL     1       5.842   4.303  -5.479  0.00  0.00    -0.025 A 
ATOM      7  C   UNL     1       5.586   3.204  -4.684  0.00  0.00    +0.010 A 
ATOM      8  C   UNL     1       7.105   5.111  -5.701  0.00  0.00    +0.056 C 
ATOM      9  C   UNL     1       6.573   6.406  -6.356  0.00  0.00    +0.109 C 
ATOM     10  N   UNL     1       5.312   5.956  -6.985  0.00  0.00    -0.332 N 
ATOM     11  C   UNL     1       4.322   7.042  -7.016  0.00  0.00    +0.129 C 
ENDBRANCH   1   2
BRANCH   1  16
ATOM     12  C   UNL     1       1.546  -2.919  -6.371  0.00  0.00    -0.096 C 
ATOM     13  N   UNL     1       2.427  -1.991  -5.650  0.00  0.00    +0.379 N 
ATOM     14  C   UNL     1       2.824  -0.867  -6.509  0.00  0.00    -0.064 C 
ATOM     15  C   UNL     1       3.802   0.032  -5.749  0.00  0.00    +0.066 C 
ATOM     16  N   UNL     1       3.163   0.515  -4.516  0.00  0.00    -0.298 NA
ATOM     17  C   UNL     1       2.766  -0.609  -3.657  0.00  0.00    +0.066 C 
ATOM     18  C   UNL     1       1.788  -1.508  -4.418  0.00  0.00    -0.064 C 
ATOM     19  H   UNL     1       3.337  -2.541  -5.368  0.00  0.00    -0.082 HD
ENDBRANCH   1  16
BRANCH   1  20
ATOM     20  C   UNL     1       3.363   1.891  -2.501  0.00  0.00    +0.129 C 
BRANCH  20  21
ATOM     21  N   UNL     1       4.264   2.772  -1.754  0.00  0.00    -0.188 NA
ATOM     22  H   UNL     1       5.351   2.701  -1.903  0.00  0.00    +0.148 HD
BRANCH  21  23
ATOM     23  S   UNL     1       3.676   3.698  -0.513  0.00  0.00    +0.058 S 
ATOM     24  O   UNL     1       2.515   4.352  -1.008  0.00  0.00    -0.153 OA
ATOM     25  O   UNL     1       4.783   4.412   0.021  0.00  0.00    -0.153 OA
BRANCH  23  26
ATOM     26  C   UNL     1       3.133   2.594   0.748  0.00  0.00    +0.106 A 
ATOM     27  C   UNL     1       1.817   2.135   0.739  0.00  0.00    +0.029 A 
ATOM     28  C   UNL     1       1.366   1.281   1.698  0.00  0.00    +0.010 A 
ATOM     29  C   UNL     1       2.237   0.855   2.715  0.00  0.00    -0.018 A 
ATOM     30  C   UNL     1       1.808  -0.025   3.723  0.00  0.00    +0.008 A 
ATOM     31  C   UNL     1       2.679  -0.416   4.692  0.00  0.00    +0.001 A 
ATOM     32  C   UNL     1       3.995   0.043   4.702  0.00  0.00    +0.001 A 
ATOM     33  C   UNL     1       4.446   0.896   3.742  0.00  0.00    +0.008 A 
ATOM     34  C   UNL     1       3.577   1.318   2.722  0.00  0.00    -0.016 A 
ATOM     35  C   UNL     1       4.005   2.203   1.718  0.00  0.00    +0.037 A 
ENDBRANCH  23  26
ENDBRANCH  21  23
ENDBRANCH  20  21
ENDBRANCH   1  20
TORSDOF 6
