REMARK  Name = ZINC30987309
REMARK  9 active torsions:
REMARK  status: ('A' for Active; 'I' for Inactive)
REMARK    1  A    between atoms: C_1  and  C_2
REMARK    2  A    between atoms: C_2  and  C_4
REMARK    3  A    between atoms: C_2  and  C_15
REMARK    4  A    between atoms: C_4  and  C_5
REMARK    5  A    between atoms: C_15  and  N_16
REMARK    6  A    between atoms: C_17  and  C_19
REMARK    7  A    between atoms: N_22  and  C_25
REMARK    8  A    between atoms: C_25  and  C_26
REMARK    9  A    between atoms: C_28  and  C_31
REMARK                            x       y       z     vdW  Elec       q    Type
REMARK                         _______ _______ _______ _____ _____    ______ ____
ROOT
ATOM      1  C   UNL     1       2.258   5.465   1.525  0.00  0.00    +0.071 C 
ATOM      2  C   UNL     1       2.886   4.963   2.828  0.00  0.00    -0.006 C 
ATOM      3  C   UNL     1       4.295   5.544   2.967  0.00  0.00    -0.077 C 
ATOM      4  N   UNL     1       4.222   7.011   2.971  0.00  0.00    +0.386 N 
ATOM      5  C   UNL     1       3.666   7.518   1.710  0.00  0.00    -0.077 C 
ATOM      6  C   UNL     1       2.238   6.995   1.533  0.00  0.00    -0.006 C 
ATOM      7  H   UNL     1       3.542   7.311   3.782  0.00  0.00    -0.081 HD
ENDROOT
BRANCH   1   9
ATOM      8  N   UNL     1       0.621   3.615   1.385  0.00  0.00    -0.315 N 
ATOM      9  C   UNL     1       0.848   4.944   1.412  0.00  0.00    +0.216 C 
ATOM     10  O   UNL     1      -0.081   5.720   1.344  0.00  0.00    -0.276 OA
ATOM     11  H   UNL     1       1.464   2.912   1.446  0.00  0.00    +0.149 HD
BRANCH   8  12
ATOM     12  C   UNL     1      -0.750   3.109   1.275  0.00  0.00    +0.107 C 
BRANCH  12  14
ATOM     13  C   UNL     1      -0.013   1.086   0.008  0.00  0.00    +0.009 C 
ATOM     14  C   UNL     1      -0.729   1.579   1.267  0.00  0.00    +0.007 C 
BRANCH  14  15
ATOM     15  C   UNL     1      -2.164   1.050   1.278  0.00  0.00    +0.040 C 
BRANCH  15  16
ATOM     16  C   UNL     1      -2.144  -0.453   1.393  0.00  0.00    -0.039 A 
ATOM     17  C   UNL     1      -2.220  -1.226   0.275  0.00  0.00    +0.004 A 
ATOM     18  C   UNL     1      -2.196  -2.616   0.362  0.00  0.00    +0.001 A 
ATOM     19  C   UNL     1      -2.110  -3.242   1.568  0.00  0.00    +0.008 A 
ATOM     20  C   UNL     1      -2.037  -2.477   2.744  0.00  0.00    -0.018 A 
ATOM     21  C   UNL     1      -2.054  -1.063   2.656  0.00  0.00    -0.015 A 
ATOM     22  C   UNL     1      -1.982  -0.298   3.833  0.00  0.00    +0.009 A 
ATOM     23  C   UNL     1      -1.897  -0.924   5.038  0.00  0.00    +0.001 A 
ATOM     24  C   UNL     1      -1.880  -2.315   5.125  0.00  0.00    +0.001 A 
ATOM     25  C   UNL     1      -1.948  -3.088   4.007  0.00  0.00    +0.008 A 
ENDBRANCH  15  16
ENDBRANCH  14  15
ENDBRANCH  12  14
ENDBRANCH   8  12
ENDBRANCH   1   9
BRANCH   4  26
ATOM     26  C   UNL     1       5.539   7.602   3.241  0.00  0.00    +0.022 C 
BRANCH  26  27
ATOM     27  C   UNL     1       5.967   7.255   4.644  0.00  0.00    +0.211 A 
ATOM     28  N   UNL     1       6.655   6.202   5.009  0.00  0.00    -0.193 NA
ATOM     29  C   UNL     1       6.801   6.311   6.349  0.00  0.00    +0.202 A 
ATOM     30  N   UNL     1       6.200   7.413   6.715  0.00  0.00    -0.056 NA
ATOM     31  O   UNL     1       5.722   7.968   5.747  0.00  0.00    -0.340 OA
BRANCH  29  32
ATOM     32  C   UNL     1       7.511   5.358   7.238  0.00  0.00    +0.023 A 
ATOM     33  C   UNL     1       8.103   4.214   6.706  0.00  0.00    +0.013 A 
ATOM     34  C   UNL     1       8.766   3.334   7.536  0.00  0.00    +0.021 A 
ATOM     35  C   UNL     1       8.834   3.579   8.897  0.00  0.00    +0.041 A 
ATOM     36  C   UNL     1       8.243   4.712   9.431  0.00  0.00    +0.021 A 
ATOM     37  C   UNL     1       7.582   5.601   8.608  0.00  0.00    +0.013 A 
ATOM     38 CL   UNL     1       9.663   2.464   9.937  0.00  0.00    -0.084 Cl
ENDBRANCH  29  32
ENDBRANCH  26  27
ENDBRANCH   4  26
TORSDOF 8
