REMARK  Name = ZINC39639297
REMARK  12 active torsions:
REMARK  status: ('A' for Active; 'I' for Inactive)
REMARK    1  A    between atoms: C_1  and  C_2
REMARK    2  A    between atoms: C_5  and  C_8
REMARK    3  A    between atoms: C_8  and  C_10
REMARK    4  A    between atoms: C_8  and  N_11
REMARK    5  A    between atoms: C_12  and  C_14
REMARK    6  A    between atoms: C_25  and  C_27
REMARK    7  A    between atoms: C_29  and  O_37
REMARK    8  A    between atoms: C_30  and  O_35
REMARK    9  A    between atoms: C_31  and  O_33
REMARK   10  A    between atoms: O_33  and  C_34
REMARK   11  A    between atoms: O_35  and  C_36
REMARK   12  A    between atoms: O_37  and  C_38
REMARK                            x       y       z     vdW  Elec       q    Type
REMARK                         _______ _______ _______ _____ _____    ______ ____
ROOT
ATOM      1  C   UNL     1       2.719  -6.234   1.409  0.00  0.00    +0.100 C 
ATOM      2  C   UNL     1       3.988  -5.436   1.784  0.00  0.00    +0.121 C 
ATOM      3  N   UNL     1       4.991  -6.471   2.131  0.00  0.00    -0.296 N 
ATOM      4  C   UNL     1       4.766  -7.549   1.138  0.00  0.00    +0.115 C 
ATOM      5  C   UNL     1       3.234  -7.619   0.985  0.00  0.00    -0.004 C 
ATOM      6  C   UNL     1       2.863  -7.899  -0.469  0.00  0.00    -0.010 C 
ATOM      7  C   UNL     1       3.334  -9.305  -0.849  0.00  0.00    -0.082 C 
ATOM      8  N   UNL     1       2.703 -10.291   0.036  0.00  0.00    +0.379 N 
ATOM      9  C   UNL     1       3.140 -10.072   1.421  0.00  0.00    -0.082 C 
ATOM     10  C   UNL     1       2.660  -8.698   1.898  0.00  0.00    -0.010 C 
ATOM     11  C   UNL     1       5.902  -6.439   3.124  0.00  0.00    +0.247 C 
ATOM     12  O   UNL     1       5.880  -5.538   3.940  0.00  0.00    -0.270 OA
ATOM     13  H   UNL     1       1.700 -10.197  -0.017  0.00  0.00    -0.086 HD
ATOM     14  H   UNL     1       2.967 -11.221  -0.255  0.00  0.00    -0.086 HD
ENDROOT
BRANCH  11  15
ATOM     15  C   UNL     1       6.926  -7.497   3.220  0.00  0.00    +0.044 A 
ATOM     16  C   UNL     1       7.249  -8.264   2.098  0.00  0.00    +0.062 A 
ATOM     17  C   UNL     1       8.209  -9.254   2.191  0.00  0.00    +0.166 A 
ATOM     18  C   UNL     1       8.854  -9.488   3.402  0.00  0.00    +0.204 A 
ATOM     19  C   UNL     1       8.534  -8.726   4.522  0.00  0.00    +0.166 A 
ATOM     20  C   UNL     1       7.579  -7.731   4.433  0.00  0.00    +0.062 A 
BRANCH  19  21
ATOM     21  O   UNL     1       9.165  -8.958   5.705  0.00  0.00    -0.491 OA
ATOM     22  C   UNL     1       8.788  -8.139   6.813  0.00  0.00    +0.277 C 
ENDBRANCH  19  21
BRANCH  18  23
ATOM     23  O   UNL     1       9.796 -10.463   3.491  0.00  0.00    -0.488 OA
ATOM     24  C   UNL     1      11.147 -10.085   3.217  0.00  0.00    +0.277 C 
ENDBRANCH  18  23
BRANCH  17  25
ATOM     25  O   UNL     1       8.523 -10.000   1.098  0.00  0.00    -0.491 OA
ATOM     26  C   UNL     1       7.822  -9.706  -0.112  0.00  0.00    +0.277 C 
ENDBRANCH  17  25
ENDBRANCH  11  15
BRANCH   1  28
ATOM     27  N   UNL     1       0.662  -5.673   0.155  0.00  0.00    -0.308 N 
ATOM     28  C   UNL     1       2.001  -5.567   0.264  0.00  0.00    +0.219 C 
ATOM     29  O   UNL     1       2.628  -4.936  -0.561  0.00  0.00    -0.275 OA
ATOM     30  H   UNL     1       0.160  -6.178   0.814  0.00  0.00    +0.149 HD
BRANCH  27  31
ATOM     31  C   UNL     1      -0.036  -5.026  -0.958  0.00  0.00    +0.100 C 
ATOM     32  C   UNL     1      -0.012  -5.946  -2.180  0.00  0.00    +0.033 C 
BRANCH  31  37
ATOM     33  C   UNL     1      -5.516  -3.978   0.550  0.00  0.00    +0.044 C 
ATOM     34  C   UNL     1      -4.087  -4.251   0.157  0.00  0.00    -0.050 A 
ATOM     35  C   UNL     1      -3.380  -3.315  -0.576  0.00  0.00    +0.004 A 
ATOM     36  C   UNL     1      -2.070  -3.566  -0.936  0.00  0.00    +0.006 A 
ATOM     37  C   UNL     1      -1.465  -4.752  -0.564  0.00  0.00    -0.027 A 
ATOM     38  C   UNL     1      -2.171  -5.688   0.169  0.00  0.00    +0.006 A 
ATOM     39  C   UNL     1      -3.481  -5.435   0.533  0.00  0.00    +0.004 A 
ENDBRANCH  31  37
ENDBRANCH  27  31
ENDBRANCH   1  28
TORSDOF 7
