REMARK  Name = ZINC13033948
REMARK  8 active torsions:
REMARK  status: ('A' for Active; 'I' for Inactive)
REMARK    1  A    between atoms: C_4  and  C_7
REMARK    2  A    between atoms: C_7  and  C_8
REMARK    3  A    between atoms: C_8  and  N_9
REMARK    4  A    between atoms: C_10  and  C_14
REMARK    5  A    between atoms: C_14  and  N_69
REMARK    6  A    between atoms: C_15  and  C_16
REMARK    7  A    between atoms: C_15  and  N_69
REMARK    8  A    between atoms: C_32  and  N_69
REMARK                            x       y       z     vdW  Elec       q    Type
REMARK                         _______ _______ _______ _____ _____    ______ ____
ROOT
ATOM      1  N   UNL     1      -0.279   0.854  -2.304  0.00  0.00    +0.389 N 
ATOM      2  H   UNL     1      -0.369  -0.157  -2.148  0.00  0.00    -0.080 HD
ENDROOT
BRANCH   1   3
ATOM      3  C   UNL     1      -0.746   1.570  -1.098  0.00  0.00    -0.068 C 
ATOM      4  C   UNL     1      -0.464   3.068  -1.220  0.00  0.00    -0.015 C 
ATOM      5  C   UNL     1      -0.952   3.784   0.041  0.00  0.00    -0.002 C 
ATOM      6  C   UNL     1      -0.219   3.225   1.261  0.00  0.00    -0.000 C 
ATOM      7  C   UNL     1      -0.501   1.726   1.384  0.00  0.00    -0.002 C 
ATOM      8  C   UNL     1      -0.012   1.011   0.123  0.00  0.00    -0.015 C 
ENDBRANCH   1   3
BRANCH   1   9
ATOM      9  C   UNL     1       1.140   1.175  -2.564  0.00  0.00    +0.001 C 
BRANCH   9  11
ATOM     10  N   UNL     1       2.118  -0.954  -3.572  0.00  0.00    -0.231 N 
ATOM     11  C   UNL     1       1.640   0.300  -3.684  0.00  0.00    +0.135 A 
ATOM     12  N   UNL     1       1.699   0.613  -4.956  0.00  0.00    -0.115 NA
ATOM     13  N   UNL     1       2.183  -0.398  -5.592  0.00  0.00    -0.023 NA
ATOM     14  N   UNL     1       2.434  -1.347  -4.760  0.00  0.00    -0.044 NA
BRANCH  10  15
ATOM     15  C   UNL     1       2.251  -1.727  -2.335  0.00  0.00    +0.152 C 
BRANCH  15  16
ATOM     16  C   UNL     1       1.019  -2.616  -2.155  0.00  0.00    +0.058 C 
BRANCH  16  20
ATOM     17  C   UNL     1       1.330  -4.750   1.533  0.00  0.00    +0.000 A 
ATOM     18  C   UNL     1       0.617  -3.567   1.477  0.00  0.00    +0.000 A 
ATOM     19  C   UNL     1       0.517  -2.876   0.284  0.00  0.00    +0.004 A 
ATOM     20  C   UNL     1       1.129  -3.369  -0.854  0.00  0.00    -0.046 A 
ATOM     21  C   UNL     1       1.837  -4.554  -0.799  0.00  0.00    +0.004 A 
ATOM     22  C   UNL     1       1.942  -5.242   0.396  0.00  0.00    +0.000 A 
ENDBRANCH  16  20
ENDBRANCH  15  16
ENDBRANCH  10  15
ENDBRANCH   9  11
ENDBRANCH   1   9
BRANCH   1  23
ATOM     23  C   UNL     1      -1.105   1.236  -3.469  0.00  0.00    -0.037 C 
BRANCH  23  24
ATOM     24  C   UNL     1      -2.429   0.522  -3.377  0.00  0.00    +0.001 A 
ATOM     25  C   UNL     1      -3.499   1.151  -2.826  0.00  0.00    +0.017 A 
ATOM     26  C   UNL     1      -4.771   0.433  -2.756  0.00  0.00    +0.002 A 
ATOM     27  C   UNL     1      -5.909   1.033  -2.202  0.00  0.00    +0.059 A 
ATOM     28  C   UNL     1      -7.095   0.331  -2.146  0.00  0.00    +0.163 A 
ATOM     29  C   UNL     1      -7.163  -0.976  -2.639  0.00  0.00    +0.164 A 
ATOM     30  C   UNL     1      -6.043  -1.577  -3.187  0.00  0.00    +0.075 A 
ATOM     31  C   UNL     1      -4.841  -0.883  -3.250  0.00  0.00    +0.053 A 
ATOM     32  N   UNL     1      -3.714  -1.468  -3.792  0.00  0.00    -0.322 N 
ATOM     33  H   UNL     1      -3.763  -2.375  -4.132  0.00  0.00    +0.169 HD
ATOM     34  C   UNL     1      -2.551  -0.797  -3.857  0.00  0.00    +0.251 A 
ATOM     35  O   UNL     1      -1.576  -1.345  -4.343  0.00  0.00    -0.268 OA
ATOM     36  O   UNL     1      -8.330  -1.674  -2.591  0.00  0.00    -0.485 OA
ATOM     37  C   UNL     1      -9.337  -1.184  -1.700  0.00  0.00    +0.270 C 
ATOM     38  C   UNL     1      -9.460   0.332  -1.899  0.00  0.00    +0.270 C 
ATOM     39  O   UNL     1      -8.192   0.927  -1.603  0.00  0.00    -0.485 OA
ENDBRANCH  23  24
ENDBRANCH   1  23
TORSDOF 8
