REMARK  Name = ZINC16688474
REMARK  10 active torsions:
REMARK  status: ('A' for Active; 'I' for Inactive)
REMARK    1  A    between atoms: C_1  and  C_2
REMARK    2  A    between atoms: C_2  and  O_3
REMARK    3  A    between atoms: O_3  and  C_4
REMARK    4  A    between atoms: C_6  and  C_20
REMARK    5  A    between atoms: C_9  and  O_10
REMARK    6  A    between atoms: O_10  and  C_11
REMARK    7  A    between atoms: C_11  and  C_12
REMARK    8  A    between atoms: C_20  and  N_53
REMARK    9  A    between atoms: C_21  and  C_22
REMARK   10  A    between atoms: C_21  and  N_53
REMARK                            x       y       z     vdW  Elec       q    Type
REMARK                         _______ _______ _______ _____ _____    ______ ____
ROOT
ATOM      1  C   UNL     1      -4.503  -1.652   4.845  0.00  0.00    +0.164 A 
ATOM      2  C   UNL     1      -4.148  -1.426   3.525  0.00  0.00    +0.051 A 
ATOM      3  C   UNL     1      -4.579  -0.282   2.879  0.00  0.00    -0.059 A 
ATOM      4  C   UNL     1      -5.373   0.634   3.544  0.00  0.00    +0.025 A 
ATOM      5  C   UNL     1      -5.735   0.412   4.861  0.00  0.00    +0.086 A 
ATOM      6  C   UNL     1      -5.302  -0.731   5.515  0.00  0.00    +0.181 A 
ATOM      7 CL   UNL     1      -6.731   1.565   5.693  0.00  0.00    -0.080 Cl
ENDROOT
BRANCH   1   8
ATOM      8  O   UNL     1      -4.075  -2.774   5.483  0.00  0.00    -0.489 OA
BRANCH   8  10
ATOM      9  C   UNL     1      -2.878  -4.870   5.611  0.00  0.00    +0.048 C 
ATOM     10  C   UNL     1      -3.259  -3.675   4.733  0.00  0.00    +0.226 C 
ENDBRANCH   8  10
ENDBRANCH   1   8
BRANCH   6  11
ATOM     11  O   UNL     1      -5.657  -0.951   6.810  0.00  0.00    -0.482 OA
BRANCH  11  12
ATOM     12  C   UNL     1      -6.868  -1.675   7.036  0.00  0.00    +0.264 C 
BRANCH  12  13
ATOM     13  C   UNL     1      -7.096  -1.821   8.519  0.00  0.00    -0.010 A 
ATOM     14  C   UNL     1      -6.592  -2.919   9.191  0.00  0.00    +0.008 A 
ATOM     15  C   UNL     1      -6.797  -3.050  10.551  0.00  0.00    +0.020 A 
ATOM     16  C   UNL     1      -7.516  -2.088  11.239  0.00  0.00    +0.041 A 
ATOM     17  C   UNL     1      -8.025  -0.993  10.564  0.00  0.00    +0.020 A 
ATOM     18  C   UNL     1      -7.815  -0.860   9.205  0.00  0.00    +0.008 A 
ATOM     19 CL   UNL     1      -7.778  -2.256  12.946  0.00  0.00    -0.084 Cl
ENDBRANCH  12  13
ENDBRANCH  11  12
ENDBRANCH   6  11
BRANCH   3  20
ATOM     20  C   UNL     1      -4.187  -0.036   1.445  0.00  0.00    -0.046 C 
BRANCH  20  21
ATOM     21  N   UNL     1      -2.921   0.721   1.413  0.00  0.00    +0.384 N 
ATOM     22  H   UNL     1      -2.190   0.178   1.886  0.00  0.00    -0.085 HD
ATOM     23  H   UNL     1      -3.050   1.617   1.898  0.00  0.00    -0.085 HD
BRANCH  21  24
ATOM     24  C   UNL     1      -2.513   0.977   0.019  0.00  0.00    -0.046 C 
BRANCH  24  25
ATOM     25  C   UNL     1      -1.219   1.750   0.017  0.00  0.00    -0.061 A 
ATOM     26  C   UNL     1      -1.242   3.133   0.033  0.00  0.00    +0.005 A 
ATOM     27  C   UNL     1      -0.058   3.846   0.024  0.00  0.00    +0.050 A 
ATOM     28  C   UNL     1       1.155   3.177   0.008  0.00  0.00    +0.166 A 
ATOM     29  C   UNL     1       1.178   1.784   0.000  0.00  0.00    +0.166 A 
ATOM     30  C   UNL     1      -0.013   1.076   0.008  0.00  0.00    +0.051 A 
ATOM     31  O   UNL     1       2.478   1.369  -0.015  0.00  0.00    -0.453 OA
ATOM     32  C   UNL     1       3.243   2.517  -0.428  0.00  0.00    +0.466 C 
ATOM     33  O   UNL     1       2.441   3.634  -0.002  0.00  0.00    -0.453 OA
ENDBRANCH  24  25
ENDBRANCH  21  24
ENDBRANCH  20  21
ENDBRANCH   3  20
TORSDOF 9
