REMARK  Name = ZINC35710250
REMARK  13 active torsions:
REMARK  status: ('A' for Active; 'I' for Inactive)
REMARK    1  A    between atoms: C_1  and  C_2
REMARK    2  A    between atoms: C_2  and  O_3
REMARK    3  A    between atoms: O_3  and  C_4
REMARK    4  A    between atoms: C_4  and  C_6
REMARK    5  A    between atoms: C_13  and  C_15
REMARK    6  A    between atoms: C_18  and  C_20
REMARK    7  A    between atoms: C_20  and  N_21
REMARK    8  A    between atoms: N_21  and  C_22
REMARK    9  A    between atoms: N_21  and  C_30
REMARK   10  A    between atoms: C_22  and  C_23
REMARK   11  A    between atoms: C_30  and  C_31
REMARK   12  A    between atoms: C_34  and  C_38
REMARK   13  A    between atoms: C_36  and  C_37
REMARK                            x       y       z     vdW  Elec       q    Type
REMARK                         _______ _______ _______ _____ _____    ______ ____
ROOT
ATOM      1  C   UNL     1      -9.639  -4.787   1.388  0.00  0.00    +0.020 C 
ENDROOT
BRANCH   1   5
ATOM      2  C   UNL     1      -7.888  -1.871   2.635  0.00  0.00    +0.164 A 
ATOM      3  C   UNL     1      -9.164  -1.562   2.994  0.00  0.00    +0.230 A 
ATOM      4  O   UNL     1      -9.942  -2.577   2.585  0.00  0.00    -0.449 OA
ATOM      5  C   UNL     1      -9.162  -3.490   1.989  0.00  0.00    +0.179 A 
ATOM      6  N   UNL     1      -7.929  -3.078   2.007  0.00  0.00    -0.210 NA
BRANCH   2  13
ATOM      7  C   UNL     1      -3.723  -0.295   1.113  0.00  0.00    +0.115 C 
ATOM      8  C   UNL     1      -3.450  -1.629   0.414  0.00  0.00    +0.018 C 
ATOM      9  C   UNL     1      -4.765  -2.393   0.237  0.00  0.00    +0.020 C 
ATOM     10  C   UNL     1      -5.371  -2.683   1.613  0.00  0.00    +0.108 C 
ATOM     11  N   UNL     1      -5.502  -1.419   2.349  0.00  0.00    -0.295 N 
ATOM     12  C   UNL     1      -4.318  -0.562   2.499  0.00  0.00    +0.122 C 
ATOM     13  C   UNL     1      -6.687  -1.050   2.876  0.00  0.00    +0.268 C 
ATOM     14  O   UNL     1      -6.765  -0.042   3.551  0.00  0.00    -0.268 OA
BRANCH   7  15
ATOM     15  C   UNL     1      -2.433   0.470   1.258  0.00  0.00    +0.312 C 
ATOM     16  O   UNL     1      -1.401  -0.002   0.843  0.00  0.00    -0.250 OA
BRANCH  15  17
ATOM     17  O   UNL     1      -2.431   1.676   1.847  0.00  0.00    -0.465 OA
BRANCH  17  19
ATOM     18  C   UNL     1      -1.368   3.694   2.646  0.00  0.00    +0.048 C 
ATOM     19  C   UNL     1      -1.172   2.345   1.951  0.00  0.00    +0.229 C 
ENDBRANCH  17  19
ENDBRANCH  15  17
ENDBRANCH   7  15
ENDBRANCH   2  13
ENDBRANCH   1   5
BRANCH   1  20
ATOM     20  N   UNL     1      -9.606  -5.841   2.410  0.00  0.00    +0.391 N 
ATOM     21  H   UNL     1      -8.679  -5.898   2.805  0.00  0.00    -0.080 HD
BRANCH  20  22
ATOM     22  C   UNL     1     -10.572  -5.525   3.471  0.00  0.00    -0.042 C 
BRANCH  22  23
ATOM     23  C   UNL     1     -10.429  -6.521   4.593  0.00  0.00    -0.064 A 
ATOM     24  C   UNL     1     -11.171  -7.688   4.580  0.00  0.00    +0.004 A 
ATOM     25  C   UNL     1     -11.040  -8.602   5.608  0.00  0.00    +0.038 A 
ATOM     26  C   UNL     1     -10.166  -8.349   6.652  0.00  0.00    +0.123 A 
ATOM     27  C   UNL     1      -9.424  -7.180   6.664  0.00  0.00    +0.038 A 
ATOM     28  C   UNL     1      -9.553  -6.270   5.632  0.00  0.00    +0.004 A 
ATOM     29  F   UNL     1     -10.038  -9.242   7.658  0.00  0.00    -0.205 F 
ENDBRANCH  22  23
ENDBRANCH  20  22
BRANCH  20  30
ATOM     30  C   UNL     1      -9.957  -7.129   1.797  0.00  0.00    -0.042 C 
BRANCH  30  31
ATOM     31  C   UNL     1      -8.886  -7.524   0.812  0.00  0.00    -0.061 A 
ATOM     32  C   UNL     1      -9.095  -7.352  -0.543  0.00  0.00    +0.002 A 
ATOM     33  C   UNL     1      -8.113  -7.714  -1.446  0.00  0.00    +0.003 A 
ATOM     34  C   UNL     1      -6.921  -8.249  -0.993  0.00  0.00    -0.050 A 
ATOM     35  C   UNL     1      -6.712  -8.420   0.362  0.00  0.00    +0.007 A 
ATOM     36  C   UNL     1      -7.692  -8.054   1.265  0.00  0.00    -0.049 A 
ATOM     37  C   UNL     1      -7.461  -8.236   2.744  0.00  0.00    +0.044 C 
ATOM     38  C   UNL     1      -5.851  -8.645  -1.977  0.00  0.00    +0.044 C 
ENDBRANCH  30  31
ENDBRANCH  20  30
ENDBRANCH   1  20
TORSDOF 10
