REMARK  Name = ZINC09599587
REMARK  12 active torsions:
REMARK  status: ('A' for Active; 'I' for Inactive)
REMARK    1  A    between atoms: C_1  and  C_2
REMARK    2  A    between atoms: C_2  and  O_3
REMARK    3  A    between atoms: O_3  and  C_4
REMARK    4  A    between atoms: C_4  and  C_6
REMARK    5  A    between atoms: C_10  and  N_11
REMARK    6  A    between atoms: C_12  and  C_14
REMARK    7  A    between atoms: C_17  and  S_20
REMARK    8  A    between atoms: S_20  and  N_23
REMARK    9  A    between atoms: N_23  and  C_24
REMARK   10  A    between atoms: N_23  and  C_25
REMARK   11  A    between atoms: C_25  and  C_26
REMARK   12  A    between atoms: N_33  and  C_36
REMARK                            x       y       z     vdW  Elec       q    Type
REMARK                         _______ _______ _______ _____ _____    ______ ____
ROOT
ATOM      1  N   UNL     1      -3.037  -2.524   2.498  0.00  0.00    -0.275 N 
ATOM      2  C   UNL     1      -3.812  -2.868   3.546  0.00  0.00    +0.249 C 
ATOM      3  O   UNL     1      -4.916  -3.340   3.355  0.00  0.00    -0.270 OA
ATOM      4  H   UNL     1      -2.156  -2.146   2.650  0.00  0.00    +0.156 HD
ENDROOT
BRANCH   1   9
ATOM      5  C   UNL     1      -2.842  -2.416   0.016  0.00  0.00    +0.091 A 
ATOM      6  C   UNL     1      -3.547  -2.713  -1.215  0.00  0.00    -0.025 A 
ATOM      7  C   UNL     1      -4.779  -3.243  -1.037  0.00  0.00    -0.021 A 
ATOM      8  S   UNL     1      -4.976  -3.337   0.716  0.00  0.00    -0.079 S 
ATOM      9  C   UNL     1      -3.497  -2.709   1.205  0.00  0.00    +0.086 A 
ATOM     10  C   UNL     1      -5.733  -3.642  -2.119  0.00  0.00    -0.036 C 
ATOM     11  N   UNL     1      -5.287  -3.024  -3.381  0.00  0.00    +0.381 N 
ATOM     12  C   UNL     1      -3.861  -3.306  -3.592  0.00  0.00    -0.074 C 
ATOM     13  C   UNL     1      -3.010  -2.481  -2.620  0.00  0.00    +0.018 C 
ATOM     14  C   UNL     1      -6.065  -3.577  -4.498  0.00  0.00    -0.096 C 
ATOM     15  H   UNL     1      -5.429  -2.026  -3.335  0.00  0.00    -0.082 HD
BRANCH   5  16
ATOM     16  C   UNL     1      -1.497  -1.838   0.006  0.00  0.00    +0.342 C 
ATOM     17  O   UNL     1      -0.522  -2.566  -0.007  0.00  0.00    -0.245 OA
BRANCH  16  18
ATOM     18  O   UNL     1      -1.339  -0.499   0.012  0.00  0.00    -0.461 OA
BRANCH  18  20
ATOM     19  C   UNL     1      -0.019   1.526   0.010  0.00  0.00    +0.048 C 
ATOM     20  C   UNL     1       0.002  -0.004   0.002  0.00  0.00    +0.229 C 
ENDBRANCH  18  20
ENDBRANCH  16  18
ENDBRANCH   5  16
ENDBRANCH   1   9
BRANCH   2  21
ATOM     21  C   UNL     1      -3.321  -2.670   4.925  0.00  0.00    +0.037 A 
ATOM     22  C   UNL     1      -2.057  -2.121   5.148  0.00  0.00    +0.015 A 
ATOM     23  C   UNL     1      -1.605  -1.939   6.438  0.00  0.00    +0.029 A 
ATOM     24  C   UNL     1      -2.402  -2.298   7.511  0.00  0.00    +0.106 A 
ATOM     25  C   UNL     1      -3.656  -2.842   7.298  0.00  0.00    +0.029 A 
ATOM     26  C   UNL     1      -4.122  -3.025   6.012  0.00  0.00    +0.015 A 
BRANCH  24  27
ATOM     27  S   UNL     1      -1.816  -2.061   9.156  0.00  0.00    +0.061 S 
ATOM     28  O   UNL     1      -2.526  -2.980   9.975  0.00  0.00    -0.153 OA
ATOM     29  O   UNL     1      -0.397  -2.043   9.084  0.00  0.00    -0.153 OA
BRANCH  27  30
ATOM     30  N   UNL     1      -2.285  -0.545   9.629  0.00  0.00    -0.177 NA
ATOM     31  C   UNL     1      -3.577  -0.352  10.293  0.00  0.00    +0.131 C 
BRANCH  30  32
ATOM     32  C   UNL     1      -1.408   0.603   9.384  0.00  0.00    +0.140 C 
BRANCH  32  33
ATOM     33  C   UNL     1      -1.813   1.283   8.075  0.00  0.00    +0.134 C 
ATOM     34  C   UNL     1      -0.875   2.481   7.779  0.00  0.00    +0.035 C 
ATOM     35  C   UNL     1      -1.008   2.584   6.235  0.00  0.00    +0.031 C 
ATOM     36  C   UNL     1      -1.175   1.107   5.821  0.00  0.00    +0.160 C 
ATOM     37  O   UNL     1      -1.637   0.383   6.970  0.00  0.00    -0.375 OA
ENDBRANCH  32  33
ENDBRANCH  30  32
ENDBRANCH  27  30
ENDBRANCH  24  27
ENDBRANCH   2  21
TORSDOF 9
