REMARK  Name = ZINC59578340
REMARK  11 active torsions:
REMARK  status: ('A' for Active; 'I' for Inactive)
REMARK    1  A    between atoms: C_1  and  C_2
REMARK    2  A    between atoms: C_2  and  C_3
REMARK    3  A    between atoms: C_2  and  C_4
REMARK    4  A    between atoms: C_2  and  C_5
REMARK    5  A    between atoms: C_5  and  C_7
REMARK    6  A    between atoms: C_5  and  N_12
REMARK    7  A    between atoms: N_12  and  C_13
REMARK    8  A    between atoms: C_13  and  C_14
REMARK    9  A    between atoms: N_16  and  C_17
REMARK   10  A    between atoms: C_21  and  S_23
REMARK   11  A    between atoms: S_23  and  N_26
REMARK                            x       y       z     vdW  Elec       q    Type
REMARK                         _______ _______ _______ _____ _____    ______ ____
ROOT
ATOM      1  C   UNL     1      -0.475  -4.040  -0.945  0.00  0.00    +0.200 C 
ATOM      2  O   UNL     1       0.592  -4.583  -0.751  0.00  0.00    -0.278 OA
ATOM      3  N   UNL     1      -1.597  -4.779  -1.061  0.00  0.00    -0.287 N 
ATOM      4  H   UNL     1      -2.437  -4.352  -1.288  0.00  0.00    +0.155 HD
ENDROOT
BRANCH   3   5
ATOM      5  C   UNL     1      -1.548  -6.161  -0.852  0.00  0.00    +0.035 A 
ATOM      6  C   UNL     1      -0.682  -6.692   0.096  0.00  0.00    +0.023 A 
ATOM      7  C   UNL     1      -0.636  -8.057   0.299  0.00  0.00    +0.004 A 
ATOM      8  C   UNL     1      -1.451  -8.896  -0.440  0.00  0.00    +0.028 A 
ATOM      9  C   UNL     1      -2.313  -8.371  -1.384  0.00  0.00    +0.107 A 
ATOM     10  C   UNL     1      -2.369  -7.005  -1.588  0.00  0.00    +0.051 A 
BRANCH   9  11
ATOM     11  S   UNL     1      -3.349  -9.443  -2.324  0.00  0.00    +0.061 S 
ATOM     12  O   UNL     1      -3.669  -8.751  -3.523  0.00  0.00    -0.153 OA
ATOM     13  O   UNL     1      -2.719 -10.717  -2.325  0.00  0.00    -0.153 OA
BRANCH  11  14
ATOM     14  N   UNL     1      -4.765  -9.616  -1.484  0.00  0.00    -0.177 NA
ATOM     15  C   UNL     1      -5.040 -10.644  -0.470  0.00  0.00    +0.109 C 
ATOM     16  C   UNL     1      -6.489 -10.430   0.018  0.00  0.00    +0.018 C 
ATOM     17  C   UNL     1      -7.138  -9.648  -1.154  0.00  0.00    +0.018 C 
ATOM     18  C   UNL     1      -5.957  -8.759  -1.624  0.00  0.00    +0.109 C 
ENDBRANCH  11  14
ENDBRANCH   9  11
ENDBRANCH   3   5
BRANCH   1  19
ATOM     19  C   UNL     1      -0.547  -2.539  -1.057  0.00  0.00    +0.016 C 
BRANCH  19  20
ATOM     20  N   UNL     1       0.798  -1.970  -0.897  0.00  0.00    +0.390 N 
ATOM     21  H   UNL     1       1.423  -2.391  -1.568  0.00  0.00    -0.084 HD
ATOM     22  H   UNL     1       1.133  -2.156   0.037  0.00  0.00    -0.084 HD
BRANCH  20  23
ATOM     23  C   UNL     1       0.746  -0.519  -1.118  0.00  0.00    -0.028 C 
BRANCH  23  24
ATOM     24  C   UNL     1       0.367  -0.243  -2.550  0.00  0.00    -0.024 A 
ATOM     25  C   UNL     1      -0.456   0.713  -3.047  0.00  0.00    +0.009 A 
ATOM     26  C   UNL     1      -0.658   0.781  -4.412  0.00  0.00    +0.008 A 
ATOM     27  C   UNL     1      -0.028  -0.111  -5.215  0.00  0.00    +0.045 A 
ATOM     28  S   UNL     1       0.892  -1.085  -4.035  0.00  0.00    -0.103 S 
ENDBRANCH  23  24
BRANCH  23  30
ATOM     29  C   UNL     1       2.039   1.613  -0.958  0.00  0.00    +0.009 C 
ATOM     30  C   UNL     1       2.119   0.090  -0.827  0.00  0.00    -0.046 C 
ATOM     31  C   UNL     1       3.141  -0.454  -1.827  0.00  0.00    +0.009 C 
ATOM     32  C   UNL     1       2.549  -0.278   0.594  0.00  0.00    +0.009 C 
ENDBRANCH  23  30
ENDBRANCH  20  23
ENDBRANCH  19  20
ENDBRANCH   1  19
TORSDOF 8
