REMARK  Name = ZINC05224992
REMARK  13 active torsions:
REMARK  status: ('A' for Active; 'I' for Inactive)
REMARK    1  A    between atoms: C_1  and  C_2
REMARK    2  A    between atoms: C_2  and  C_3
REMARK    3  A    between atoms: C_2  and  C_4
REMARK    4  A    between atoms: C_2  and  O_5
REMARK    5  A    between atoms: O_5  and  C_6
REMARK    6  A    between atoms: N_8  and  C_9
REMARK    7  A    between atoms: C_9  and  C_11
REMARK    8  A    between atoms: C_9  and  C_18
REMARK    9  A    between atoms: C_11  and  C_12
REMARK   10  A    between atoms: C_18  and  O_20
REMARK   11  A    between atoms: O_20  and  C_21
REMARK   12  A    between atoms: C_23  and  O_38
REMARK   13  A    between atoms: C_28  and  C_32
REMARK                            x       y       z     vdW  Elec       q    Type
REMARK                         _______ _______ _______ _____ _____    ______ ____
ROOT
ATOM      1  O   UNL     1       0.828   4.119  -1.183  0.00  0.00    -0.424 OA
ENDROOT
BRANCH   1   2
ATOM      2  C   UNL     1       0.751   5.475  -1.176  0.00  0.00    +0.139 A 
ATOM      3  C   UNL     1       1.894   6.230  -1.415  0.00  0.00    +0.092 A 
ATOM      4  C   UNL     1       1.827   7.611  -1.410  0.00  0.00    +0.135 A 
ATOM      5  C   UNL     1       0.600   8.241  -1.164  0.00  0.00    +0.105 A 
ATOM      6  C   UNL     1       0.484   9.710  -1.150  0.00  0.00    +0.197 A 
ATOM      7  O   UNL     1       1.452  10.424  -1.353  0.00  0.00    -0.287 OA
ATOM      8  C   UNL     1      -0.796  10.259  -0.893  0.00  0.00    +0.098 A 
ATOM      9  C   UNL     1      -1.849   9.429  -0.671  0.00  0.00    +0.139 A 
ATOM     10  O   UNL     1      -1.730   8.092  -0.686  0.00  0.00    -0.454 OA
ATOM     11  C   UNL     1      -0.553   7.475  -0.923  0.00  0.00    +0.146 A 
ATOM     12  C   UNL     1      -0.467   6.091  -0.936  0.00  0.00    +0.093 A 
BRANCH   9  13
ATOM     13  C   UNL     1      -3.176  10.021  -0.405  0.00  0.00    +0.017 A 
ATOM     14  C   UNL     1      -3.332  11.408  -0.377  0.00  0.00    +0.011 A 
ATOM     15  C   UNL     1      -4.575  11.954  -0.135  0.00  0.00    +0.001 A 
ATOM     16  C   UNL     1      -5.663  11.130   0.094  0.00  0.00    +0.000 A 
ATOM     17  C   UNL     1      -5.514   9.755   0.074  0.00  0.00    +0.001 A 
ATOM     18  C   UNL     1      -4.278   9.195  -0.174  0.00  0.00    +0.011 A 
ENDBRANCH   9  13
BRANCH   4  19
ATOM     19  O   UNL     1       2.940   8.351  -1.644  0.00  0.00    -0.506 OA
ATOM     20  H   UNL     1       3.086   8.559  -2.577  0.00  0.00    +0.292 HD
ENDBRANCH   4  19
ENDBRANCH   1   2
BRANCH   1  21
ATOM     21  C   UNL     1       1.357   3.532  -0.097  0.00  0.00    +0.333 C 
ATOM     22  O   UNL     1       1.820   4.210   0.790  0.00  0.00    -0.248 OA
BRANCH  21  23
ATOM     23  C   UNL     1       1.375   2.030   0.015  0.00  0.00    +0.189 C 
BRANCH  23  26
ATOM     24  C   UNL     1       2.582   0.432   1.403  0.00  0.00    +0.401 C 
ATOM     25  O   UNL     1       2.587  -0.337   0.462  0.00  0.00    -0.226 OA
ATOM     26  N   UNL     1       2.000   1.642   1.282  0.00  0.00    -0.268 N 
ATOM     27  H   UNL     1       1.995   2.255   2.033  0.00  0.00    +0.153 HD
BRANCH  24  28
ATOM     28  O   UNL     1       3.156   0.075   2.567  0.00  0.00    -0.445 OA
BRANCH  28  30
ATOM     29  C   UNL     1       4.870  -1.341   1.574  0.00  0.00    +0.055 C 
ATOM     30  C   UNL     1       3.764  -1.242   2.626  0.00  0.00    +0.107 C 
ATOM     31  C   UNL     1       4.361  -1.467   4.017  0.00  0.00    +0.055 C 
ATOM     32  C   UNL     1       2.700  -2.307   2.350  0.00  0.00    +0.055 C 
ENDBRANCH  28  30
ENDBRANCH  24  28
ENDBRANCH  23  26
BRANCH  23  33
ATOM     33  C   UNL     1      -0.059   1.498  -0.030  0.00  0.00    +0.069 C 
BRANCH  33  34
ATOM     34  C   UNL     1      -0.037  -0.008  -0.041  0.00  0.00    -0.045 A 
ATOM     35  C   UNL     1       0.002  -0.690  -1.244  0.00  0.00    +0.004 A 
ATOM     36  C   UNL     1       0.027  -2.072  -1.254  0.00  0.00    +0.000 A 
ATOM     37  C   UNL     1       0.004  -2.773  -0.063  0.00  0.00    +0.000 A 
ATOM     38  C   UNL     1      -0.040  -2.091   1.139  0.00  0.00    +0.000 A 
ATOM     39  C   UNL     1      -0.060  -0.709   1.150  0.00  0.00    +0.004 A 
ENDBRANCH  33  34
ENDBRANCH  23  33
ENDBRANCH  21  23
ENDBRANCH   1  21
TORSDOF 10
