REMARK  Name = ZINC40561870
REMARK  12 active torsions:
REMARK  status: ('A' for Active; 'I' for Inactive)
REMARK    1  A    between atoms: C_1  and  C_2
REMARK    2  A    between atoms: C_2  and  C_3
REMARK    3  A    between atoms: N_16  and  C_34
REMARK    4  A    between atoms: C_17  and  C_19
REMARK    5  A    between atoms: C_22  and  O_25
REMARK    6  A    between atoms: O_25  and  C_26
REMARK    7  A    between atoms: C_26  and  C_27
REMARK    8  A    between atoms: C_34  and  C_35
REMARK    9  A    between atoms: C_35  and  C_36
REMARK   10  A    between atoms: C_36  and  N_37
REMARK   11  A    between atoms: N_37  and  C_38
REMARK   12  A    between atoms: N_37  and  C_39
REMARK                            x       y       z     vdW  Elec       q    Type
REMARK                         _______ _______ _______ _____ _____    ______ ____
ROOT
ATOM      1  C   UNL     1       0.731  -0.503   1.223  0.00  0.00    -0.047 A 
ATOM      2  C   UNL     1       2.103  -0.710   1.173  0.00  0.00    +0.007 A 
ATOM      3  C   UNL     1       2.787  -1.168   2.276  0.00  0.00    +0.047 A 
ATOM      4  C   UNL     1       2.104  -1.430   3.464  0.00  0.00    +0.139 A 
ATOM      5  C   UNL     1       0.717  -1.212   3.504  0.00  0.00    +0.065 A 
ATOM      6  C   UNL     1       0.040  -0.746   2.377  0.00  0.00    +0.019 A 
ATOM      7  C   UNL     1      -0.017  -1.473   4.768  0.00  0.00    +0.199 A 
ATOM      8  O   UNL     1      -1.232  -1.474   4.846  0.00  0.00    -0.287 OA
ATOM      9  C   UNL     1       0.862  -1.732   5.914  0.00  0.00    +0.072 A 
ATOM     10  C   UNL     1       2.204  -1.919   5.744  0.00  0.00    +0.199 A 
ATOM     11  O   UNL     1       2.795  -1.887   4.533  0.00  0.00    -0.450 OA
ATOM     12  C   UNL     1       2.811  -2.146   7.067  0.00  0.00    +0.283 C 
ATOM     13  O   UNL     1       3.993  -2.343   7.266  0.00  0.00    -0.267 OA
ATOM     14  N   UNL     1       1.862  -2.104   8.025  0.00  0.00    -0.284 N 
ATOM     15  C   UNL     1       0.568  -1.843   7.374  0.00  0.00    +0.144 C 
ENDROOT
BRANCH  15  16
ATOM     16  C   UNL     1      -0.021  -0.553   7.885  0.00  0.00    -0.022 A 
ATOM     17  C   UNL     1       0.803   0.527   8.143  0.00  0.00    +0.009 A 
ATOM     18  C   UNL     1       0.266   1.710   8.612  0.00  0.00    +0.046 A 
ATOM     19  C   UNL     1      -1.101   1.814   8.824  0.00  0.00    +0.121 A 
ATOM     20  C   UNL     1      -1.925   0.729   8.564  0.00  0.00    +0.046 A 
ATOM     21  C   UNL     1      -1.384  -0.450   8.090  0.00  0.00    +0.009 A 
BRANCH  19  22
ATOM     22  O   UNL     1      -1.632   2.977   9.286  0.00  0.00    -0.487 OA
BRANCH  22  23
ATOM     23  C   UNL     1      -3.047   3.012   9.481  0.00  0.00    +0.266 C 
BRANCH  23  24
ATOM     24  C   UNL     1      -3.450   4.371   9.993  0.00  0.00    +0.008 A 
ATOM     25  C   UNL     1      -2.491   5.347  10.192  0.00  0.00    +0.008 A 
ATOM     26  C   UNL     1      -2.861   6.593  10.662  0.00  0.00    +0.000 A 
ATOM     27  C   UNL     1      -4.190   6.865  10.931  0.00  0.00    +0.001 A 
ATOM     28  C   UNL     1      -5.149   5.890  10.732  0.00  0.00    +0.020 A 
ATOM     29  C   UNL     1      -4.780   4.644  10.257  0.00  0.00    +0.047 A 
ATOM     30 CL   UNL     1      -5.985   3.421  10.000  0.00  0.00    -0.083 Cl
ENDBRANCH  23  24
ENDBRANCH  22  23
ENDBRANCH  19  22
ENDBRANCH  15  16
BRANCH   1  32
ATOM     31  C   UNL     1      -0.019   1.526   0.010  0.00  0.00    +0.009 C 
ATOM     32  C   UNL     1       0.002  -0.004   0.002  0.00  0.00    +0.032 C 
ENDBRANCH   1  32
BRANCH  14  33
ATOM     33  C   UNL     1       2.081  -2.286   9.462  0.00  0.00    +0.107 C 
BRANCH  33  34
ATOM     34  C   UNL     1       2.369  -0.930  10.110  0.00  0.00    +0.000 C 
BRANCH  34  35
ATOM     35  C   UNL     1       2.598  -1.121  11.611  0.00  0.00    -0.078 C 
BRANCH  35  36
ATOM     36  N   UNL     1       2.875   0.181  12.233  0.00  0.00    +0.376 N 
ATOM     37  C   UNL     1       1.686   1.037  12.127  0.00  0.00    -0.097 C 
ATOM     38  C   UNL     1       3.212  -0.015  13.649  0.00  0.00    -0.097 C 
ATOM     39  H   UNL     1       3.650   0.622  11.761  0.00  0.00    -0.083 HD
ENDBRANCH  35  36
ENDBRANCH  34  35
ENDBRANCH  33  34
ENDBRANCH  14  33
TORSDOF 9
