REMARK  Name = ZINC16037810
REMARK  8 active torsions:
REMARK  status: ('A' for Active; 'I' for Inactive)
REMARK    1  A    between atoms: C_1  and  C_2
REMARK    2  A    between atoms: C_7  and  C_9
REMARK    3  A    between atoms: C_7  and  C_10
REMARK    4  A    between atoms: N_11  and  C_13
REMARK    5  A    between atoms: C_13  and  N_14
REMARK    6  A    between atoms: N_22  and  N_23
REMARK    7  A    between atoms: C_24  and  C_26
REMARK    8  A    between atoms: C_26  and  C_27
REMARK                            x       y       z     vdW  Elec       q    Type
REMARK                         _______ _______ _______ _____ _____    ______ ____
ROOT
ATOM      1  N   UNL     1       1.335  -2.447  -3.369  0.00  0.00    -0.282 N 
ATOM      2  C   UNL     1       0.863  -2.575  -4.671  0.00  0.00    +0.044 A 
ATOM      3  C   UNL     1      -0.341  -3.056  -5.173  0.00  0.00    +0.025 A 
ATOM      4  C   UNL     1      -0.565  -3.076  -6.535  0.00  0.00    +0.017 A 
ATOM      5  C   UNL     1       0.402  -2.621  -7.416  0.00  0.00    +0.019 A 
ATOM      6  C   UNL     1       1.605  -2.140  -6.935  0.00  0.00    +0.027 A 
ATOM      7  C   UNL     1       1.838  -2.115  -5.565  0.00  0.00    +0.029 A 
ATOM      8  C   UNL     1       2.988  -1.675  -4.740  0.00  0.00    +0.153 C 
ATOM      9  N   UNL     1       4.125  -1.174  -5.158  0.00  0.00    -0.175 NA
ATOM     10  C   UNL     1       2.572  -1.921  -3.344  0.00  0.00    +0.270 C 
ATOM     11  O   UNL     1       3.232  -1.690  -2.349  0.00  0.00    -0.268 OA
ATOM     12 BR   UNL     1       0.076  -2.658  -9.279  0.00  0.00    -0.050 Br
ENDROOT
BRANCH   9  13
ATOM     13  N   UNL     1       5.111  -0.808  -4.232  0.00  0.00    -0.206 N 
ATOM     14  C   UNL     1       6.280  -0.292  -4.662  0.00  0.00    +0.237 C 
ATOM     15  O   UNL     1       6.478  -0.145  -5.849  0.00  0.00    -0.274 OA
ATOM     16  H   UNL     1       4.953  -0.927  -3.283  0.00  0.00    +0.177 HD
BRANCH  14  17
ATOM     17  C   UNL     1       7.341   0.100  -3.667  0.00  0.00    +0.132 C 
BRANCH  17  18
ATOM     18  C   UNL     1       8.540   0.645  -4.399  0.00  0.00    -0.039 A 
ATOM     19  C   UNL     1       9.551  -0.207  -4.801  0.00  0.00    +0.004 A 
ATOM     20  C   UNL     1      10.651   0.293  -5.473  0.00  0.00    +0.000 A 
ATOM     21  C   UNL     1      10.739   1.645  -5.744  0.00  0.00    +0.000 A 
ATOM     22  C   UNL     1       9.727   2.498  -5.344  0.00  0.00    +0.000 A 
ATOM     23  C   UNL     1       8.625   1.997  -4.675  0.00  0.00    +0.004 A 
ENDBRANCH  17  18
ENDBRANCH  14  17
ENDBRANCH   9  13
BRANCH   1  24
ATOM     24  C   UNL     1       0.578  -2.831  -2.175  0.00  0.00    +0.039 C 
BRANCH  24  34
ATOM     25  C   UNL     1      -0.019   1.532   0.011  0.00  0.00    +0.009 C 
ATOM     26  C   UNL     1       0.002  -0.004   0.002  0.00  0.00    -0.048 C 
ATOM     27  C   UNL     1      -1.426  -0.615   0.004  0.00  0.00    -0.011 C 
ATOM     28  C   UNL     1      -1.101  -2.018  -0.581  0.00  0.00    -0.065 C 
ATOM     29  C   UNL     1      -0.397  -2.817   0.499  0.00  0.00    -0.009 C 
ATOM     30  C   UNL     1       0.663  -2.102   1.307  0.00  0.00    -0.036 C 
ATOM     31  C   UNL     1       0.727  -0.591   1.214  0.00  0.00    +0.011 C 
ATOM     32  C   UNL     1       0.412  -2.453   2.797  0.00  0.00    +0.011 C 
ATOM     33  C   UNL     1       2.047  -2.686   0.964  0.00  0.00    +0.011 C 
ATOM     34  N   UNL     1      -0.211  -1.695  -1.714  0.00  0.00    +0.393 N 
ATOM     35  C   UNL     1       0.647  -0.577  -1.281  0.00  0.00    -0.070 C 
ATOM     36  H   UNL     1      -0.789  -1.365  -2.490  0.00  0.00    -0.079 HD
ENDBRANCH  24  34
ENDBRANCH   1  24
TORSDOF 5
