REMARK  Name = ZINC39465718
REMARK  5 active torsions:
REMARK  status: ('A' for Active; 'I' for Inactive)
REMARK    1  A    between atoms: C_1  and  C_2
REMARK    2  A    between atoms: C_2  and  O_3
REMARK    3  A    between atoms: O_3  and  P_4
REMARK    4  A    between atoms: C_13  and  C_20
REMARK    5  A    between atoms: C_20  and  C_21
REMARK                            x       y       z     vdW  Elec       q    Type
REMARK                         _______ _______ _______ _____ _____    ______ ____
ROOT
ATOM      1  P   UNL     1       2.339  -2.752   1.464  0.00  0.00    +0.421 P 
ATOM      2  O   UNL     1       3.011  -3.583   0.440  0.00  0.00    -0.239 OA
ATOM      3  N   UNL     1       0.815  -3.321   1.756  0.00  0.00    -0.156 NA
ATOM      4  N   UNL     1       0.244  -2.967   2.958  0.00  0.00    -0.224 NA
ATOM      5  C   UNL     1      -1.095  -3.566   3.070  0.00  0.00    +0.108 C 
ATOM      6  C   UNL     1      -1.835  -2.904   4.232  0.00  0.00    +0.052 C 
ATOM      7  C   UNL     1      -0.977  -2.948   5.471  0.00  0.00    -0.040 A 
ATOM      8  C   UNL     1      -1.583  -2.769   6.704  0.00  0.00    +0.018 A 
ATOM      9  C   UNL     1      -0.831  -2.802   7.862  0.00  0.00    +0.017 A 
ATOM     10  C   UNL     1       0.533  -3.015   7.789  0.00  0.00    -0.030 A 
ATOM     11  C   UNL     1       1.137  -3.194   6.561  0.00  0.00    +0.010 A 
ATOM     12  C   UNL     1       0.383  -3.161   5.396  0.00  0.00    -0.023 A 
ATOM     13  C   UNL     1       1.091  -3.363   4.083  0.00  0.00    +0.130 C 
ATOM     14  C   UNL     1       2.400  -2.568   4.092  0.00  0.00    +0.196 C 
ATOM     15  O   UNL     1       3.127  -2.862   2.883  0.00  0.00    -0.294 OA
ATOM     16  I   UNL     1      -1.754  -2.530   9.723  0.00  0.00    -0.044 I 
ATOM     17  H   UNL     1       0.346  -3.877   1.113  0.00  0.00    +0.153 HD
ENDROOT
BRANCH   1  18
ATOM     18  O   UNL     1       2.277  -1.217   0.980  0.00  0.00    -0.296 OA
BRANCH  18  20
ATOM     19  C   UNL     1       1.899   0.694  -0.450  0.00  0.00    +0.035 C 
ATOM     20  C   UNL     1       1.834  -0.829  -0.322  0.00  0.00    +0.168 C 
ENDBRANCH  18  20
ENDBRANCH   1  18
BRANCH  10  21
ATOM     21  C   UNL     1       1.360  -3.050   9.048  0.00  0.00    +0.071 C 
BRANCH  21  22
ATOM     22  C   UNL     1       1.401  -4.459   9.583  0.00  0.00    -0.043 A 
ATOM     23  C   UNL     1       0.522  -4.847  10.576  0.00  0.00    +0.004 A 
ATOM     24  C   UNL     1       0.559  -6.139  11.067  0.00  0.00    +0.000 A 
ATOM     25  C   UNL     1       1.476  -7.043  10.563  0.00  0.00    +0.000 A 
ATOM     26  C   UNL     1       2.354  -6.655   9.569  0.00  0.00    +0.000 A 
ATOM     27  C   UNL     1       2.314  -5.364   9.075  0.00  0.00    +0.004 A 
ENDBRANCH  21  22
ENDBRANCH  10  21
TORSDOF 4
