REMARK  Name = ZINC19863507
REMARK  3 active torsions:
REMARK  status: ('A' for Active; 'I' for Inactive)
REMARK    1  A    between atoms: C_8  and  S_10
REMARK    2  A    between atoms: S_10  and  C_11
REMARK    3  A    between atoms: C_12  and  C_17
REMARK                            x       y       z     vdW  Elec       q    Type
REMARK                         _______ _______ _______ _____ _____    ______ ____
ROOT
ATOM      1  C   UNL     1       0.052   3.807   0.022  0.00  0.00    +0.116 A 
ATOM      2  C   UNL     1      -1.191   3.154   0.030  0.00  0.00    +0.044 A 
ATOM      3  C   UNL     1      -1.218   1.757   0.017  0.00  0.00    +0.015 A 
ATOM      4  C   UNL     1      -0.013   1.076   0.008  0.00  0.00    +0.020 A 
ATOM      5  C   UNL     1       1.172   1.789   0.001  0.00  0.00    +0.112 A 
ATOM      6  N   UNL     1       1.175   3.108   0.008  0.00  0.00    -0.248 NA
ENDROOT
BRANCH   2   7
ATOM      7  C   UNL     1      -2.449   3.931   0.045  0.00  0.00    +0.097 C 
ATOM      8  N   UNL     1      -2.410   5.234   0.052  0.00  0.00    -0.387 N 
ATOM      9  N   UNL     1      -3.662   3.277   0.053  0.00  0.00    -0.344 N 
ATOM     10  H   UNL     1      -3.346   5.812   0.063  0.00  0.00    +0.157 HD
ATOM     11  H   UNL     1      -4.598   3.855   0.064  0.00  0.00    +0.144 HD
ATOM     12  H   UNL     1      -3.695   2.178   0.048  0.00  0.00    +0.144 HD
ATOM     13  H   UNL     1      -1.442   5.756   0.045  0.00  0.00    +0.157 HD
ENDBRANCH   2   7
BRANCH   1  14
ATOM     14  S   UNL     1       0.116   5.568   0.031  0.00  0.00    -0.011 S 
BRANCH  14  22
ATOM     15  C   UNL     1       6.178   7.115  -0.015  0.00  0.00    +0.002 A 
ATOM     16  C   UNL     1       6.373   5.742  -0.024  0.00  0.00    +0.004 A 
ATOM     17  C   UNL     1       5.294   4.881  -0.020  0.00  0.00    +0.048 A 
ATOM     18  C   UNL     1       4.005   5.390  -0.006  0.00  0.00    +0.156 A 
ATOM     19  C   UNL     1       3.803   6.778   0.003  0.00  0.00    +0.110 A 
ATOM     20  C   UNL     1       4.903   7.637  -0.002  0.00  0.00    +0.031 A 
ATOM     21  N   UNL     1       2.457   6.976   0.016  0.00  0.00    -0.203 NA
ATOM     22  C   UNL     1       1.861   5.810   0.016  0.00  0.00    +0.264 A 
ATOM     23  O   UNL     1       2.776   4.825   0.007  0.00  0.00    -0.430 OA
ENDBRANCH  14  22
ENDBRANCH   1  14
TORSDOF 3
