REMARK  Name = ZINC08444153
REMARK  5 active torsions:
REMARK  status: ('A' for Active; 'I' for Inactive)
REMARK    1  A    between atoms: C_1  and  C_2
REMARK    2  A    between atoms: C_6  and  N_8
REMARK    3  A    between atoms: C_12  and  C_13
REMARK    4  A    between atoms: C_16  and  C_18
REMARK    5  A    between atoms: C_25  and  C_27
REMARK                            x       y       z     vdW  Elec       q    Type
REMARK                         _______ _______ _______ _____ _____    ______ ____
ROOT
ATOM      1  N   UNL     1      -1.812   1.601   3.185  0.00  0.00    -0.156 N 
ATOM      2  C   UNL     1      -1.665   2.911   2.901  0.00  0.00    +0.272 C 
ATOM      3  O   UNL     1      -2.053   3.855   3.570  0.00  0.00    -0.268 OA
ATOM      4  C   UNL     1      -0.940   2.972   1.626  0.00  0.00    +0.065 C 
ATOM      5  C   UNL     1      -0.549   4.113   0.926  0.00  0.00    +0.061 C 
ATOM      6  C   UNL     1      -0.718   1.572   1.248  0.00  0.00    +0.069 C 
ATOM      7  N   UNL     1      -1.235   0.827   2.178  0.00  0.00    -0.177 NA
ATOM      8  C   UNL     1      -0.013   1.086   0.008  0.00  0.00    +0.068 C 
ENDROOT
BRANCH   1  14
ATOM      9  C   UNL     1      -3.273  -2.267   5.846  0.00  0.00    +0.044 C 
ATOM     10  C   UNL     1      -3.171  -0.778   5.638  0.00  0.00    -0.049 A 
ATOM     11  C   UNL     1      -3.707   0.088   6.574  0.00  0.00    +0.003 A 
ATOM     12  C   UNL     1      -3.616   1.455   6.387  0.00  0.00    +0.002 A 
ATOM     13  C   UNL     1      -2.983   1.960   5.268  0.00  0.00    +0.025 A 
ATOM     14  C   UNL     1      -2.449   1.093   4.324  0.00  0.00    +0.061 A 
ATOM     15  C   UNL     1      -2.542  -0.280   4.514  0.00  0.00    +0.028 A 
ENDBRANCH   1  14
BRANCH   5  16
ATOM     16  C   UNL     1      -0.844   5.384   1.436  0.00  0.00    +0.129 A 
ATOM     17  C   UNL     1      -0.510   6.597   0.846  0.00  0.00    +0.050 A 
ATOM     18  C   UNL     1      -0.996   7.598   1.683  0.00  0.00    +0.050 A 
ATOM     19  C   UNL     1      -1.600   6.972   2.756  0.00  0.00    +0.136 A 
ATOM     20  O   UNL     1      -1.498   5.643   2.589  0.00  0.00    -0.455 OA
BRANCH  19  21
ATOM     21  C   UNL     1      -2.248   7.650   3.894  0.00  0.00    +0.017 A 
ATOM     22  C   UNL     1      -2.281   9.046   3.954  0.00  0.00    +0.012 A 
ATOM     23  C   UNL     1      -2.894   9.673   5.018  0.00  0.00    +0.016 A 
ATOM     24  C   UNL     1      -3.464   8.922   6.033  0.00  0.00    +0.018 A 
ATOM     25  C   UNL     1      -3.430   7.539   5.983  0.00  0.00    +0.016 A 
ATOM     26  C   UNL     1      -2.826   6.899   4.921  0.00  0.00    +0.012 A 
ATOM     27 BR   UNL     1      -4.294   9.791   7.493  0.00  0.00    -0.050 Br
ENDBRANCH  19  21
ENDBRANCH   5  16
TORSDOF 3
