REMARK  Name = ZINC63619668
REMARK  4 active torsions:
REMARK  status: ('A' for Active; 'I' for Inactive)
REMARK    1  A    between atoms: C_1  and  N_2
REMARK    2  A    between atoms: C_3  and  S_19
REMARK    3  A    between atoms: S_19  and  C_20
REMARK    4  A    between atoms: C_20  and  C_21
REMARK                            x       y       z     vdW  Elec       q    Type
REMARK                         _______ _______ _______ _____ _____    ______ ____
ROOT
ATOM      1  C   UNL     1      -0.523   1.945  -0.390  0.00  0.00    +0.134 C 
ATOM      2  N   UNL     1      -0.142   0.531  -0.350  0.00  0.00    -0.279 N 
ATOM      3  C   UNL     1      -1.150  -0.464  -0.021  0.00  0.00    +0.205 C 
ATOM      4  N   UNL     1      -0.685  -1.625   0.744  0.00  0.00    -0.277 NA
ATOM      5  C   UNL     1       0.736  -1.538   1.038  0.00  0.00    +0.135 C 
ATOM      6  C   UNL     1       1.427  -1.255  -0.331  0.00  0.00    +0.129 C 
ATOM      7  C   UNL     1       1.154   0.182  -0.628  0.00  0.00    +0.227 C 
ATOM      8  O   UNL     1       1.984   0.953  -1.062  0.00  0.00    -0.275 OA
ATOM      9  C   UNL     1       2.807  -1.783  -0.375  0.00  0.00    -0.046 C 
ATOM     10  C   UNL     1       3.052  -2.828   0.430  0.00  0.00    -0.013 C 
ATOM     11  S   UNL     1       1.530  -3.159   1.361  0.00  0.00    -0.110 S 
ATOM     12  C   UNL     1       4.338  -3.589   0.552  0.00  0.00    +0.042 C 
ATOM     13  C   UNL     1       5.250  -3.216  -0.624  0.00  0.00    +0.005 C 
ATOM     14  C   UNL     1       5.266  -1.690  -0.759  0.00  0.00    +0.005 C 
ATOM     15  C   UNL     1       3.906  -1.210  -1.264  0.00  0.00    +0.032 C 
ATOM     16  H   UNL     1      -1.223  -1.738   1.591  0.00  0.00    +0.126 HD
ENDROOT
BRANCH   3  17
ATOM     17  S   UNL     1      -2.458   0.351   0.935  0.00  0.00    -0.119 S 
BRANCH  17  18
ATOM     18  C   UNL     1      -1.639   0.825   2.483  0.00  0.00    +0.119 C 
BRANCH  18  19
ATOM     19  C   UNL     1      -2.605   1.647   3.340  0.00  0.00    +0.184 C 
ATOM     20  N   UNL     1      -3.833   0.882   3.589  0.00  0.00    -0.363 N 
ATOM     21  C   UNL     1      -4.824   1.558   3.082  0.00  0.00    +0.060 A 
ATOM     22  C   UNL     1      -6.271   1.312   3.016  0.00  0.00    +0.027 A 
ATOM     23  C   UNL     1      -7.072   2.212   2.412  0.00  0.00    +0.002 A 
ATOM     24  C   UNL     1      -6.580   3.394   1.831  0.00  0.00    +0.002 A 
ATOM     25  C   UNL     1      -5.271   3.716   1.835  0.00  0.00    +0.027 A 
ATOM     26  C   UNL     1      -4.303   2.809   2.467  0.00  0.00    +0.060 A 
ATOM     27  N   UNL     1      -3.011   2.860   2.618  0.00  0.00    -0.363 N 
ATOM     28  H   UNL     1      -3.895   0.030   4.048  0.00  0.00    +0.162 HD
ATOM     29  H   UNL     1      -2.425   3.568   2.311  0.00  0.00    +0.162 HD
ENDBRANCH  18  19
ENDBRANCH  17  18
ENDBRANCH   3  17
TORSDOF 3
