REMARK  Name = ZINC20635477
REMARK  7 active torsions:
REMARK  status: ('A' for Active; 'I' for Inactive)
REMARK    1  A    between atoms: C_1  and  C_2
REMARK    2  A    between atoms: C_2  and  C_3
REMARK    3  A    between atoms: C_2  and  C_4
REMARK    4  A    between atoms: C_4  and  C_5
REMARK    5  A    between atoms: C_5  and  O_6
REMARK    6  A    between atoms: O_6  and  C_7
REMARK    7  A    between atoms: C_10  and  C_13
REMARK                            x       y       z     vdW  Elec       q    Type
REMARK                         _______ _______ _______ _____ _____    ______ ____
ROOT
ATOM      1  C   UNL     1      -3.429  -8.125  -0.572  0.00  0.00    +0.090 C 
ATOM      2  C   UNL     1      -4.214  -8.423  -1.813  0.00  0.00    +0.044 A 
ATOM      3  C   UNL     1      -3.610  -8.360  -3.067  0.00  0.00    +0.127 A 
ATOM      4  N   UNL     1      -4.341  -8.628  -4.146  0.00  0.00    -0.199 NA
ATOM      5  C   UNL     1      -5.622  -8.949  -4.038  0.00  0.00    +0.221 A 
ATOM      6  N   UNL     1      -6.226  -9.019  -2.861  0.00  0.00    -0.199 NA
ATOM      7  C   UNL     1      -5.556  -8.765  -1.740  0.00  0.00    +0.134 A 
ATOM      8  N   UNL     1      -6.179  -8.842  -0.506  0.00  0.00    -0.302 N 
ATOM      9  C   UNL     1      -5.440  -8.968   0.638  0.00  0.00    +0.017 C 
ATOM     10  C   UNL     1      -4.131  -8.641   0.659  0.00  0.00    +0.024 C 
ATOM     11  C   UNL     1      -3.376  -8.768   1.838  0.00  0.00    +0.162 C 
ATOM     12  O   UNL     1      -2.194  -8.483   1.821  0.00  0.00    -0.292 OA
ATOM     13  C   UNL     1      -3.999  -9.248   3.120  0.00  0.00    +0.080 C 
ATOM     14  C   UNL     1      -5.486  -8.877   3.118  0.00  0.00    +0.014 C 
ATOM     15  C   UNL     1      -6.132  -9.487   1.876  0.00  0.00    +0.051 C 
ATOM     16  N   UNL     1      -6.348  -9.218  -5.185  0.00  0.00    -0.300 N 
ATOM     17  C   UNL     1      -7.772  -9.572  -5.103  0.00  0.00    +0.108 C 
ATOM     18  C   UNL     1      -8.566  -8.633  -6.017  0.00  0.00    +0.019 C 
ATOM     19  C   UNL     1      -7.984  -8.692  -7.431  0.00  0.00    +0.003 C 
ATOM     20  C   UNL     1      -6.528  -8.222  -7.405  0.00  0.00    +0.019 C 
ATOM     21  C   UNL     1      -5.712  -9.150  -6.507  0.00  0.00    +0.108 C 
ATOM     22  N   UNL     1      -2.271  -8.024  -3.188  0.00  0.00    -0.343 N 
ATOM     23  H   UNL     1      -7.146  -8.807  -0.452  0.00  0.00    +0.153 HD
ATOM     24  H   UNL     1      -1.746  -7.831  -2.396  0.00  0.00    +0.144 HD
ATOM     25  H   UNL     1      -1.859  -7.983  -4.065  0.00  0.00    +0.144 HD
ENDROOT
BRANCH   1  29
ATOM     26  C   UNL     1      -2.919  -3.897  -0.222  0.00  0.00    +0.121 A 
ATOM     27  C   UNL     1      -1.810  -4.724  -0.333  0.00  0.00    +0.046 A 
ATOM     28  C   UNL     1      -1.978  -6.090  -0.445  0.00  0.00    +0.008 A 
ATOM     29  C   UNL     1      -3.249  -6.634  -0.448  0.00  0.00    -0.035 A 
ATOM     30  C   UNL     1      -4.356  -5.812  -0.338  0.00  0.00    +0.008 A 
ATOM     31  C   UNL     1      -4.193  -4.446  -0.220  0.00  0.00    +0.046 A 
BRANCH  26  32
ATOM     32  O   UNL     1      -2.756  -2.552  -0.111  0.00  0.00    -0.492 OA
BRANCH  32  33
ATOM     33  C   UNL     1      -1.416  -2.058  -0.121  0.00  0.00    +0.229 C 
BRANCH  33  34
ATOM     34  C   UNL     1      -1.433  -0.534   0.013  0.00  0.00    +0.044 C 
BRANCH  34  36
ATOM     35  C   UNL     1      -0.019   1.526   0.010  0.00  0.00    +0.007 C 
ATOM     36  C   UNL     1       0.002  -0.004   0.002  0.00  0.00    -0.014 C 
ATOM     37  C   UNL     1       0.742  -0.511   1.242  0.00  0.00    +0.007 C 
ENDBRANCH  34  36
ENDBRANCH  33  34
ENDBRANCH  32  33
ENDBRANCH  26  32
ENDBRANCH   1  29
TORSDOF 5
