REMARK  Name = ZINC08871919
REMARK  7 active torsions:
REMARK  status: ('A' for Active; 'I' for Inactive)
REMARK    1  A    between atoms: C_7  and  N_22
REMARK    2  A    between atoms: C_9  and  S_12
REMARK    3  A    between atoms: C_10  and  O_11
REMARK    4  A    between atoms: S_12  and  C_13
REMARK    5  A    between atoms: N_22  and  S_23
REMARK    6  A    between atoms: S_23  and  C_26
REMARK    7  A    between atoms: C_30  and  N_32
REMARK                            x       y       z     vdW  Elec       q    Type
REMARK                         _______ _______ _______ _____ _____    ______ ____
ROOT
ATOM      1  C   UNL     1       9.319   2.796   0.147  0.00  0.00    +0.001 A 
ATOM      2  C   UNL     1       8.992   4.146   0.266  0.00  0.00    +0.001 A 
ATOM      3  C   UNL     1       7.695   4.557   0.228  0.00  0.00    +0.012 A 
ATOM      4  C   UNL     1       6.669   3.610   0.065  0.00  0.00    +0.026 A 
ATOM      5  C   UNL     1       7.003   2.238  -0.057  0.00  0.00    +0.008 A 
ATOM      6  C   UNL     1       8.352   1.851  -0.012  0.00  0.00    +0.010 A 
ATOM      7  C   UNL     1       5.977   1.283  -0.220  0.00  0.00    +0.057 A 
ATOM      8  C   UNL     1       4.663   1.692  -0.254  0.00  0.00    +0.044 A 
ATOM      9  C   UNL     1       4.333   3.046  -0.139  0.00  0.00    +0.058 A 
ATOM     10  C   UNL     1       5.318   4.002   0.021  0.00  0.00    +0.138 A 
ENDROOT
BRANCH  10  11
ATOM     11  O   UNL     1       4.984   5.316   0.136  0.00  0.00    -0.505 OA
ATOM     12  H   UNL     1       4.832   5.604   1.047  0.00  0.00    +0.292 HD
ENDBRANCH  10  11
BRANCH   7  13
ATOM     13  N   UNL     1       6.292  -0.072  -0.341  0.00  0.00    -0.216 N 
ATOM     14  H   UNL     1       7.040  -0.442   0.154  0.00  0.00    +0.174 HD
BRANCH  13  15
ATOM     15  S   UNL     1       5.391  -1.047  -1.331  0.00  0.00    +0.072 S 
ATOM     16  O   UNL     1       6.032  -2.315  -1.346  0.00  0.00    -0.150 OA
ATOM     17  O   UNL     1       4.035  -0.883  -0.937  0.00  0.00    -0.150 OA
BRANCH  15  18
ATOM     18  C   UNL     1       5.523  -0.396  -2.963  0.00  0.00    +0.111 A 
ATOM     19  C   UNL     1       6.535  -0.829  -3.800  0.00  0.00    +0.029 A 
ATOM     20  C   UNL     1       6.638  -0.320  -5.080  0.00  0.00    +0.004 A 
ATOM     21  C   UNL     1       5.730   0.623  -5.525  0.00  0.00    +0.033 A 
ATOM     22  C   UNL     1       4.719   1.056  -4.688  0.00  0.00    +0.128 A 
ATOM     23  C   UNL     1       4.612   0.543  -3.409  0.00  0.00    +0.061 A 
BRANCH  22  24
ATOM     24  N   UNL     1       3.746   2.066  -5.164  0.00  0.00    +0.056 N 
ATOM     25  O   UNL     1       3.837   2.515  -6.292  0.00  0.00    -0.126 OA
ATOM     26  O   UNL     1       2.855   2.447  -4.426  0.00  0.00    -0.126 OA
ENDBRANCH  22  24
ENDBRANCH  15  18
ENDBRANCH  13  15
ENDBRANCH   7  13
BRANCH   9  27
ATOM     27  S   UNL     1       2.642   3.538  -0.193  0.00  0.00    -0.059 S 
BRANCH  27  28
ATOM     28  C   UNL     1       2.362   3.858   1.517  0.00  0.00    +0.140 A 
ATOM     29  N   UNL     1       3.170   3.662   2.536  0.00  0.00    -0.232 NA
ATOM     30  C   UNL     1       2.818   3.956   3.806  0.00  0.00    +0.079 A 
ATOM     31  C   UNL     1       3.586   3.797   4.983  0.00  0.00    +0.029 A 
ATOM     32  C   UNL     1       3.076   4.149   6.205  0.00  0.00    +0.002 A 
ATOM     33  C   UNL     1       1.797   4.671   6.333  0.00  0.00    +0.001 A 
ATOM     34  C   UNL     1       1.018   4.840   5.203  0.00  0.00    +0.017 A 
ATOM     35  C   UNL     1       1.521   4.491   3.975  0.00  0.00    +0.040 A 
ATOM     36  S   UNL     1       0.907   4.530   2.308  0.00  0.00    -0.061 S 
ENDBRANCH  27  28
ENDBRANCH   9  27
TORSDOF 7
