REMARK  Name = ZINC09588641
REMARK  8 active torsions:
REMARK  status: ('A' for Active; 'I' for Inactive)
REMARK    1  A    between atoms: C_1  and  C_2
REMARK    2  A    between atoms: C_2  and  C_3
REMARK    3  A    between atoms: C_3  and  N_4
REMARK    4  A    between atoms: C_5  and  C_7
REMARK    5  A    between atoms: C_7  and  N_64
REMARK    6  A    between atoms: C_20  and  C_22
REMARK    7  A    between atoms: C_22  and  S_23
REMARK    8  A    between atoms: S_23  and  C_24
REMARK                            x       y       z     vdW  Elec       q    Type
REMARK                         _______ _______ _______ _____ _____    ______ ____
ROOT
ATOM      1  C   UNL     1       9.963  -0.254   4.398  0.00  0.00    -0.059 C 
ATOM      2  C   UNL     1       9.230   0.075   3.095  0.00  0.00    +0.088 C 
ATOM      3  N   UNL     1       8.972  -1.168   2.354  0.00  0.00    -0.318 N 
ATOM      4  C   UNL     1       8.156  -2.094   3.153  0.00  0.00    +0.088 C 
ATOM      5  C   UNL     1       8.889  -2.422   4.456  0.00  0.00    -0.059 C 
ATOM      6  C   UNL     1       8.373  -0.904   1.136  0.00  0.00    +0.133 A 
ATOM      7  C   UNL     1       9.031  -1.239  -0.080  0.00  0.00    +0.051 A 
ATOM      8  C   UNL     1      10.349  -1.869  -0.263  0.00  0.00    -0.025 A 
ATOM      9  C   UNL     1      10.748  -2.084  -1.527  0.00  0.00    -0.004 A 
ATOM     10  S   UNL     1       9.422  -1.472  -2.542  0.00  0.00    -0.073 S 
ATOM     11  C   UNL     1       8.329  -0.926  -1.258  0.00  0.00    +0.114 A 
ATOM     12  N   UNL     1       7.139  -0.357  -1.220  0.00  0.00    -0.224 NA
ATOM     13  C   UNL     1       6.577  -0.069  -0.063  0.00  0.00    +0.142 A 
ATOM     14  N   UNL     1       7.181  -0.331   1.083  0.00  0.00    -0.216 NA
ATOM     15  C   UNL     1      12.104  -2.735  -1.592  0.00  0.00    +0.043 C 
ATOM     16  C   UNL     1      12.330  -3.302  -0.173  0.00  0.00    +0.010 C 
ATOM     17  C   UNL     1      11.446  -2.371   0.680  0.00  0.00    +0.037 C 
ATOM     18  N   UNL     1       9.122  -1.166   5.200  0.00  0.00    +0.387 N 
ATOM     19  H   UNL     1       8.219  -0.714   5.383  0.00  0.00    -0.081 HD
ENDROOT
BRANCH  18  20
ATOM     20  C   UNL     1       9.783  -1.459   6.490  0.00  0.00    +0.019 C 
BRANCH  20  22
ATOM     21  N   UNL     1       9.185  -2.571   8.618  0.00  0.00    -0.317 N 
ATOM     22  C   UNL     1       8.816  -2.205   7.374  0.00  0.00    +0.196 C 
ATOM     23  O   UNL     1       7.707  -2.476   6.966  0.00  0.00    -0.278 OA
ATOM     24  H   UNL     1      10.072  -2.354   8.944  0.00  0.00    +0.149 HD
BRANCH  21  25
ATOM     25  C   UNL     1       8.245  -3.296   9.477  0.00  0.00    +0.104 C 
BRANCH  25  27
ATOM     26  C   UNL     1       7.926  -4.345  11.722  0.00  0.00    +0.005 C 
ATOM     27  C   UNL     1       8.908  -3.587  10.825  0.00  0.00    +0.015 C 
ENDBRANCH  25  27
ENDBRANCH  21  25
ENDBRANCH  20  22
ENDBRANCH  18  20
BRANCH  13  28
ATOM     28  C   UNL     1       5.218   0.581  -0.046  0.00  0.00    +0.150 C 
BRANCH  28  29
ATOM     29  S   UNL     1       3.935  -0.702  -0.012  0.00  0.00    -0.117 S 
BRANCH  29  30
ATOM     30  C   UNL     1       2.425   0.206   0.005  0.00  0.00    +0.008 A 
ATOM     31  C   UNL     1       1.209  -0.466   0.032  0.00  0.00    +0.015 A 
ATOM     32  C   UNL     1       0.028   0.249   0.044  0.00  0.00    +0.001 A 
ATOM     33  C   UNL     1       0.053   1.631   0.030  0.00  0.00    +0.000 A 
ATOM     34  C   UNL     1       1.262   2.304   0.003  0.00  0.00    +0.001 A 
ATOM     35  C   UNL     1       2.447   1.596  -0.010  0.00  0.00    +0.015 A 
ENDBRANCH  29  30
ENDBRANCH  28  29
ENDBRANCH  13  28
TORSDOF 7
