REMARK  Name = ZINC08820798
REMARK  5 active torsions:
REMARK  status: ('A' for Active; 'I' for Inactive)
REMARK    1  A    between atoms: C_5  and  C_7
REMARK    2  A    between atoms: C_7  and  O_8
REMARK    3  A    between atoms: O_8  and  C_9
REMARK    4  A    between atoms: C_12  and  C_15
REMARK    5  A    between atoms: N_21  and  C_22
REMARK                            x       y       z     vdW  Elec       q    Type
REMARK                         _______ _______ _______ _____ _____    ______ ____
ROOT
ATOM      1  C   UNL     1      -0.771  -8.240  -0.036  0.00  0.00    +0.028 C 
ATOM      2  C   UNL     1      -1.803  -8.804   0.641  0.00  0.00    +0.078 C 
ATOM      3  C   UNL     1      -2.110 -10.230   0.860  0.00  0.00    +0.256 C 
ATOM      4  O   UNL     1      -1.399 -11.111   0.412  0.00  0.00    -0.269 OA
ATOM      5  N   UNL     1      -3.193 -10.509   1.566  0.00  0.00    -0.260 N 
ATOM      6  C   UNL     1      -3.986  -9.498   2.065  0.00  0.00    +0.166 C 
ATOM      7  N   UNL     1      -5.085  -9.598   2.778  0.00  0.00    -0.226 NA
ATOM      8  S   UNL     1      -3.152  -8.019   1.512  0.00  0.00    -0.049 S 
ATOM      9  H   UNL     1      -3.432 -11.434   1.734  0.00  0.00    +0.157 HD
ENDROOT
BRANCH   7  10
ATOM     10  C   UNL     1      -5.741  -8.467   3.187  0.00  0.00    +0.068 A 
ATOM     11  C   UNL     1      -5.023  -7.394   3.719  0.00  0.00    +0.031 A 
ATOM     12  C   UNL     1      -5.689  -6.258   4.129  0.00  0.00    +0.042 A 
ATOM     13  C   UNL     1      -7.067  -6.179   4.013  0.00  0.00    +0.142 A 
ATOM     14  C   UNL     1      -7.785  -7.241   3.486  0.00  0.00    +0.078 A 
ATOM     15  C   UNL     1      -7.129  -8.381   3.067  0.00  0.00    +0.050 A 
ATOM     16 CL   UNL     1      -9.512  -7.134   3.345  0.00  0.00    -0.081 Cl
ATOM     17  F   UNL     1      -7.713  -5.064   4.417  0.00  0.00    -0.204 F 
ENDBRANCH   7  10
BRANCH   1  21
ATOM     18  C   UNL     1      -0.701  -4.050  -0.689  0.00  0.00    +0.121 A 
ATOM     19  C   UNL     1       0.464  -4.794  -0.838  0.00  0.00    +0.046 A 
ATOM     20  C   UNL     1       0.447  -6.154  -0.627  0.00  0.00    +0.011 A 
ATOM     21  C   UNL     1      -0.747  -6.789  -0.262  0.00  0.00    -0.024 A 
ATOM     22  C   UNL     1      -1.917  -6.035  -0.113  0.00  0.00    +0.011 A 
ATOM     23  C   UNL     1      -1.887  -4.674  -0.321  0.00  0.00    +0.046 A 
BRANCH  18  24
ATOM     24  O   UNL     1      -0.679  -2.709  -0.898  0.00  0.00    -0.487 OA
BRANCH  24  25
ATOM     25  C   UNL     1       0.573  -2.132  -1.274  0.00  0.00    +0.266 C 
BRANCH  25  30
ATOM     26  C   UNL     1      -0.986   1.303  -1.439  0.00  0.00    +0.000 A 
ATOM     27  C   UNL     1       0.097   2.081  -1.806  0.00  0.00    +0.001 A 
ATOM     28  C   UNL     1       1.334   1.496  -2.001  0.00  0.00    +0.020 A 
ATOM     29  C   UNL     1       1.489   0.132  -1.829  0.00  0.00    +0.047 A 
ATOM     30  C   UNL     1       0.406  -0.646  -1.461  0.00  0.00    +0.008 A 
ATOM     31  C   UNL     1      -0.831  -0.060  -1.267  0.00  0.00    +0.008 A 
ATOM     32 CL   UNL     1       3.042  -0.604  -2.075  0.00  0.00    -0.083 Cl
ENDBRANCH  25  30
ENDBRANCH  24  25
ENDBRANCH  18  24
ENDBRANCH   1  21
TORSDOF 5
