REMARK  Name = ZINC21464521
REMARK  5 active torsions:
REMARK  status: ('A' for Active; 'I' for Inactive)
REMARK    1  A    between atoms: C_1  and  C_2
REMARK    2  A    between atoms: N_13  and  C_26
REMARK    3  A    between atoms: C_14  and  S_16
REMARK    4  A    between atoms: S_16  and  C_17
REMARK    5  A    between atoms: C_17  and  C_18
REMARK                            x       y       z     vdW  Elec       q    Type
REMARK                         _______ _______ _______ _____ _____    ______ ____
ROOT
ATOM      1  C   UNL     1      -0.001   3.976  -1.533  0.00  0.00    +0.008 C 
ATOM      2  C   UNL     1       0.218   2.471  -1.365  0.00  0.00    -0.009 C 
ATOM      3  C   UNL     1      -1.089   1.726  -1.651  0.00  0.00    +0.008 C 
ATOM      4  C   UNL     1      -0.949   0.258  -1.249  0.00  0.00    +0.037 C 
ATOM      5  C   UNL     1       0.295  -0.322  -1.917  0.00  0.00    -0.023 A 
ATOM      6  C   UNL     1       1.261   0.495  -2.397  0.00  0.00    -0.004 A 
ATOM      7  S   UNL     1       2.492  -0.589  -3.075  0.00  0.00    -0.073 S 
ATOM      8  C   UNL     1       1.713  -2.131  -2.715  0.00  0.00    +0.117 A 
ATOM      9  C   UNL     1       0.511  -1.750  -2.074  0.00  0.00    +0.076 A 
ATOM     10  C   UNL     1      -0.364  -2.801  -1.647  0.00  0.00    +0.268 A 
ATOM     11  O   UNL     1      -1.422  -2.574  -1.086  0.00  0.00    -0.267 OA
ATOM     12  N   UNL     1       0.056  -4.062  -1.905  0.00  0.00    -0.255 N 
ATOM     13  C   UNL     1       1.236  -4.338  -2.531  0.00  0.00    +0.178 A 
ATOM     14  N   UNL     1       2.068  -3.390  -2.939  0.00  0.00    -0.215 NA
ATOM     15  C   UNL     1       1.284   1.992  -2.361  0.00  0.00    +0.046 C 
ENDROOT
BRANCH  12  16
ATOM     16  C   UNL     1      -0.758  -5.132  -1.510  0.00  0.00    +0.052 A 
ATOM     17  C   UNL     1      -1.722  -5.630  -2.377  0.00  0.00    +0.028 A 
ATOM     18  C   UNL     1      -2.520  -6.687  -1.988  0.00  0.00    +0.022 A 
ATOM     19  C   UNL     1      -2.367  -7.244  -0.730  0.00  0.00    +0.041 A 
ATOM     20  C   UNL     1      -1.411  -6.747   0.138  0.00  0.00    +0.022 A 
ATOM     21  C   UNL     1      -0.607  -5.693  -0.249  0.00  0.00    +0.028 A 
ATOM     22 CL   UNL     1      -3.377  -8.569  -0.241  0.00  0.00    -0.084 Cl
ENDBRANCH  12  16
BRANCH  13  23
ATOM     23  S   UNL     1       1.671  -6.023  -2.809  0.00  0.00    -0.078 S 
BRANCH  23  24
ATOM     24  C   UNL     1       3.265  -5.802  -3.637  0.00  0.00    +0.173 C 
BRANCH  24  25
ATOM     25  C   UNL     1       3.844  -7.151  -3.980  0.00  0.00    +0.233 C 
ATOM     26  O   UNL     1       3.238  -8.161  -3.693  0.00  0.00    -0.274 OA
ATOM     27  N   UNL     1       5.035  -7.234  -4.606  0.00  0.00    -0.224 N 
ATOM     28  C   UNL     1       5.707  -8.482  -4.996  0.00  0.00    +0.136 C 
ATOM     29  C   UNL     1       7.011  -8.006  -5.664  0.00  0.00    +0.125 C 
ATOM     30  N   UNL     1       6.935  -6.540  -5.580  0.00  0.00    -0.297 N 
ATOM     31  C   UNL     1       5.790  -6.192  -4.977  0.00  0.00    +0.309 C 
ATOM     32  O   UNL     1       5.469  -5.037  -4.781  0.00  0.00    -0.252 OA
ATOM     33  H   UNL     1       7.751  -5.923  -5.984  0.00  0.00    +0.150 HD
ENDBRANCH  24  25
ENDBRANCH  23  24
ENDBRANCH  13  23
TORSDOF 4
