REMARK  Name = ZINC39691228
REMARK  6 active torsions:
REMARK  status: ('A' for Active; 'I' for Inactive)
REMARK    1  A    between atoms: C_1  and  C_2
REMARK    2  A    between atoms: C_7  and  C_8
REMARK    3  A    between atoms: C_8  and  C_9
REMARK    4  A    between atoms: C_9  and  N_10
REMARK    5  A    between atoms: C_11  and  C_13
REMARK    6  A    between atoms: C_24  and  C_26
REMARK                            x       y       z     vdW  Elec       q    Type
REMARK                         _______ _______ _______ _____ _____    ______ ____
ROOT
ATOM      1  C   UNL     1      -2.621   2.142   6.014  0.00  0.00    +0.100 C 
ATOM      2  C   UNL     1      -2.130   1.267   7.189  0.00  0.00    +0.121 C 
ATOM      3  N   UNL     1      -2.973   1.677   8.338  0.00  0.00    -0.297 N 
ATOM      4  C   UNL     1      -4.322   1.872   7.755  0.00  0.00    +0.115 C 
ATOM      5  C   UNL     1      -4.059   2.536   6.389  0.00  0.00    -0.004 C 
ATOM      6  C   UNL     1      -5.041   2.006   5.348  0.00  0.00    -0.010 C 
ATOM      7  C   UNL     1      -6.457   2.460   5.710  0.00  0.00    -0.082 C 
ATOM      8  N   UNL     1      -6.507   3.926   5.756  0.00  0.00    +0.379 N 
ATOM      9  C   UNL     1      -5.630   4.424   6.823  0.00  0.00    -0.082 C 
ATOM     10  C   UNL     1      -4.178   4.053   6.507  0.00  0.00    -0.010 C 
ATOM     11  C   UNL     1      -2.597   1.836   9.622  0.00  0.00    +0.260 C 
ATOM     12  O   UNL     1      -1.429   1.727   9.931  0.00  0.00    -0.271 OA
ATOM     13  H   UNL     1      -6.201   4.299   4.870  0.00  0.00    -0.086 HD
ATOM     14  H   UNL     1      -7.454   4.224   5.935  0.00  0.00    -0.086 HD
ENDROOT
BRANCH  11  15
ATOM     15  C   UNL     1      -3.628   2.150  10.676  0.00  0.00    +0.296 C 
ATOM     16  C   UNL     1      -4.553   0.942  10.870  0.00  0.00    +0.283 C 
ATOM     17  O   UNL     1      -5.509   1.269  11.885  0.00  0.00    -0.484 OA
ATOM     18  C   UNL     1      -5.026   1.851  13.016  0.00  0.00    +0.162 A 
ATOM     19  C   UNL     1      -5.806   1.864  14.162  0.00  0.00    +0.049 A 
ATOM     20  C   UNL     1      -5.330   2.454  15.318  0.00  0.00    +0.004 A 
ATOM     21  C   UNL     1      -4.075   3.035  15.334  0.00  0.00    +0.004 A 
ATOM     22  C   UNL     1      -3.292   3.025  14.195  0.00  0.00    +0.049 A 
ATOM     23  C   UNL     1      -3.763   2.432  13.033  0.00  0.00    +0.163 A 
ATOM     24  O   UNL     1      -2.977   2.424  11.921  0.00  0.00    -0.473 OA
ENDBRANCH  11  15
BRANCH   1  26
ATOM     25  N   UNL     1      -2.560   1.990   3.546  0.00  0.00    -0.315 N 
ATOM     26  C   UNL     1      -2.611   1.351   4.731  0.00  0.00    +0.218 C 
ATOM     27  O   UNL     1      -2.648   0.139   4.766  0.00  0.00    -0.275 OA
ATOM     28  H   UNL     1      -2.530   2.960   3.518  0.00  0.00    +0.149 HD
BRANCH  25  29
ATOM     29  C   UNL     1      -2.550   1.222   2.299  0.00  0.00    +0.109 C 
BRANCH  29  30
ATOM     30  C   UNL     1      -2.490   2.181   1.109  0.00  0.00    +0.054 C 
BRANCH  30  37
ATOM     31  C   UNL     1      -4.979   1.312  -0.073  0.00  0.00    +0.044 C 
ATOM     32  C   UNL     1      -3.670   0.975  -0.739  0.00  0.00    -0.047 A 
ATOM     33  C   UNL     1      -3.661   0.254  -1.919  0.00  0.00    +0.003 A 
ATOM     34  C   UNL     1      -2.461  -0.055  -2.531  0.00  0.00    +0.000 A 
ATOM     35  C   UNL     1      -1.269   0.356  -1.963  0.00  0.00    +0.000 A 
ATOM     36  C   UNL     1      -1.279   1.077  -0.783  0.00  0.00    +0.004 A 
ATOM     37  C   UNL     1      -2.479   1.391  -0.174  0.00  0.00    -0.043 A 
ENDBRANCH  30  37
ENDBRANCH  29  30
ENDBRANCH  25  29
ENDBRANCH   1  26
TORSDOF 5
