REMARK  Name = ZINC39687258
REMARK  9 active torsions:
REMARK  status: ('A' for Active; 'I' for Inactive)
REMARK    1  A    between atoms: C_1  and  C_2
REMARK    2  A    between atoms: C_2  and  C_3
REMARK    3  A    between atoms: C_3  and  C_5
REMARK    4  A    between atoms: C_3  and  C_6
REMARK    5  A    between atoms: C_10  and  C_19
REMARK    6  A    between atoms: N_21  and  C_22
REMARK    7  A    between atoms: C_22  and  C_24
REMARK    8  A    between atoms: C_22  and  C_31
REMARK    9  A    between atoms: C_24  and  C_25
REMARK                            x       y       z     vdW  Elec       q    Type
REMARK                         _______ _______ _______ _____ _____    ______ ____
ROOT
ATOM      1  C   UNL     1       3.672  -3.191  -5.346  0.00  0.00    +0.219 C 
ATOM      2  O   UNL     1       3.104  -2.716  -6.307  0.00  0.00    -0.275 OA
ATOM      3  N   UNL     1       4.909  -3.709  -5.482  0.00  0.00    -0.303 N 
ATOM      4  H   UNL     1       5.363  -4.088  -4.714  0.00  0.00    +0.149 HD
ENDROOT
BRANCH   1   9
ATOM      5  C   UNL     1       0.191  -1.861  -2.140  0.00  0.00    +0.218 C 
ATOM      6  O   UNL     1      -0.687  -2.450  -1.547  0.00  0.00    -0.275 OA
ATOM      7  N   UNL     1       0.888  -2.487  -3.108  0.00  0.00    -0.300 N 
ATOM      8  C   UNL     1       2.061  -1.978  -3.858  0.00  0.00    +0.121 C 
ATOM      9  C   UNL     1       2.995  -3.201  -4.000  0.00  0.00    +0.100 C 
ATOM     10  C   UNL     1       2.067  -4.420  -3.874  0.00  0.00    -0.004 C 
ATOM     11  C   UNL     1       0.659  -3.844  -3.660  0.00  0.00    +0.115 C 
ATOM     12  C   UNL     1       2.470  -5.270  -2.672  0.00  0.00    -0.010 C 
ATOM     13  C   UNL     1       1.569  -6.506  -2.602  0.00  0.00    -0.082 C 
ATOM     14  N   UNL     1       1.701  -7.281  -3.841  0.00  0.00    +0.379 N 
ATOM     15  C   UNL     1       1.223  -6.489  -4.981  0.00  0.00    -0.082 C 
ATOM     16  C   UNL     1       2.110  -5.252  -5.152  0.00  0.00    -0.010 C 
ATOM     17  H   UNL     1       2.670  -7.523  -3.984  0.00  0.00    -0.086 HD
ATOM     18  H   UNL     1       1.154  -8.126  -3.768  0.00  0.00    -0.086 HD
BRANCH   5  19
ATOM     19  C   UNL     1       0.504  -0.428  -1.793  0.00  0.00    +0.072 C 
ATOM     20  C   UNL     1       1.592  -0.389  -0.718  0.00  0.00    +0.017 C 
BRANCH  19  22
ATOM     21  C   UNL     1      -0.474   1.741  -1.032  0.00  0.00    +0.004 C 
ATOM     22  C   UNL     1      -0.759   0.256  -1.266  0.00  0.00    +0.009 C 
ENDBRANCH  19  22
ENDBRANCH   5  19
ENDBRANCH   1   9
BRANCH   3  23
ATOM     23  C   UNL     1       5.567  -3.699  -6.791  0.00  0.00    +0.163 C 
BRANCH  23  24
ATOM     24  C   UNL     1       6.585  -4.809  -6.850  0.00  0.00    +0.236 C 
ATOM     25  O   UNL     1       7.066  -5.245  -5.826  0.00  0.00    -0.274 OA
ATOM     26  N   UNL     1       6.960  -5.317  -8.041  0.00  0.00    -0.300 N 
ATOM     27  C   UNL     1       6.483  -4.716  -9.294  0.00  0.00    +0.108 C 
ATOM     28  C   UNL     1       7.692  -4.389 -10.175  0.00  0.00    +0.019 C 
ATOM     29  C   UNL     1       8.537  -5.651 -10.364  0.00  0.00    +0.003 C 
ATOM     30  C   UNL     1       9.047  -6.133  -9.005  0.00  0.00    +0.019 C 
ATOM     31  C   UNL     1       7.858  -6.477  -8.110  0.00  0.00    +0.108 C 
ENDBRANCH  23  24
BRANCH  23  32
ATOM     32  C   UNL     1       6.266  -2.354  -7.000  0.00  0.00    +0.067 C 
BRANCH  32  33
ATOM     33  C   UNL     1       5.239  -1.252  -7.025  0.00  0.00    -0.045 A 
ATOM     34  C   UNL     1       4.655  -0.878  -8.221  0.00  0.00    +0.004 A 
ATOM     35  C   UNL     1       3.712   0.133  -8.245  0.00  0.00    +0.000 A 
ATOM     36  C   UNL     1       3.353   0.769  -7.072  0.00  0.00    +0.000 A 
ATOM     37  C   UNL     1       3.936   0.395  -5.875  0.00  0.00    +0.000 A 
ATOM     38  C   UNL     1       4.876  -0.619  -5.851  0.00  0.00    +0.004 A 
ENDBRANCH  32  33
ENDBRANCH  23  32
ENDBRANCH   3  23
TORSDOF 7
