REMARK  Name = ZINC03291778
REMARK  8 active torsions:
REMARK  status: ('A' for Active; 'I' for Inactive)
REMARK    1  A    between atoms: C_1  and  C_2
REMARK    2  A    between atoms: C_3  and  C_32
REMARK    3  A    between atoms: N_9  and  C_26
REMARK    4  A    between atoms: C_10  and  S_12
REMARK    5  A    between atoms: S_12  and  C_13
REMARK    6  A    between atoms: C_13  and  C_14
REMARK    7  A    between atoms: N_16  and  C_17
REMARK    8  A    between atoms: C_23  and  C_25
REMARK                            x       y       z     vdW  Elec       q    Type
REMARK                         _______ _______ _______ _____ _____    ______ ____
ROOT
ATOM      1  C   UNL     1      -2.508   0.481   2.149  0.00  0.00    +0.045 C 
ATOM      2  C   UNL     1      -2.399   1.749   1.341  0.00  0.00    -0.026 A 
ATOM      3  C   UNL     1      -3.455   2.565   1.214  0.00  0.00    -0.008 A 
ATOM      4  S   UNL     1      -2.832   3.897   0.206  0.00  0.00    -0.073 S 
ATOM      5  C   UNL     1      -1.173   3.311  -0.028  0.00  0.00    +0.117 A 
ATOM      6  C   UNL     1      -1.148   2.101   0.691  0.00  0.00    +0.076 A 
ATOM      7  C   UNL     1       0.097   1.397   0.684  0.00  0.00    +0.268 A 
ATOM      8  O   UNL     1       0.214   0.343   1.284  0.00  0.00    -0.267 OA
ATOM      9  N   UNL     1       1.137   1.912   0.002  0.00  0.00    -0.255 N 
ATOM     10  C   UNL     1       1.024   3.094  -0.676  0.00  0.00    +0.178 A 
ATOM     11  N   UNL     1      -0.110   3.765  -0.681  0.00  0.00    -0.215 NA
ATOM     12  C   UNL     1      -4.836   2.402   1.796  0.00  0.00    +0.052 C 
ENDROOT
BRANCH   9  13
ATOM     13  C   UNL     1       2.357   1.224  -0.014  0.00  0.00    +0.052 A 
ATOM     14  C   UNL     1       2.613   0.283  -1.002  0.00  0.00    +0.026 A 
ATOM     15  C   UNL     1       3.819  -0.389  -1.019  0.00  0.00    +0.002 A 
ATOM     16  C   UNL     1       4.767  -0.134  -0.045  0.00  0.00    +0.000 A 
ATOM     17  C   UNL     1       4.513   0.798   0.945  0.00  0.00    +0.002 A 
ATOM     18  C   UNL     1       3.311   1.478   0.963  0.00  0.00    +0.026 A 
ENDBRANCH   9  13
BRANCH  10  19
ATOM     19  S   UNL     1       2.413   3.728  -1.555  0.00  0.00    -0.078 S 
BRANCH  19  20
ATOM     20  C   UNL     1       1.695   5.249  -2.224  0.00  0.00    +0.173 C 
BRANCH  20  21
ATOM     21  C   UNL     1       2.732   5.980  -3.036  0.00  0.00    +0.224 C 
ATOM     22  O   UNL     1       3.848   5.518  -3.152  0.00  0.00    -0.275 OA
ATOM     23  N   UNL     1       2.421   7.146  -3.634  0.00  0.00    -0.312 N 
ATOM     24  H   UNL     1       1.529   7.516  -3.542  0.00  0.00    +0.149 HD
BRANCH  23  25
ATOM     25  C   UNL     1       3.429   7.857  -4.424  0.00  0.00    +0.076 C 
ATOM     26  C   UNL     1       3.447   7.300  -5.849  0.00  0.00    +0.022 C 
ATOM     27  C   UNL     1       2.070   7.492  -6.489  0.00  0.00    +0.002 C 
ATOM     28  C   UNL     1       1.730   8.983  -6.528  0.00  0.00    +0.000 C 
ATOM     29  C   UNL     1       1.712   9.540  -5.103  0.00  0.00    +0.005 C 
ATOM     30  C   UNL     1       3.089   9.348  -4.464  0.00  0.00    +0.006 C 
ATOM     31  C   UNL     1       3.071   9.905  -3.039  0.00  0.00    +0.009 C 
ENDBRANCH  23  25
ENDBRANCH  20  21
ENDBRANCH  19  20
ENDBRANCH  10  19
TORSDOF 5
