REMARK  Name = ZINC39425402
REMARK  13 active torsions:
REMARK  status: ('A' for Active; 'I' for Inactive)
REMARK    1  A    between atoms: C_1  and  C_2
REMARK    2  A    between atoms: C_2  and  C_4
REMARK    3  A    between atoms: C_2  and  N_28
REMARK    4  A    between atoms: C_7  and  S_16
REMARK    5  A    between atoms: N_8  and  C_9
REMARK    6  A    between atoms: S_16  and  C_17
REMARK    7  A    between atoms: C_17  and  C_18
REMARK    8  A    between atoms: N_20  and  C_21
REMARK    9  A    between atoms: C_21  and  C_22
REMARK   10  A    between atoms: C_21  and  C_23
REMARK   11  A    between atoms: C_21  and  C_25
REMARK   12  A    between atoms: C_25  and  C_26
REMARK   13  A    between atoms: C_25  and  C_27
REMARK                            x       y       z     vdW  Elec       q    Type
REMARK                         _______ _______ _______ _____ _____    ______ ____
ROOT
ATOM      1  C   UNL     1       0.707  -0.490  -1.238  0.00  0.00    +0.125 A 
ATOM      2  N   UNL     1       1.993  -0.478  -1.450  0.00  0.00    -0.135 NA
ATOM      3  N   UNL     1       2.255  -0.965  -2.610  0.00  0.00    -0.122 NA
ATOM      4  C   UNL     1       1.141  -1.319  -3.208  0.00  0.00    +0.197 A 
ATOM      5  N   UNL     1       0.117  -1.032  -2.348  0.00  0.00    -0.275 N 
ENDROOT
BRANCH   5   6
ATOM      6  C   UNL     1      -1.254  -1.245  -2.561  0.00  0.00    +0.050 A 
ATOM      7  C   UNL     1      -1.949  -2.146  -1.766  0.00  0.00    +0.029 A 
ATOM      8  C   UNL     1      -3.298  -2.354  -1.976  0.00  0.00    +0.040 A 
ATOM      9  C   UNL     1      -3.957  -1.666  -2.981  0.00  0.00    +0.124 A 
ATOM     10  C   UNL     1      -3.265  -0.767  -3.775  0.00  0.00    +0.040 A 
ATOM     11  C   UNL     1      -1.918  -0.551  -3.563  0.00  0.00    +0.029 A 
ATOM     12  F   UNL     1      -5.276  -1.872  -3.186  0.00  0.00    -0.205 F 
ENDBRANCH   5   6
BRANCH   1  14
ATOM     13  C   UNL     1      -0.019   1.526   0.010  0.00  0.00    -0.005 C 
ATOM     14  C   UNL     1       0.002  -0.004   0.002  0.00  0.00    -0.002 C 
BRANCH  14  15
ATOM     15  N   UNL     1       0.713  -0.491   1.192  0.00  0.00    +0.386 N 
ATOM     16  C   UNL     1       0.739  -1.958   1.178  0.00  0.00    -0.078 C 
ATOM     17  C   UNL     1       1.548  -2.469   2.373  0.00  0.00    -0.019 C 
ATOM     18  C   UNL     1       0.896  -1.981   3.670  0.00  0.00    -0.004 C 
ATOM     19  C   UNL     1       0.805  -0.452   3.640  0.00  0.00    -0.019 C 
ATOM     20  C   UNL     1       0.025  -0.017   2.399  0.00  0.00    -0.078 C 
ATOM     21  H   UNL     1       1.658  -0.139   1.185  0.00  0.00    -0.081 HD
ENDBRANCH  14  15
ENDBRANCH   1  14
BRANCH   4  22
ATOM     22  S   UNL     1       0.994  -2.033  -4.812  0.00  0.00    -0.076 S 
BRANCH  22  23
ATOM     23  C   UNL     1       2.706  -2.151  -5.399  0.00  0.00    +0.173 C 
BRANCH  23  24
ATOM     24  C   UNL     1       2.724  -2.755  -6.780  0.00  0.00    +0.224 C 
ATOM     25  O   UNL     1       1.683  -3.074  -7.315  0.00  0.00    -0.275 OA
ATOM     26  N   UNL     1       3.895  -2.939  -7.420  0.00  0.00    -0.297 N 
ATOM     27  H   UNL     1       4.727  -2.684  -6.991  0.00  0.00    +0.150 HD
BRANCH  26  28
ATOM     28  C   UNL     1       3.912  -3.526  -8.762  0.00  0.00    +0.121 C 
ATOM     29  C   UNL     1       3.106  -2.642  -9.715  0.00  0.00    +0.048 C 
BRANCH  28  30
ATOM     30  C   UNL     1       5.357  -3.625  -9.257  0.00  0.00    +0.020 C 
ATOM     31  C   UNL     1       5.386  -4.351 -10.604  0.00  0.00    +0.010 C 
ATOM     32  C   UNL     1       5.937  -2.219  -9.422  0.00  0.00    +0.010 C 
ENDBRANCH  28  30
BRANCH  28  33
ATOM     33  C   UNL     1       3.316  -4.871  -8.717  0.00  0.00    +0.088 C 
ATOM     34  N   UNL     1       2.855  -5.909  -8.683  0.00  0.00    -0.194 NA
ENDBRANCH  28  33
ENDBRANCH  26  28
ENDBRANCH  23  24
ENDBRANCH  22  23
ENDBRANCH   4  22
TORSDOF 9
