REMARK  Name = ZINC04263108
REMARK  9 active torsions:
REMARK  status: ('A' for Active; 'I' for Inactive)
REMARK    1  A    between atoms: C_1  and  C_2
REMARK    2  A    between atoms: C_2  and  O_3
REMARK    3  A    between atoms: O_3  and  C_4
REMARK    4  A    between atoms: C_4  and  C_6
REMARK    5  A    between atoms: C_10  and  N_11
REMARK    6  A    between atoms: C_12  and  C_14
REMARK    7  A    between atoms: C_14  and  C_16
REMARK    8  A    between atoms: C_14  and  S_17
REMARK    9  A    between atoms: S_17  and  C_18
REMARK                            x       y       z     vdW  Elec       q    Type
REMARK                         _______ _______ _______ _____ _____    ______ ____
ROOT
ATOM      1  C   UNL     1      -1.292   1.927   0.019  0.00  0.00    +0.091 A 
ATOM      2  C   UNL     1      -1.948   2.291   1.275  0.00  0.00    -0.021 A 
ATOM      3  C   UNL     1      -3.115   2.946   1.141  0.00  0.00    -0.004 A 
ATOM      4  S   UNL     1      -3.358   3.085  -0.613  0.00  0.00    -0.077 S 
ATOM      5  C   UNL     1      -1.922   2.289  -1.161  0.00  0.00    +0.086 A 
ATOM      6  C   UNL     1      -3.725   3.289   2.473  0.00  0.00    +0.043 C 
ATOM      7  C   UNL     1      -2.567   3.136   3.483  0.00  0.00    +0.010 C 
ATOM      8  C   UNL     1      -1.657   2.118   2.766  0.00  0.00    +0.037 C 
ENDROOT
BRANCH   5   9
ATOM      9  N   UNL     1      -1.504   2.067  -2.464  0.00  0.00    -0.278 N 
ATOM     10  C   UNL     1      -2.257   2.497  -3.496  0.00  0.00    +0.231 C 
ATOM     11  O   UNL     1      -3.300   3.078  -3.284  0.00  0.00    -0.274 OA
ATOM     12  H   UNL     1      -0.670   1.601  -2.633  0.00  0.00    +0.155 HD
BRANCH  10  13
ATOM     13  C   UNL     1      -1.803   2.255  -4.912  0.00  0.00    +0.137 C 
ATOM     14  C   UNL     1      -0.751   3.297  -5.295  0.00  0.00    +0.029 C 
BRANCH  13  15
ATOM     15  S   UNL     1      -3.220   2.388  -6.031  0.00  0.00    -0.074 S 
BRANCH  15  16
ATOM     16  C   UNL     1      -2.456   1.923  -7.549  0.00  0.00    +0.189 A 
ATOM     17  N   UNL     1      -1.166   1.617  -7.557  0.00  0.00    -0.230 NA
ATOM     18  C   UNL     1      -0.563   1.259  -8.679  0.00  0.00    +0.115 A 
ATOM     19  C   UNL     1      -1.294   1.217  -9.856  0.00  0.00    +0.039 A 
ATOM     20  C   UNL     1      -2.640   1.548  -9.812  0.00  0.00    +0.115 A 
ATOM     21  N   UNL     1      -3.183   1.892  -8.657  0.00  0.00    -0.230 NA
ENDBRANCH  15  16
ENDBRANCH  13  15
ENDBRANCH  10  13
ENDBRANCH   5   9
BRANCH   1  22
ATOM     22  C   UNL     1      -0.014   1.212   0.009  0.00  0.00    +0.342 C 
ATOM     23  O   UNL     1       0.002  -0.004   0.002  0.00  0.00    -0.245 OA
BRANCH  22  24
ATOM     24  O   UNL     1       1.144   1.902   0.001  0.00  0.00    -0.461 OA
BRANCH  24  26
ATOM     25  C   UNL     1       3.573   2.077  -0.021  0.00  0.00    +0.048 C 
ATOM     26  C   UNL     1       2.373   1.128  -0.015  0.00  0.00    +0.229 C 
ENDBRANCH  24  26
ENDBRANCH  22  24
ENDBRANCH   1  22
TORSDOF 7
