REMARK  Name = ZINC09446529
REMARK  5 active torsions:
REMARK  status: ('A' for Active; 'I' for Inactive)
REMARK    1  A    between atoms: C_1  and  C_2
REMARK    2  A    between atoms: C_2  and  C_3
REMARK    3  A    between atoms: N_21  and  C_24
REMARK    4  A    between atoms: C_26  and  C_31
REMARK    5  A    between atoms: C_28  and  C_30
REMARK                            x       y       z     vdW  Elec       q    Type
REMARK                         _______ _______ _______ _____ _____    ______ ____
ROOT
ATOM      1  C   UNL     1      -2.215   1.200   1.432  0.00  0.00    -0.047 A 
ATOM      2  C   UNL     1      -3.245   1.948   0.892  0.00  0.00    +0.005 A 
ATOM      3  C   UNL     1      -4.533   1.456   0.881  0.00  0.00    +0.024 A 
ATOM      4  C   UNL     1      -4.809   0.203   1.425  0.00  0.00    +0.036 A 
ATOM      5  C   UNL     1      -3.766  -0.538   1.971  0.00  0.00    -0.027 A 
ATOM      6  C   UNL     1      -2.481  -0.045   1.976  0.00  0.00    +0.008 A 
ATOM      7  C   UNL     1      -4.384  -1.817   2.463  0.00  0.00    +0.053 C 
ATOM      8  C   UNL     1      -4.162  -2.002   3.968  0.00  0.00    +0.089 C 
ATOM      9  C   UNL     1      -3.957  -3.531   4.151  0.00  0.00    +0.074 C 
ATOM     10  C   UNL     1      -4.074  -4.126   2.736  0.00  0.00    -0.054 C 
ATOM     11  C   UNL     1      -2.305  -2.870   1.817  0.00  0.00    -0.076 C 
ATOM     12  C   UNL     1      -1.779  -4.317   1.891  0.00  0.00    -0.020 C 
ATOM     13  C   UNL     1      -2.946  -5.151   2.519  0.00  0.00    -0.016 C 
ATOM     14  C   UNL     1      -2.525  -3.638   4.624  0.00  0.00    +0.228 C 
ATOM     15  O   UNL     1      -1.949  -4.671   4.888  0.00  0.00    -0.275 OA
ATOM     16  N   UNL     1      -1.992  -2.413   4.706  0.00  0.00    -0.210 N 
ATOM     17  C   UNL     1      -2.823  -1.422   4.362  0.00  0.00    +0.229 C 
ATOM     18  O   UNL     1      -2.545  -0.242   4.367  0.00  0.00    -0.275 OA
ATOM     19  C   UNL     1      -5.847  -1.694   2.135  0.00  0.00    +0.212 C 
ATOM     20  O   UNL     1      -6.712  -2.513   2.365  0.00  0.00    -0.277 OA
ATOM     21  N   UNL     1      -6.011  -0.499   1.536  0.00  0.00    -0.286 N 
ATOM     22  H   UNL     1      -6.865  -0.165   1.220  0.00  0.00    +0.155 HD
ATOM     23  N   UNL     1      -3.775  -3.010   1.867  0.00  0.00    +0.395 N 
ATOM     24  H   UNL     1      -4.150  -3.169   0.925  0.00  0.00    -0.079 HD
ENDROOT
BRANCH  16  25
ATOM     25  C   UNL     1      -0.672  -2.186   5.119  0.00  0.00    +0.044 A 
ATOM     26  C   UNL     1      -0.300  -2.441   6.432  0.00  0.00    +0.027 A 
ATOM     27  C   UNL     1       1.002  -2.221   6.835  0.00  0.00    -0.048 A 
ATOM     28  C   UNL     1       1.934  -1.739   5.934  0.00  0.00    +0.006 A 
ATOM     29  C   UNL     1       1.566  -1.480   4.627  0.00  0.00    -0.048 A 
ATOM     30  C   UNL     1       0.266  -1.702   4.217  0.00  0.00    +0.027 A 
ATOM     31  C   UNL     1       2.584  -0.954   3.648  0.00  0.00    +0.044 C 
ATOM     32  C   UNL     1       1.408  -2.501   8.259  0.00  0.00    +0.044 C 
ENDBRANCH  16  25
BRANCH   1  34
ATOM     33  C   UNL     1      -0.096   1.312   0.149  0.00  0.00    +0.009 C 
ATOM     34  C   UNL     1      -0.809   1.741   1.433  0.00  0.00    +0.032 C 
ENDBRANCH   1  34
TORSDOF 2
