REMARK  Name = ZINC20759187
REMARK  11 active torsions:
REMARK  status: ('A' for Active; 'I' for Inactive)
REMARK    1  A    between atoms: C_1  and  O_2
REMARK    2  A    between atoms: O_2  and  C_3
REMARK    3  A    between atoms: C_5  and  C_13
REMARK    4  A    between atoms: C_7  and  O_11
REMARK    5  A    between atoms: C_8  and  O_9
REMARK    6  A    between atoms: O_9  and  C_10
REMARK    7  A    between atoms: O_11  and  C_12
REMARK    8  A    between atoms: N_15  and  C_16
REMARK    9  A    between atoms: C_16  and  C_18
REMARK   10  A    between atoms: C_16  and  C_25
REMARK   11  A    between atoms: C_18  and  C_19
REMARK                            x       y       z     vdW  Elec       q    Type
REMARK                         _______ _______ _______ _____ _____    ______ ____
ROOT
ATOM      1  C   UNL     1      -7.290   0.385   0.059  0.00  0.00    +0.164 C 
ENDROOT
BRANCH   1   2
ATOM      2  C   UNL     1      -8.345  -0.532   0.624  0.00  0.00    +0.236 C 
ATOM      3  O   UNL     1      -8.123  -1.720   0.727  0.00  0.00    -0.274 OA
ATOM      4  N   UNL     1      -9.534  -0.032   1.014  0.00  0.00    -0.300 N 
ATOM      5  C   UNL     1      -9.862   1.382   0.787  0.00  0.00    +0.110 C 
ATOM      6  C   UNL     1     -10.283   2.010   2.120  0.00  0.00    +0.047 C 
ATOM      7  C   UNL     1     -11.419   1.189   2.730  0.00  0.00    +0.064 C 
ATOM      8  C   UNL     1     -10.941  -0.238   2.997  0.00  0.00    +0.047 C 
ATOM      9  C   UNL     1     -10.529  -0.892   1.669  0.00  0.00    +0.110 C 
ATOM     10  C   UNL     1     -11.870   1.825   4.018  0.00  0.00    +0.057 A 
ATOM     11  C   UNL     1     -13.003   2.555   4.138  0.00  0.00    +0.039 A 
ATOM     12  N   UNL     1     -13.100   2.963   5.403  0.00  0.00    -0.349 N 
ATOM     13  C   UNL     1     -12.070   2.517   6.076  0.00  0.00    +0.171 A 
ATOM     14  N   UNL     1     -11.280   1.802   5.242  0.00  0.00    -0.348 N 
ATOM     15  H   UNL     1     -10.450   1.357   5.474  0.00  0.00    +0.166 HD
ATOM     16  C   UNL     1     -13.939   2.815   2.983  0.00  0.00    +0.070 C 
ATOM     17  C   UNL     1     -13.191   2.483   1.684  0.00  0.00    +0.088 C 
ATOM     18  N   UNL     1     -12.559   1.161   1.800  0.00  0.00    -0.305 NA
ATOM     19  H   UNL     1     -12.279   0.814   0.895  0.00  0.00    +0.123 HD
ATOM     20  H   UNL     1     -13.818   3.504   5.766  0.00  0.00    +0.166 HD
ENDBRANCH   1   2
BRANCH   1  23
ATOM     21  C   UNL     1      -4.870   0.550   0.283  0.00  0.00    +0.245 C 
ATOM     22  O   UNL     1      -4.973   1.758   0.191  0.00  0.00    -0.270 OA
ATOM     23  N   UNL     1      -5.970  -0.227   0.229  0.00  0.00    -0.300 N 
ATOM     24  H   UNL     1      -5.888  -1.190   0.302  0.00  0.00    +0.150 HD
BRANCH  21  27
ATOM     25  C   UNL     1      -1.153   0.158   0.670  0.00  0.00    +0.166 A 
ATOM     26  C   UNL     1      -2.398   0.738   0.510  0.00  0.00    +0.062 A 
ATOM     27  C   UNL     1      -3.539  -0.066   0.454  0.00  0.00    +0.044 A 
ATOM     28  C   UNL     1      -3.419  -1.454   0.560  0.00  0.00    +0.062 A 
ATOM     29  C   UNL     1      -2.172  -2.029   0.720  0.00  0.00    +0.166 A 
ATOM     30  C   UNL     1      -1.036  -1.226   0.770  0.00  0.00    +0.204 A 
BRANCH  25  32
ATOM     31  C   UNL     1      -0.235   2.352   0.615  0.00  0.00    +0.277 C 
ATOM     32  O   UNL     1      -0.042   0.940   0.725  0.00  0.00    -0.491 OA
ENDBRANCH  25  32
BRANCH  30  33
ATOM     33  O   UNL     1       0.190  -1.793   0.923  0.00  0.00    -0.488 OA
ATOM     34  C   UNL     1       0.655  -1.983   2.260  0.00  0.00    +0.277 C 
ENDBRANCH  30  33
BRANCH  29  35
ATOM     35  O   UNL     1      -2.055  -3.380   0.824  0.00  0.00    -0.491 OA
ATOM     36  C   UNL     1      -3.261  -4.143   0.759  0.00  0.00    +0.277 C 
ENDBRANCH  29  35
ENDBRANCH  21  27
ENDBRANCH   1  23
BRANCH   1  37
ATOM     37  C   UNL     1      -7.559   0.615  -1.429  0.00  0.00    +0.067 C 
BRANCH  37  38
ATOM     38  C   UNL     1      -6.588   1.637  -1.962  0.00  0.00    -0.045 A 
ATOM     39  C   UNL     1      -6.911   2.981  -1.928  0.00  0.00    +0.004 A 
ATOM     40  C   UNL     1      -6.021   3.919  -2.417  0.00  0.00    +0.000 A 
ATOM     41  C   UNL     1      -4.808   3.513  -2.940  0.00  0.00    +0.000 A 
ATOM     42  C   UNL     1      -4.484   2.170  -2.974  0.00  0.00    +0.000 A 
ATOM     43  C   UNL     1      -5.373   1.232  -2.481  0.00  0.00    +0.004 A 
ENDBRANCH  37  38
ENDBRANCH   1  37
TORSDOF 8
