REMARK  Name = ZINC36394037
REMARK  5 active torsions:
REMARK  status: ('A' for Active; 'I' for Inactive)
REMARK    1  A    between atoms: C_8  and  C_11
REMARK    2  A    between atoms: C_11  and  O_13
REMARK    3  A    between atoms: O_13  and  C_14
REMARK    4  A    between atoms: C_14  and  C_15
REMARK    5  A    between atoms: N_17  and  C_18
REMARK                            x       y       z     vdW  Elec       q    Type
REMARK                         _______ _______ _______ _____ _____    ______ ____
ROOT
ATOM      1  O   UNL     1       5.061  -3.334  -0.052  0.00  0.00    -0.451 OA
ENDROOT
BRANCH   1   2
ATOM      2  C   UNL     1       3.713  -3.382  -0.031  0.00  0.00    +0.358 C 
ATOM      3  O   UNL     1       3.143  -4.456  -0.024  0.00  0.00    -0.243 OA
BRANCH   2  11
ATOM      4  C   UNL     1      -0.015   1.361   0.038  0.00  0.00    +0.001 A 
ATOM      5  C   UNL     1       1.171   2.085   0.021  0.00  0.00    +0.002 A 
ATOM      6  C   UNL     1       2.386   1.439   0.000  0.00  0.00    +0.026 A 
ATOM      7  C   UNL     1       2.431   0.047  -0.003  0.00  0.00    +0.048 A 
ATOM      8  C   UNL     1       1.228  -0.684   0.014  0.00  0.00    +0.019 A 
ATOM      9  C   UNL     1       0.003  -0.003   0.035  0.00  0.00    +0.011 A 
ATOM     10  C   UNL     1       1.577  -2.057   0.006  0.00  0.00    +0.080 A 
ATOM     11  C   UNL     1       2.935  -2.138  -0.016  0.00  0.00    +0.144 A 
ATOM     12  N   UNL     1       3.464  -0.860  -0.021  0.00  0.00    -0.348 N 
ATOM     13  H   UNL     1       4.409  -0.640  -0.036  0.00  0.00    +0.166 HD
ATOM     14 CL   UNL     1       0.470  -3.395   0.021  0.00  0.00    -0.080 Cl
ENDBRANCH   2  11
ENDBRANCH   1   2
BRANCH   1  15
ATOM     15  C   UNL     1       5.754  -4.583  -0.066  0.00  0.00    +0.328 C 
BRANCH  15  16
ATOM     16  C   UNL     1       7.240  -4.333  -0.089  0.00  0.00    +0.255 C 
ATOM     17  O   UNL     1       7.664  -3.196  -0.093  0.00  0.00    -0.272 OA
ATOM     18  N   UNL     1       8.098  -5.372  -0.104  0.00  0.00    -0.281 N 
ATOM     19  H   UNL     1       7.763  -6.279  -0.034  0.00  0.00    +0.155 HD
BRANCH  18  20
ATOM     20  C   UNL     1       9.471  -5.142  -0.222  0.00  0.00    +0.062 A 
ATOM     21  C   UNL     1      10.029  -4.045   0.359  0.00  0.00    +0.025 A 
ATOM     22  C   UNL     1      11.395  -3.788   0.260  0.00  0.00    +0.004 A 
ATOM     23  C   UNL     1      12.226  -4.615  -0.417  0.00  0.00    +0.031 A 
ATOM     24  C   UNL     1      11.716  -5.781  -1.050  0.00  0.00    +0.102 A 
ATOM     25  C   UNL     1      10.289  -6.060  -0.945  0.00  0.00    +0.121 A 
ATOM     26  N   UNL     1       9.925  -7.180  -1.570  0.00  0.00    -0.189 NA
ATOM     27  S   UNL     1      11.277  -7.784  -2.200  0.00  0.00    +0.117 S 
ATOM     28  N   UNL     1      12.379  -6.701  -1.753  0.00  0.00    -0.191 NA
ENDBRANCH  18  20
ENDBRANCH  15  16
ENDBRANCH   1  15
TORSDOF 5
