REMARK  Name = ZINC49234446
REMARK  5 active torsions:
REMARK  status: ('A' for Active; 'I' for Inactive)
REMARK    1  A    between atoms: C_1  and  C_2
REMARK    2  A    between atoms: C_5  and  S_9
REMARK    3  A    between atoms: C_6  and  N_8
REMARK    4  A    between atoms: S_9  and  N_12
REMARK    5  A    between atoms: C_15  and  C_18
REMARK                            x       y       z     vdW  Elec       q    Type
REMARK                         _______ _______ _______ _____ _____    ______ ____
ROOT
ATOM      1  S   UNL     1       0.062  -4.535  -0.040  0.00  0.00    +0.103 S 
ATOM      2  O   UNL     1      -0.954  -4.963   0.858  0.00  0.00    -0.146 OA
ATOM      3  O   UNL     1       0.087  -4.928  -1.405  0.00  0.00    -0.146 OA
ENDROOT
BRANCH   1   8
ATOM      4  C   UNL     1      -0.018   1.503   0.010  0.00  0.00    +0.044 C 
ATOM      5  C   UNL     1       0.002  -0.004   0.002  0.00  0.00    -0.049 A 
ATOM      6  C   UNL     1       0.006  -0.688  -1.200  0.00  0.00    +0.005 A 
ATOM      7  C   UNL     1       0.024  -2.071  -1.212  0.00  0.00    +0.031 A 
ATOM      8  C   UNL     1       0.039  -2.773  -0.023  0.00  0.00    +0.133 A 
ATOM      9  C   UNL     1       0.036  -2.089   1.186  0.00  0.00    +0.052 A 
ATOM     10  C   UNL     1       0.023  -0.700   1.194  0.00  0.00    +0.028 A 
BRANCH   9  11
ATOM     11  N   UNL     1       0.051  -2.796   2.390  0.00  0.00    -0.356 N 
ATOM     12  H   UNL     1       0.064  -3.766   2.383  0.00  0.00    +0.142 HD
ATOM     13  H   UNL     1       0.049  -2.318   3.234  0.00  0.00    +0.142 HD
ENDBRANCH   9  11
ENDBRANCH   1   8
BRANCH   1  14
ATOM     14  N   UNL     1       1.505  -5.012   0.617  0.00  0.00    -0.103 NA
ATOM     15  C   UNL     1       1.785  -6.287   0.726  0.00  0.00    +0.192 A 
ATOM     16  N   UNL     1       2.911  -6.894   1.241  0.00  0.00    -0.336 N 
ATOM     17  C   UNL     1       2.971  -8.257   1.246  0.00  0.00    +0.028 A 
ATOM     18  C   UNL     1       1.958  -8.975   0.761  0.00  0.00    +0.070 A 
ATOM     19  S   UNL     1       0.807  -7.706   0.255  0.00  0.00    -0.057 S 
ATOM     20  H   UNL     1       3.644  -6.363   1.591  0.00  0.00    +0.168 HD
BRANCH  17  21
ATOM     21  C   UNL     1       4.187  -8.953   1.802  0.00  0.00    +0.036 C 
ATOM     22  C   UNL     1       5.397  -8.086   2.156  0.00  0.00    +0.010 C 
ATOM     23  C   UNL     1       4.541  -8.695   3.268  0.00  0.00    +0.010 C 
ENDBRANCH  17  21
ENDBRANCH   1  14
TORSDOF 4
