REMARK  Name = ZINC67513566
REMARK  6 active torsions:
REMARK  status: ('A' for Active; 'I' for Inactive)
REMARK    1  A    between atoms: C_1  and  C_2
REMARK    2  A    between atoms: C_5  and  C_28
REMARK    3  A    between atoms: C_6  and  C_8
REMARK    4  A    between atoms: C_11  and  C_16
REMARK    5  A    between atoms: N_18  and  C_19
REMARK    6  A    between atoms: C_19  and  C_20
REMARK                            x       y       z     vdW  Elec       q    Type
REMARK                         _______ _______ _______ _____ _____    ______ ____
ROOT
ATOM      1  C   UNL     1       0.086  -2.795   2.365  0.00  0.00    +0.091 A 
ATOM      2  C   UNL     1       0.036  -2.223   3.593  0.00  0.00    +0.122 A 
ATOM      3  N   UNL     1       0.074  -3.244   4.534  0.00  0.00    -0.289 N 
ATOM      4  C   UNL     1       0.058  -3.371   5.916  0.00  0.00    +0.117 A 
ATOM      5  C   UNL     1       0.113  -4.602   6.483  0.00  0.00    +0.080 A 
ATOM      6  S   UNL     1       0.193  -5.665   5.050  0.00  0.00    -0.057 S 
ATOM      7  C   UNL     1       0.147  -4.399   3.804  0.00  0.00    +0.178 A 
ATOM      8  N   UNL     1       0.148  -4.132   2.530  0.00  0.00    -0.221 NA
ENDROOT
BRANCH   1  14
ATOM      9  C   UNL     1       1.780   0.879  -0.561  0.00  0.00    +0.044 C 
ATOM     10  C   UNL     1       0.882  -0.312  -0.342  0.00  0.00    -0.050 A 
ATOM     11  C   UNL     1       0.039  -0.736  -1.354  0.00  0.00    +0.003 A 
ATOM     12  C   UNL     1      -0.788  -1.827  -1.161  0.00  0.00    +0.004 A 
ATOM     13  C   UNL     1      -0.776  -2.500   0.045  0.00  0.00    -0.041 A 
ATOM     14  C   UNL     1       0.070  -2.077   1.068  0.00  0.00    +0.005 A 
ATOM     15  C   UNL     1       0.906  -0.980   0.865  0.00  0.00    +0.013 A 
ATOM     16  C   UNL     1      -1.679  -3.688   0.255  0.00  0.00    +0.044 C 
ENDBRANCH   1  14
BRANCH   4  17
ATOM     17  C   UNL     1      -0.019  -2.178   6.761  0.00  0.00    +0.262 C 
ATOM     18  O   UNL     1      -0.167  -1.081   6.254  0.00  0.00    -0.269 OA
ATOM     19  N   UNL     1       0.074  -2.294   8.101  0.00  0.00    -0.303 N 
ATOM     20  H   UNL     1       0.119  -3.173   8.510  0.00  0.00    +0.150 HD
BRANCH  19  21
ATOM     21  C   UNL     1       0.107  -1.094   8.940  0.00  0.00    +0.180 C 
BRANCH  21  22
ATOM     22  C   UNL     1       0.213  -1.496  10.388  0.00  0.00    +0.149 A 
ATOM     23  N   UNL     1       0.263  -0.632  11.456  0.00  0.00    -0.292 N 
ATOM     24  H   UNL     1       0.236   0.336  11.405  0.00  0.00    +0.172 HD
ATOM     25  C   UNL     1       0.355  -1.361  12.586  0.00  0.00    +0.342 A 
ATOM     26  O   UNL     1       0.419  -0.925  13.722  0.00  0.00    -0.245 OA
ATOM     27  N   UNL     1       0.363  -2.662  12.228  0.00  0.00    -0.227 N 
ATOM     28  H   UNL     1       0.421  -3.423  12.827  0.00  0.00    +0.194 HD
ATOM     29  N   UNL     1       0.267  -2.710  10.831  0.00  0.00    -0.155 NA
ENDBRANCH  21  22
ENDBRANCH  19  21
ENDBRANCH   4  17
TORSDOF 4
