REMARK  Name = ZINC63941351
REMARK  8 active torsions:
REMARK  status: ('A' for Active; 'I' for Inactive)
REMARK    1  A    between atoms: C_1  and  C_2
REMARK    2  A    between atoms: C_2  and  C_3
REMARK    3  A    between atoms: C_5  and  C_32
REMARK    4  A    between atoms: C_7  and  N_10
REMARK    5  A    between atoms: C_11  and  C_13
REMARK    6  A    between atoms: N_18  and  C_20
REMARK    7  A    between atoms: C_20  and  C_21
REMARK    8  A    between atoms: C_21  and  C_22
REMARK                            x       y       z     vdW  Elec       q    Type
REMARK                         _______ _______ _______ _____ _____    ______ ____
ROOT
ATOM      1  C   UNL     1      -4.443  -4.068  -4.315  0.00  0.00    +0.101 C 
ATOM      2  C   UNL     1      -5.530  -4.427  -3.275  0.00  0.00    +0.110 C 
ATOM      3  C   UNL     1      -6.198  -5.659  -3.846  0.00  0.00    +0.216 C 
ATOM      4  O   UNL     1      -7.272  -6.095  -3.490  0.00  0.00    -0.276 OA
ATOM      5  N   UNL     1      -5.428  -6.199  -4.806  0.00  0.00    -0.300 N 
ATOM      6  C   UNL     1      -4.188  -5.435  -4.989  0.00  0.00    +0.121 C 
ENDROOT
BRANCH   1   8
ATOM      7  N   UNL     1      -3.232  -2.407  -2.940  0.00  0.00    -0.285 N 
ATOM      8  C   UNL     1      -3.197  -3.559  -3.639  0.00  0.00    +0.220 C 
ATOM      9  O   UNL     1      -2.162  -4.185  -3.725  0.00  0.00    -0.275 OA
ATOM     10  H   UNL     1      -4.060  -1.907  -2.872  0.00  0.00    +0.152 HD
BRANCH   7  14
ATOM     11  C   UNL     1      -1.433  -0.534   0.013  0.00  0.00    +0.099 C 
ATOM     12  C   UNL     1      -1.461  -2.055   0.031  0.00  0.00    +0.059 C 
ATOM     13  N   UNL     1      -1.737  -2.669  -1.047  0.00  0.00    -0.254 NA
ATOM     14  C   UNL     1      -2.020  -1.912  -2.283  0.00  0.00    +0.252 C 
ATOM     15  S   UNL     1      -2.278  -0.215  -1.598  0.00  0.00    -0.106 S 
BRANCH  12  16
ATOM     16  C   UNL     1      -1.174  -2.801   1.272  0.00  0.00    -0.003 A 
ATOM     17  C   UNL     1      -0.877  -2.114   2.450  0.00  0.00    +0.010 A 
ATOM     18  C   UNL     1      -0.610  -2.817   3.607  0.00  0.00    +0.001 A 
ATOM     19  C   UNL     1      -0.634  -4.200   3.600  0.00  0.00    +0.000 A 
ATOM     20  C   UNL     1      -0.927  -4.888   2.435  0.00  0.00    +0.001 A 
ATOM     21  C   UNL     1      -1.203  -4.197   1.274  0.00  0.00    +0.010 A 
ENDBRANCH  12  16
BRANCH  11  23
ATOM     22  C   UNL     1      -0.019   1.526   0.010  0.00  0.00    +0.005 C 
ATOM     23  C   UNL     1       0.002  -0.004   0.002  0.00  0.00    +0.017 C 
ENDBRANCH  11  23
ENDBRANCH   7  14
ENDBRANCH   1   8
BRANCH   5  24
ATOM     24  C   UNL     1      -5.781  -7.397  -5.572  0.00  0.00    +0.112 C 
BRANCH  24  25
ATOM     25  C   UNL     1      -6.556  -6.990  -6.827  0.00  0.00    +0.052 C 
BRANCH  25  26
ATOM     26  C   UNL     1      -6.919  -8.222  -7.615  0.00  0.00    -0.040 C 
ATOM     27  C   UNL     1      -8.084  -8.907  -7.562  0.00  0.00    +0.002 A 
ATOM     28  C   UNL     1      -9.314  -8.717  -6.785  0.00  0.00    +0.048 A 
ATOM     29  C   UNL     1     -10.338  -9.588  -6.951  0.00  0.00    +0.124 A 
ATOM     30  C   UNL     1     -10.250 -10.665  -7.847  0.00  0.00    +0.040 A 
ATOM     31  C   UNL     1      -9.152 -10.904  -8.594  0.00  0.00    +0.029 A 
ATOM     32  C   UNL     1      -8.018 -10.051  -8.499  0.00  0.00    +0.043 A 
ATOM     33  N   UNL     1      -6.857 -10.072  -9.108  0.00  0.00    -0.380 N 
ATOM     34  C   UNL     1      -6.057  -8.939  -8.630  0.00  0.00    +0.144 C 
ATOM     35  F   UNL     1     -11.471  -9.416  -6.237  0.00  0.00    -0.205 F 
ATOM     36  H   UNL     1      -6.575 -10.726  -9.767  0.00  0.00    +0.160 HD
ENDBRANCH  25  26
ENDBRANCH  24  25
ENDBRANCH   5  24
TORSDOF 7
