REMARK  Name = ZINC05130132
REMARK  5 active torsions:
REMARK  status: ('A' for Active; 'I' for Inactive)
REMARK    1  A    between atoms: C_1  and  C_2
REMARK    2  A    between atoms: C_2  and  C_3
REMARK    3  A    between atoms: C_10  and  N_22
REMARK    4  A    between atoms: C_11  and  C_20
REMARK    5  A    between atoms: C_12  and  C_14
REMARK                            x       y       z     vdW  Elec       q    Type
REMARK                         _______ _______ _______ _____ _____    ______ ____
ROOT
ATOM      1  C   UNL     1       1.376   6.189  -2.485  0.00  0.00    +0.044 A 
ATOM      2  C   UNL     1       1.749   6.064  -1.204  0.00  0.00    +0.050 A 
ATOM      3  C   UNL     1       3.154   6.205  -1.139  0.00  0.00    +0.245 A 
ATOM      4  N   UNL     1       3.593   6.404  -2.348  0.00  0.00    -0.135 NA
ATOM      5  N   UNL     1       2.493   6.400  -3.219  0.00  0.00    -0.278 N 
ATOM      6  H   UNL     1       2.418   6.531  -4.309  0.00  0.00    +0.189 HD
ATOM      7  O   UNL     1       3.833   6.128   0.036  0.00  0.00    -0.421 OA
ATOM      8  C   UNL     1       3.113   6.184   1.174  0.00  0.00    +0.201 C 
ATOM      9  C   UNL     1       1.772   6.052   1.239  0.00  0.00    +0.099 C 
ATOM     10  C   UNL     1       0.910   5.816   0.024  0.00  0.00    +0.108 C 
ENDROOT
BRANCH  10  11
ATOM     11  C   UNL     1       0.412   4.394   0.022  0.00  0.00    +0.004 A 
ATOM     12  C   UNL     1      -0.864   3.936   0.032  0.00  0.00    +0.013 A 
ATOM     13  C   UNL     1      -1.087   2.572   0.020  0.00  0.00    +0.028 A 
ATOM     14  C   UNL     1      -0.021   1.732   0.012  0.00  0.00    +0.078 A 
ATOM     15  S   UNL     1       1.350   2.875   0.005  0.00  0.00    -0.081 S 
ATOM     16 CL   UNL     1       0.002  -0.004   0.002  0.00  0.00    -0.076 Cl
ENDBRANCH  10  11
BRANCH   8  17
ATOM     17  N   UNL     1       3.792   6.390   2.350  0.00  0.00    -0.328 N 
ATOM     18  H   UNL     1       3.241   6.442   3.301  0.00  0.00    +0.145 HD
ATOM     19  H   UNL     1       4.886   6.503   2.341  0.00  0.00    +0.145 HD
ENDBRANCH   8  17
BRANCH   1  21
ATOM     20  C   UNL     1      -0.702   7.479  -2.893  0.00  0.00    +0.010 C 
ATOM     21  C   UNL     1      -0.033   6.108  -3.013  0.00  0.00    +0.052 C 
ENDBRANCH   1  21
BRANCH   9  22
ATOM     22  C   UNL     1       1.138   6.138   2.520  0.00  0.00    +0.101 C 
ATOM     23  N   UNL     1       0.635   6.206   3.536  0.00  0.00    -0.191 NA
ENDBRANCH   9  22
TORSDOF 4
