REMARK  Name = ZINC36552278
REMARK  15 active torsions:
REMARK  status: ('A' for Active; 'I' for Inactive)
REMARK    1  A    between atoms: C_1  and  C_2
REMARK    2  A    between atoms: C_2  and  C_3
REMARK    3  A    between atoms: C_2  and  C_4
REMARK    4  A    between atoms: C_2  and  C_5
REMARK    5  A    between atoms: C_5  and  C_6
REMARK    6  A    between atoms: C_6  and  C_7
REMARK    7  A    between atoms: C_6  and  C_8
REMARK    8  A    between atoms: C_6  and  N_9
REMARK    9  A    between atoms: C_10  and  C_12
REMARK   10  A    between atoms: C_12  and  C_14
REMARK   11  A    between atoms: C_12  and  N_24
REMARK   12  A    between atoms: C_16  and  N_21
REMARK   13  A    between atoms: N_24  and  C_25
REMARK   14  A    between atoms: C_32  and  C_34
REMARK   15  A    between atoms: C_34  and  O_35
REMARK                            x       y       z     vdW  Elec       q    Type
REMARK                         _______ _______ _______ _____ _____    ______ ____
ROOT
ATOM      1  C   UNL     1       5.135   0.216  -3.976  0.00  0.00    +0.199 C 
ENDROOT
BRANCH   1   2
ATOM      2  C   UNL     1       5.254  -1.173  -4.548  0.00  0.00    +0.003 A 
ATOM      3  C   UNL     1       6.367  -1.943  -4.266  0.00  0.00    +0.040 A 
ATOM      4  C   UNL     1       6.477  -3.217  -4.792  0.00  0.00    +0.127 A 
ATOM      5  C   UNL     1       5.475  -3.721  -5.599  0.00  0.00    +0.034 A 
ATOM      6  C   UNL     1       4.362  -2.953  -5.881  0.00  0.00    +0.022 A 
ATOM      7  C   UNL     1       4.248  -1.679  -5.351  0.00  0.00    +0.047 A 
ATOM      8 CL   UNL     1       2.847  -0.716  -5.699  0.00  0.00    -0.083 Cl
BRANCH   4   9
ATOM      9  N   UNL     1       7.669  -4.041  -4.490  0.00  0.00    +0.056 N 
ATOM     10  O   UNL     1       8.546  -3.600  -3.784  0.00  0.00    -0.126 OA
ATOM     11  O   UNL     1       7.766  -5.155  -4.949  0.00  0.00    -0.126 OA
ENDBRANCH   4   9
ENDBRANCH   1   2
BRANCH   1  13
ATOM     12  N   UNL     1       3.236  -0.421  -2.525  0.00  0.00    -0.308 N 
ATOM     13  C   UNL     1       4.452   0.149  -2.634  0.00  0.00    +0.239 C 
ATOM     14  O   UNL     1       4.997   0.610  -1.653  0.00  0.00    -0.273 OA
ATOM     15  H   UNL     1       2.797  -0.782  -3.311  0.00  0.00    +0.149 HD
BRANCH  12  16
ATOM     16  C   UNL     1       2.577  -0.497  -1.218  0.00  0.00    +0.030 C 
ATOM     17  C   UNL     1       2.733   0.839  -0.490  0.00  0.00    +0.031 C 
ATOM     18  C   UNL     1       3.220  -1.609  -0.387  0.00  0.00    +0.031 C 
BRANCH  16  19
ATOM     19  C   UNL     1       1.091  -0.801  -1.413  0.00  0.00    +0.031 C 
BRANCH  19  21
ATOM     20  C   UNL     1       0.945  -0.465  -3.885  0.00  0.00    +0.010 C 
ATOM     21  C   UNL     1       0.529   0.091  -2.522  0.00  0.00    -0.036 C 
ATOM     22  C   UNL     1       1.077   1.511  -2.361  0.00  0.00    +0.010 C 
ATOM     23  C   UNL     1      -0.998   0.121  -2.428  0.00  0.00    +0.010 C 
ENDBRANCH  19  21
ENDBRANCH  16  19
ENDBRANCH  12  16
ENDBRANCH   1  13
BRANCH   1  24
ATOM     24  N   UNL     1       6.471   0.795  -3.816  0.00  0.00    -0.253 N 
ATOM     25  C   UNL     1       6.856   1.826  -4.594  0.00  0.00    +0.246 C 
ATOM     26  O   UNL     1       7.988   2.255  -4.515  0.00  0.00    -0.273 OA
BRANCH  24  27
ATOM     27  C   UNL     1       7.347   0.278  -2.855  0.00  0.00    +0.039 A 
ATOM     28  C   UNL     1       6.907  -0.691  -1.963  0.00  0.00    +0.023 A 
ATOM     29  C   UNL     1       7.774  -1.200  -1.016  0.00  0.00    +0.003 A 
ATOM     30  C   UNL     1       9.079  -0.747  -0.955  0.00  0.00    +0.020 A 
ATOM     31  C   UNL     1       9.520   0.219  -1.842  0.00  0.00    +0.043 A 
ATOM     32  C   UNL     1       8.659   0.728  -2.797  0.00  0.00    +0.043 A 
ATOM     33 CL   UNL     1      11.159   0.786  -1.762  0.00  0.00    -0.083 Cl
ENDBRANCH  24  27
BRANCH  25  34
ATOM     34  C   UNL     1       5.881   2.446  -5.561  0.00  0.00    +0.252 C 
BRANCH  34  35
ATOM     35  O   UNL     1       6.483   3.584  -6.181  0.00  0.00    -0.386 OA
ATOM     36  H   UNL     1       5.910   4.035  -6.817  0.00  0.00    +0.210 HD
ENDBRANCH  34  35
ENDBRANCH  25  34
ENDBRANCH   1  24
TORSDOF 10
