REMARK  Name = ZINC58382061
REMARK  6 active torsions:
REMARK  status: ('A' for Active; 'I' for Inactive)
REMARK    1  A    between atoms: C_1  and  C_2
REMARK    2  A    between atoms: C_2  and  C_24
REMARK    3  A    between atoms: C_5  and  N_12
REMARK    4  A    between atoms: C_13  and  C_15
REMARK    5  A    between atoms: C_18  and  S_20
REMARK    6  A    between atoms: S_20  and  N_23
REMARK                            x       y       z     vdW  Elec       q    Type
REMARK                         _______ _______ _______ _____ _____    ______ ____
ROOT
ATOM      1  N   UNL     1      -0.732  -3.756   1.804  0.00  0.00    -0.302 N 
ATOM      2  C   UNL     1      -0.843  -4.321   3.023  0.00  0.00    +0.280 C 
ATOM      3  O   UNL     1      -1.143  -3.638   3.985  0.00  0.00    -0.267 OA
ATOM      4  H   UNL     1      -0.493  -4.300   1.038  0.00  0.00    +0.150 HD
ENDROOT
BRANCH   1   9
ATOM      5  C   UNL     1      -0.019   1.526   0.010  0.00  0.00    +0.016 C 
ATOM      6  C   UNL     1       0.002  -0.004   0.002  0.00  0.00    -0.009 C 
ATOM      7  C   UNL     1      -1.433  -0.527  -0.015  0.00  0.00    +0.013 C 
ATOM      8  C   UNL     1      -1.397  -2.045   0.197  0.00  0.00    +0.028 C 
ATOM      9  C   UNL     1      -0.972  -2.321   1.638  0.00  0.00    +0.104 C 
ATOM     10  C   UNL     1       0.286  -1.564   1.973  0.00  0.00    -0.024 A 
ATOM     11  C   UNL     1       0.732  -0.498   1.224  0.00  0.00    -0.037 A 
ATOM     12  C   UNL     1       1.897   0.162   1.592  0.00  0.00    +0.004 A 
ATOM     13  C   UNL     1       2.614  -0.245   2.698  0.00  0.00    +0.000 A 
ATOM     14  C   UNL     1       2.169  -1.318   3.448  0.00  0.00    +0.000 A 
ATOM     15  C   UNL     1       1.010  -1.973   3.085  0.00  0.00    +0.006 A 
ATOM     16  C   UNL     1       0.731  -0.492  -1.252  0.00  0.00    +0.016 C 
ENDBRANCH   1   9
BRANCH   2  17
ATOM     17  C   UNL     1      -0.602  -5.758   3.190  0.00  0.00    +0.192 A 
ATOM     18  C   UNL     1      -0.686  -6.455   4.362  0.00  0.00    +0.057 A 
ATOM     19  C   UNL     1      -0.379  -7.790   4.059  0.00  0.00    +0.072 A 
ATOM     20  C   UNL     1      -0.124  -7.850   2.733  0.00  0.00    +0.258 A 
ATOM     21  O   UNL     1      -0.265  -6.624   2.212  0.00  0.00    -0.432 OA
BRANCH  20  22
ATOM     22  S   UNL     1       0.314  -9.302   1.837  0.00  0.00    +0.089 S 
ATOM     23  O   UNL     1       1.014  -8.868   0.679  0.00  0.00    -0.150 OA
ATOM     24  O   UNL     1       0.882 -10.204   2.777  0.00  0.00    -0.150 OA
BRANCH  22  25
ATOM     25  N   UNL     1      -1.094  -9.995   1.307  0.00  0.00    -0.201 NA
ATOM     26  H   UNL     1      -1.946  -9.582   1.517  0.00  0.00    +0.144 HD
ATOM     27  H   UNL     1      -1.066 -10.813   0.788  0.00  0.00    +0.144 HD
ENDBRANCH  22  25
ENDBRANCH  20  22
ENDBRANCH   2  17
TORSDOF 4
