REMARK  Name = ZINC63138927
REMARK  8 active torsions:
REMARK  status: ('A' for Active; 'I' for Inactive)
REMARK    1  A    between atoms: C_1  and  C_2
REMARK    2  A    between atoms: C_2  and  C_4
REMARK    3  A    between atoms: C_2  and  N_12
REMARK    4  A    between atoms: C_4  and  C_5
REMARK    5  A    between atoms: C_5  and  C_6
REMARK    6  A    between atoms: C_32  and  C_34
REMARK    7  A    between atoms: C_34  and  C_35
REMARK    8  A    between atoms: C_35  and  C_36
REMARK                            x       y       z     vdW  Elec       q    Type
REMARK                         _______ _______ _______ _____ _____    ______ ____
ROOT
ATOM      1  N   UNL     1       0.900  -0.121   1.219  0.00  0.00    -0.288 N 
ATOM      2  C   UNL     1       0.249   0.004   2.513  0.00  0.00    +0.204 C 
ATOM      3  C   UNL     1       1.077  -0.564   3.618  0.00  0.00    +0.234 C 
ATOM      4  O   UNL     1       0.627  -0.510   4.743  0.00  0.00    -0.274 OA
ATOM      5  N   UNL     1       2.279  -1.129   3.455  0.00  0.00    -0.283 N 
ATOM      6  C   UNL     1       2.914  -1.268   2.149  0.00  0.00    +0.167 C 
ATOM      7  C   UNL     1       2.090  -0.694   1.045  0.00  0.00    +0.237 C 
ATOM      8  O   UNL     1       2.533  -0.749  -0.082  0.00  0.00    -0.274 OA
ATOM      9  C   UNL     1       3.198  -2.753   1.859  0.00  0.00    +0.065 C 
ATOM     10  C   UNL     1       3.818  -3.325   3.110  0.00  0.00    -0.034 C 
ATOM     11  C   UNL     1       4.928  -4.027   3.301  0.00  0.00    -0.001 A 
ATOM     12  C   UNL     1       5.901  -4.599   2.357  0.00  0.00    +0.010 A 
ATOM     13  C   UNL     1       6.957  -5.254   2.907  0.00  0.00    +0.001 A 
ATOM     14  C   UNL     1       7.141  -5.396   4.286  0.00  0.00    +0.002 A 
ATOM     15  C   UNL     1       6.292  -4.910   5.226  0.00  0.00    +0.026 A 
ATOM     16  C   UNL     1       5.139  -4.208   4.770  0.00  0.00    +0.043 A 
ATOM     17  N   UNL     1       4.163  -3.667   5.439  0.00  0.00    -0.376 N 
ATOM     18  C   UNL     1       3.190  -3.133   4.486  0.00  0.00    +0.127 C 
ATOM     19  C   UNL     1       2.977  -1.627   4.662  0.00  0.00    +0.104 C 
ATOM     20  H   UNL     1       4.093  -3.625   6.406  0.00  0.00    +0.160 HD
ENDROOT
BRANCH   1  22
ATOM     21  C   UNL     1      -0.026   1.909   0.217  0.00  0.00    +0.028 C 
ATOM     22  C   UNL     1       0.207   0.407   0.042  0.00  0.00    +0.074 C 
BRANCH  22  23
ATOM     23  C   UNL     1      -1.140  -0.301  -0.118  0.00  0.00    +0.027 C 
BRANCH  23  24
ATOM     24  C   UNL     1      -0.904  -1.783  -0.418  0.00  0.00    +0.037 C 
BRANCH  24  25
ATOM     25  C   UNL     1      -2.230  -2.482  -0.575  0.00  0.00    -0.047 A 
ATOM     26  C   UNL     1      -2.854  -3.036   0.526  0.00  0.00    +0.003 A 
ATOM     27  C   UNL     1      -4.070  -3.677   0.382  0.00  0.00    +0.000 A 
ATOM     28  C   UNL     1      -4.663  -3.762  -0.864  0.00  0.00    +0.000 A 
ATOM     29  C   UNL     1      -4.039  -3.207  -1.965  0.00  0.00    +0.000 A 
ATOM     30  C   UNL     1      -2.825  -2.562  -1.820  0.00  0.00    +0.003 A 
ENDBRANCH  24  25
ENDBRANCH  23  24
ENDBRANCH  22  23
ENDBRANCH   1  22
BRANCH  19  31
ATOM     31  C   UNL     1       2.120  -1.366   5.902  0.00  0.00    +0.029 C 
BRANCH  31  32
ATOM     32  C   UNL     1       2.870  -1.839   7.149  0.00  0.00    +0.037 C 
BRANCH  32  33
ATOM     33  C   UNL     1       2.098  -1.439   8.381  0.00  0.00    -0.047 A 
ATOM     34  C   UNL     1       2.335  -0.215   8.978  0.00  0.00    +0.003 A 
ATOM     35  C   UNL     1       1.628   0.151  10.108  0.00  0.00    +0.000 A 
ATOM     36  C   UNL     1       0.683  -0.706  10.640  0.00  0.00    +0.000 A 
ATOM     37  C   UNL     1       0.445  -1.930  10.042  0.00  0.00    +0.000 A 
ATOM     38  C   UNL     1       1.150  -2.294   8.910  0.00  0.00    +0.003 A 
ENDBRANCH  32  33
ENDBRANCH  31  32
ENDBRANCH  19  31
TORSDOF 7
