REMARK  Name = ZINC39355263
REMARK  7 active torsions:
REMARK  status: ('A' for Active; 'I' for Inactive)
REMARK    1  A    between atoms: C_1  and  C_2
REMARK    2  A    between atoms: N_9  and  C_19
REMARK    3  A    between atoms: C_11  and  C_14
REMARK    4  A    between atoms: C_19  and  C_20
REMARK    5  A    between atoms: N_22  and  C_23
REMARK    6  A    between atoms: C_23  and  C_24
REMARK    7  A    between atoms: C_27  and  C_33
REMARK                            x       y       z     vdW  Elec       q    Type
REMARK                         _______ _______ _______ _____ _____    ______ ____
ROOT
ATOM      1  C   UNL     1      -0.018   1.503   0.010  0.00  0.00    +0.044 C 
ATOM      2  C   UNL     1       0.002  -0.004   0.002  0.00  0.00    -0.050 A 
ATOM      3  C   UNL     1       0.006  -0.688  -1.200  0.00  0.00    +0.007 A 
ATOM      4  C   UNL     1       0.015  -2.070  -1.214  0.00  0.00    +0.046 A 
ATOM      5  C   UNL     1       0.026  -2.768  -0.015  0.00  0.00    +0.126 A 
ATOM      6  C   UNL     1       0.040  -2.081   1.183  0.00  0.00    +0.009 A 
ATOM      7  C   UNL     1       0.023  -0.701   1.197  0.00  0.00    +0.012 A 
ATOM      8  C   UNL     1       0.109  -2.855   2.485  0.00  0.00    +0.124 C 
ATOM      9  N   UNL     1      -1.154  -3.579   2.672  0.00  0.00    -0.286 NA
ATOM     10  C   UNL     1      -1.174  -4.860   1.972  0.00  0.00    +0.134 C 
ATOM     11  C   UNL     1      -1.202  -4.727   0.464  0.00  0.00    +0.218 C 
ATOM     12  O   UNL     1       0.008  -4.130  -0.016  0.00  0.00    -0.483 OA
ENDROOT
BRANCH  11  13
ATOM     13  C   UNL     1      -1.359  -6.094  -0.152  0.00  0.00    +0.001 A 
ATOM     14  C   UNL     1      -2.594  -6.524  -0.599  0.00  0.00    +0.015 A 
ATOM     15  C   UNL     1      -2.700  -7.759  -1.148  0.00  0.00    +0.045 A 
ATOM     16  S   UNL     1      -1.020  -8.355  -1.043  0.00  0.00    -0.105 S 
ATOM     17  C   UNL     1      -0.289  -6.917  -0.280  0.00  0.00    +0.052 A 
ENDBRANCH  11  13
BRANCH   9  18
ATOM     18  C   UNL     1      -1.454  -3.754   4.099  0.00  0.00    +0.180 C 
BRANCH  18  19
ATOM     19  C   UNL     1      -1.715  -2.409   4.726  0.00  0.00    +0.227 C 
ATOM     20  O   UNL     1      -1.658  -1.403   4.051  0.00  0.00    -0.274 OA
ATOM     21  N   UNL     1      -2.014  -2.324   6.038  0.00  0.00    -0.309 N 
ATOM     22  H   UNL     1      -2.060  -3.128   6.578  0.00  0.00    +0.149 HD
BRANCH  21  23
ATOM     23  C   UNL     1      -2.268  -1.016   6.648  0.00  0.00    +0.159 C 
BRANCH  23  24
ATOM     24  C   UNL     1      -2.576  -1.196   8.112  0.00  0.00    +0.051 A 
ATOM     25  C   UNL     1      -3.810  -1.298   8.651  0.00  0.00    +0.115 A 
ATOM     26  N   UNL     1      -3.650  -1.450  10.001  0.00  0.00    -0.305 N 
ATOM     27  C   UNL     1      -4.540  -1.598  11.026  0.00  0.00    +0.022 A 
ATOM     28  C   UNL     1      -4.108  -1.734  12.297  0.00  0.00    +0.021 A 
ATOM     29  C   UNL     1      -2.733  -1.723  12.583  0.00  0.00    +0.005 A 
ATOM     30  C   UNL     1      -1.835  -1.576  11.572  0.00  0.00    +0.045 A 
ATOM     31  C   UNL     1      -2.302  -1.437  10.249  0.00  0.00    +0.116 A 
ATOM     32  N   UNL     1      -1.674  -1.287   9.092  0.00  0.00    -0.342 N 
ATOM     33  C   UNL     1      -6.019  -1.611  10.734  0.00  0.00    +0.064 C 
ATOM     34  H   UNL     1      -0.711  -1.247   8.976  0.00  0.00    +0.167 HD
ENDBRANCH  23  24
ENDBRANCH  21  23
ENDBRANCH  18  19
ENDBRANCH   9  18
TORSDOF 5
