REMARK  Name = ZINC41168977
REMARK  6 active torsions:
REMARK  status: ('A' for Active; 'I' for Inactive)
REMARK    1  A    between atoms: C_1  and  C_2
REMARK    2  A    between atoms: C_4  and  C_28
REMARK    3  A    between atoms: C_7  and  C_14
REMARK    4  A    between atoms: C_14  and  N_15
REMARK    5  A    between atoms: N_15  and  S_16
REMARK    6  A    between atoms: S_16  and  C_19
REMARK                            x       y       z     vdW  Elec       q    Type
REMARK                         _______ _______ _______ _____ _____    ______ ____
ROOT
ATOM      1  C   UNL     1       0.096  -6.383   1.200  0.00  0.00    +0.146 C 
ENDROOT
BRANCH   1   8
ATOM      2  C   UNL     1      -0.018   1.503   0.010  0.00  0.00    +0.044 C 
ATOM      3  C   UNL     1       0.002  -0.004   0.002  0.00  0.00    -0.048 A 
ATOM      4  C   UNL     1       0.006  -0.684  -1.208  0.00  0.00    +0.007 A 
ATOM      5  C   UNL     1       0.024  -2.050  -1.238  0.00  0.00    -0.041 A 
ATOM      6  C   UNL     1       0.040  -2.769  -0.039  0.00  0.00    +0.002 A 
ATOM      7  C   UNL     1       0.060  -4.233  -0.034  0.00  0.00    +0.020 A 
ATOM      8  C   UNL     1       0.075  -4.877   1.159  0.00  0.00    +0.033 A 
ATOM      9  C   UNL     1       0.070  -4.142   2.364  0.00  0.00    +0.254 A 
ATOM     10  O   UNL     1       0.084  -4.740   3.426  0.00  0.00    -0.268 OA
ATOM     11  N   UNL     1       0.052  -2.797   2.370  0.00  0.00    -0.322 N 
ATOM     12  H   UNL     1       0.050  -2.323   3.216  0.00  0.00    +0.169 HD
ATOM     13  C   UNL     1       0.036  -2.083   1.190  0.00  0.00    +0.050 A 
ATOM     14  C   UNL     1       0.023  -0.692   1.196  0.00  0.00    +0.029 A 
ATOM     15  C   UNL     1       0.027  -2.778  -2.558  0.00  0.00    +0.044 C 
ENDBRANCH   1   8
BRANCH   1  16
ATOM     16  N   UNL     1       1.479  -6.850   1.326  0.00  0.00    -0.185 NA
ATOM     17  H   UNL     1       2.213  -6.240   1.153  0.00  0.00    +0.148 HD
BRANCH  16  18
ATOM     18  S   UNL     1       1.788  -8.416   1.764  0.00  0.00    +0.059 S 
ATOM     19  O   UNL     1       3.201  -8.565   1.773  0.00  0.00    -0.153 OA
ATOM     20  O   UNL     1       0.986  -8.684   2.907  0.00  0.00    -0.153 OA
BRANCH  18  21
ATOM     21  C   UNL     1       1.181  -9.448   0.471  0.00  0.00    +0.109 A 
ATOM     22  C   UNL     1      -0.123  -9.905   0.507  0.00  0.00    +0.032 A 
ATOM     23  C   UNL     1      -0.603 -10.714  -0.505  0.00  0.00    +0.051 A 
ATOM     24  C   UNL     1       0.223 -11.070  -1.559  0.00  0.00    +0.166 A 
ATOM     25  C   UNL     1       1.537 -10.610  -1.596  0.00  0.00    +0.168 A 
ATOM     26  C   UNL     1       2.009  -9.795  -0.580  0.00  0.00    +0.078 A 
ATOM     27  O   UNL     1       2.137 -11.094  -2.722  0.00  0.00    -0.453 OA
ATOM     28  C   UNL     1       1.306 -12.184  -3.163  0.00  0.00    +0.466 C 
ATOM     29  O   UNL     1       0.000 -11.842  -2.663  0.00  0.00    -0.453 OA
ENDBRANCH  18  21
ENDBRANCH  16  18
ENDBRANCH   1  16
TORSDOF 4
