REMARK  Name = ZINC18272430
REMARK  6 active torsions:
REMARK  status: ('A' for Active; 'I' for Inactive)
REMARK    1  A    between atoms: C_1  and  O_2
REMARK    2  A    between atoms: O_2  and  C_3
REMARK    3  A    between atoms: C_5  and  O_25
REMARK    4  A    between atoms: C_8  and  C_9
REMARK    5  A    between atoms: N_15  and  C_16
REMARK    6  A    between atoms: O_25  and  C_26
REMARK                            x       y       z     vdW  Elec       q    Type
REMARK                         _______ _______ _______ _____ _____    ______ ____
ROOT
ATOM      1  C   UNL     1      -0.020  -2.829  -0.013  0.00  0.00    +0.032 C 
ATOM      2  C   UNL     1      -0.076  -4.183   0.083  0.00  0.00    +0.078 C 
ATOM      3  C   UNL     1      -1.251  -5.071   0.104  0.00  0.00    +0.256 C 
ATOM      4  O   UNL     1      -2.383  -4.629   0.032  0.00  0.00    -0.269 OA
ATOM      5  N   UNL     1      -1.022  -6.369   0.206  0.00  0.00    -0.260 N 
ATOM      6  C   UNL     1       0.267  -6.850   0.287  0.00  0.00    +0.166 C 
ATOM      7  N   UNL     1       0.669  -8.097   0.391  0.00  0.00    -0.226 NA
ATOM      8  S   UNL     1       1.257  -5.367   0.209  0.00  0.00    -0.049 S 
ATOM      9  H   UNL     1      -1.768  -6.989   0.224  0.00  0.00    +0.157 HD
ENDROOT
BRANCH   1  15
ATOM     10  C   UNL     1      -1.488  -0.866   0.420  0.00  0.00    +0.131 A 
ATOM     11  C   UNL     1      -2.640  -0.145   0.161  0.00  0.00    +0.093 A 
ATOM     12  C   UNL     1      -3.551  -0.605  -0.779  0.00  0.00    +0.137 A 
ATOM     13  C   UNL     1      -3.313  -1.792  -1.466  0.00  0.00    +0.060 A 
ATOM     14  C   UNL     1      -2.171  -2.519  -1.219  0.00  0.00    +0.030 A 
ATOM     15  C   UNL     1      -1.241  -2.062  -0.276  0.00  0.00    +0.019 A 
ATOM     16 BR   UNL     1      -4.563  -2.407  -2.744  0.00  0.00    -0.046 Br
BRANCH  10  18
ATOM     17  C   UNL     1      -0.912   0.806   2.007  0.00  0.00    +0.277 C 
ATOM     18  O   UNL     1      -0.595  -0.416   1.339  0.00  0.00    -0.494 OA
ENDBRANCH  10  18
BRANCH  12  19
ATOM     19  O   UNL     1      -4.681   0.106  -1.029  0.00  0.00    -0.494 OA
ATOM     20  C   UNL     1      -4.864   1.314  -0.288  0.00  0.00    +0.277 C 
ENDBRANCH  12  19
ENDBRANCH   1  15
BRANCH   7  21
ATOM     21  C   UNL     1       2.006  -8.382   0.460  0.00  0.00    +0.067 A 
ATOM     22  C   UNL     1       2.903  -7.750  -0.406  0.00  0.00    +0.030 A 
ATOM     23  C   UNL     1       4.249  -8.041  -0.331  0.00  0.00    +0.040 A 
ATOM     24  C   UNL     1       4.713  -8.957   0.600  0.00  0.00    +0.124 A 
ATOM     25  C   UNL     1       3.828  -9.586   1.461  0.00  0.00    +0.040 A 
ATOM     26  C   UNL     1       2.480  -9.300   1.399  0.00  0.00    +0.030 A 
ATOM     27  F   UNL     1       6.032  -9.237   0.668  0.00  0.00    -0.205 F 
ENDBRANCH   7  21
TORSDOF 4
