REMARK  Name = ZINC06149234
REMARK  10 active torsions:
REMARK  status: ('A' for Active; 'I' for Inactive)
REMARK    1  A    between atoms: C_1  and  C_2
REMARK    2  A    between atoms: C_2  and  C_3
REMARK    3  A    between atoms: C_3  and  C_4
REMARK    4  A    between atoms: C_3  and  C_5
REMARK    5  A    between atoms: C_3  and  N_6
REMARK    6  A    between atoms: C_7  and  C_11
REMARK    7  A    between atoms: C_11  and  C_13
REMARK    8  A    between atoms: C_11  and  N_72
REMARK    9  A    between atoms: C_30  and  C_33
REMARK   10  A    between atoms: C_33  and  C_34
REMARK                            x       y       z     vdW  Elec       q    Type
REMARK                         _______ _______ _______ _____ _____    ______ ____
ROOT
ATOM      1  C   UNL     1      -1.266   2.220   0.102  0.00  0.00    +0.039 C 
ENDROOT
BRANCH   1   2
ATOM      2  C   UNL     1      -1.845   2.391  -1.279  0.00  0.00    +0.011 A 
ATOM      3  C   UNL     1      -1.766   3.596  -1.900  0.00  0.00    +0.017 A 
ATOM      4  C   UNL     1      -2.337   3.731  -3.240  0.00  0.00    +0.002 A 
ATOM      5  C   UNL     1      -2.283   4.949  -3.928  0.00  0.00    +0.059 A 
ATOM      6  C   UNL     1      -2.829   5.045  -5.189  0.00  0.00    +0.167 A 
ATOM      7  C   UNL     1      -3.436   3.930  -5.783  0.00  0.00    +0.168 A 
ATOM      8  C   UNL     1      -3.493   2.724  -5.110  0.00  0.00    +0.075 A 
ATOM      9  C   UNL     1      -2.947   2.611  -3.837  0.00  0.00    +0.053 A 
ATOM     10  N   UNL     1      -2.994   1.414  -3.152  0.00  0.00    -0.322 N 
ATOM     11  H   UNL     1      -3.432   0.620  -3.575  0.00  0.00    +0.169 HD
ATOM     12  C   UNL     1      -2.461   1.299  -1.923  0.00  0.00    +0.251 A 
ATOM     13  O   UNL     1      -2.516   0.225  -1.349  0.00  0.00    -0.268 OA
ATOM     14  O   UNL     1      -3.889   4.292  -7.018  0.00  0.00    -0.453 OA
ATOM     15  C   UNL     1      -3.196   5.511  -7.343  0.00  0.00    +0.466 C 
ATOM     16  O   UNL     1      -2.907   6.095  -6.059  0.00  0.00    -0.453 OA
ENDBRANCH   1   2
BRANCH   1  22
ATOM     17  C   UNL     1      -3.443   2.609   1.086  0.00  0.00    -0.077 C 
ATOM     18  C   UNL     1      -4.557   1.963   1.915  0.00  0.00    -0.015 C 
ATOM     19  C   UNL     1      -4.027   1.651   3.317  0.00  0.00    -0.010 C 
ATOM     20  C   UNL     1      -2.806   0.734   3.200  0.00  0.00    -0.015 C 
ATOM     21  C   UNL     1      -1.744   1.415   2.334  0.00  0.00    -0.077 C 
ATOM     22  N   UNL     1      -2.308   1.666   0.991  0.00  0.00    +0.389 N 
ATOM     23  H   UNL     1      -2.644   0.779   0.599  0.00  0.00    -0.080 HD
BRANCH  19  24
ATOM     24  C   UNL     1      -5.116   0.950   4.132  0.00  0.00    +0.038 C 
BRANCH  24  25
ATOM     25  C   UNL     1      -6.267   1.898   4.351  0.00  0.00    -0.047 A 
ATOM     26  C   UNL     1      -6.288   2.714   5.466  0.00  0.00    +0.003 A 
ATOM     27  C   UNL     1      -7.342   3.587   5.665  0.00  0.00    +0.000 A 
ATOM     28  C   UNL     1      -8.379   3.636   4.752  0.00  0.00    +0.000 A 
ATOM     29  C   UNL     1      -8.361   2.817   3.639  0.00  0.00    +0.000 A 
ATOM     30  C   UNL     1      -7.305   1.948   3.438  0.00  0.00    +0.003 A 
ENDBRANCH  24  25
ENDBRANCH  19  24
ENDBRANCH   1  22
BRANCH   1  32
ATOM     31  N   UNL     1       1.193   1.552   0.217  0.00  0.00    -0.225 N 
ATOM     32  C   UNL     1      -0.109   1.256   0.045  0.00  0.00    +0.143 A 
ATOM     33  N   UNL     1      -0.174  -0.033  -0.187  0.00  0.00    -0.115 NA
ATOM     34  N   UNL     1       1.025  -0.503  -0.159  0.00  0.00    -0.023 NA
ATOM     35  N   UNL     1       1.853   0.452   0.085  0.00  0.00    -0.043 NA
BRANCH  31  36
ATOM     36  C   UNL     1       1.754   2.875   0.501  0.00  0.00    +0.061 C 
ATOM     37  C   UNL     1       1.337   3.853  -0.599  0.00  0.00    +0.036 C 
ATOM     38  C   UNL     1       1.231   3.372   1.851  0.00  0.00    +0.036 C 
BRANCH  36  40
ATOM     39  C   UNL     1       3.866   4.164   0.845  0.00  0.00    +0.006 C 
ATOM     40  C   UNL     1       3.280   2.782   0.549  0.00  0.00    +0.026 C 
ENDBRANCH  36  40
ENDBRANCH  31  36
ENDBRANCH   1  32
TORSDOF 7
