REMARK  Name = ZINC43464057
REMARK  5 active torsions:
REMARK  status: ('A' for Active; 'I' for Inactive)
REMARK    1  A    between atoms: C_1  and  N_2
REMARK    2  A    between atoms: N_2  and  C_3
REMARK    3  A    between atoms: N_2  and  C_4
REMARK    4  A    between atoms: C_7  and  C_10
REMARK    5  A    between atoms: C_20  and  C_21
REMARK                            x       y       z     vdW  Elec       q    Type
REMARK                         _______ _______ _______ _____ _____    ______ ____
ROOT
ATOM      1  C   UNL     1      -0.005  -2.798  -4.898  0.00  0.00    +0.011 C 
ATOM      2  C   UNL     1      -0.121  -2.125  -6.054  0.00  0.00    -0.037 C 
ATOM      3  C   UNL     1      -0.137  -0.604  -6.128  0.00  0.00    -0.044 C 
ATOM      4  N   UNL     1      -1.188  -0.188  -7.067  0.00  0.00    +0.385 N 
ATOM      5  C   UNL     1      -0.857  -0.556  -8.451  0.00  0.00    -0.042 C 
ATOM      6  C   UNL     1      -0.594  -2.038  -8.522  0.00  0.00    -0.008 A 
ATOM      7  C   UNL     1      -0.238  -2.799  -7.370  0.00  0.00    +0.089 A 
ATOM      8  N   UNL     1      -0.074  -4.037  -7.729  0.00  0.00    -0.174 NA
ATOM      9  H   UNL     1      -0.253  -4.921  -9.653  0.00  0.00    +0.189 HD
ATOM     10  N   UNL     1      -0.306  -4.117  -9.113  0.00  0.00    -0.272 N 
ATOM     11  C   UNL     1      -0.629  -2.876  -9.563  0.00  0.00    +0.140 A 
ATOM     12  H   UNL     1      -2.056  -0.633  -6.808  0.00  0.00    -0.085 HD
ATOM     13  H   UNL     1      -1.302   0.812  -7.011  0.00  0.00    -0.085 HD
ENDROOT
BRANCH   1  17
ATOM     14  C   UNL     1       0.805  -0.704  -1.295  0.00  0.00    +0.029 A 
ATOM     15  C   UNL     1       0.037  -1.863  -1.266  0.00  0.00    +0.023 A 
ATOM     16  C   UNL     1      -0.228  -2.545  -2.433  0.00  0.00    +0.010 A 
ATOM     17  C   UNL     1       0.276  -2.071  -3.648  0.00  0.00    -0.025 A 
ATOM     18  C   UNL     1       1.047  -0.905  -3.673  0.00  0.00    +0.010 A 
ATOM     19  C   UNL     1       1.303  -0.226  -2.502  0.00  0.00    +0.023 A 
BRANCH  14  21
ATOM     20  C   UNL     1       1.875   1.209  -0.140  0.00  0.00    +0.129 C 
ATOM     21  N   UNL     1       1.071  -0.016  -0.111  0.00  0.00    -0.336 N 
ATOM     22  C   UNL     1       0.547  -0.517   1.162  0.00  0.00    +0.129 C 
ENDBRANCH  14  21
ENDBRANCH   1  17
BRANCH  11  23
ATOM     23  C   UNL     1      -0.952  -2.506 -10.988  0.00  0.00    +0.434 C 
ATOM     24  F   UNL     1      -0.888  -3.650 -11.792  0.00  0.00    -0.164 F 
ATOM     25  F   UNL     1      -2.240  -1.964 -11.049  0.00  0.00    -0.164 F 
ATOM     26  F   UNL     1      -0.026  -1.562 -11.446  0.00  0.00    -0.164 F 
ENDBRANCH  11  23
TORSDOF 3
