REMARK  Name = ZINC20706374
REMARK  6 active torsions:
REMARK  status: ('A' for Active; 'I' for Inactive)
REMARK    1  A    between atoms: C_4  and  C_10
REMARK    2  A    between atoms: C_6  and  N_7
REMARK    3  A    between atoms: C_21  and  S_26
REMARK    4  A    between atoms: S_26  and  N_29
REMARK    5  A    between atoms: N_29  and  C_30
REMARK    6  A    between atoms: C_30  and  C_31
REMARK                            x       y       z     vdW  Elec       q    Type
REMARK                         _______ _______ _______ _____ _____    ______ ____
ROOT
ATOM      1  C   UNL     1       1.244   6.096   5.328  0.00  0.00    +0.106 C 
ATOM      2  C   UNL     1       1.420   6.780   3.983  0.00  0.00    +0.029 C 
ATOM      3  C   UNL     1       0.776   8.162   3.811  0.00  0.00    +0.033 C 
ATOM      4  C   UNL     1       0.485   8.181   2.309  0.00  0.00    -0.030 C 
ATOM      5  C   UNL     1       0.349   6.941   1.857  0.00  0.00    -0.023 C 
ATOM      6  C   UNL     1       0.498   6.001   2.998  0.00  0.00    +0.049 C 
ATOM      7  C   UNL     1       1.060   4.644   2.826  0.00  0.00    -0.018 A 
ATOM      8  C   UNL     1       0.993   3.961   1.631  0.00  0.00    +0.034 A 
ATOM      9  C   UNL     1       1.510   2.683   1.528  0.00  0.00    +0.106 A 
ATOM     10  C   UNL     1       2.109   2.089   2.624  0.00  0.00    +0.030 A 
ATOM     11  C   UNL     1       2.193   2.770   3.821  0.00  0.00    +0.025 A 
ATOM     12  C   UNL     1       1.673   4.053   3.936  0.00  0.00    +0.031 A 
ATOM     13  N   UNL     1       1.788   4.732   5.156  0.00  0.00    -0.336 N 
ATOM     14  H   UNL     1       2.295   4.232   5.995  0.00  0.00    +0.147 HD
ENDROOT
BRANCH   1  18
ATOM     15  C   UNL     1       3.425   8.186   8.350  0.00  0.00    +0.034 A 
ATOM     16  C   UNL     1       2.121   8.547   8.065  0.00  0.00    +0.022 A 
ATOM     17  C   UNL     1       1.416   7.875   7.082  0.00  0.00    +0.046 A 
ATOM     18  C   UNL     1       2.013   6.833   6.394  0.00  0.00    -0.007 A 
ATOM     19  C   UNL     1       3.316   6.473   6.681  0.00  0.00    +0.039 A 
ATOM     20  C   UNL     1       4.021   7.149   7.659  0.00  0.00    +0.127 A 
ATOM     21 CL   UNL     1      -0.218   8.333   6.718  0.00  0.00    -0.083 Cl
BRANCH  20  22
ATOM     22  N   UNL     1       5.417   6.762   7.965  0.00  0.00    +0.056 N 
ATOM     23  O   UNL     1       5.944   5.848   7.355  0.00  0.00    -0.126 OA
ATOM     24  O   UNL     1       6.039   7.357   8.826  0.00  0.00    -0.126 OA
ENDBRANCH  20  22
ENDBRANCH   1  18
BRANCH   9  25
ATOM     25  S   UNL     1       1.412   1.813  -0.002  0.00  0.00    +0.058 S 
ATOM     26  O   UNL     1       2.457   0.851   0.010  0.00  0.00    -0.153 OA
ATOM     27  O   UNL     1       1.292   2.796  -1.021  0.00  0.00    -0.153 OA
BRANCH  25  28
ATOM     28  N   UNL     1      -0.011   0.966   0.007  0.00  0.00    -0.187 NA
ATOM     29  H   UNL     1       0.012  -0.122   0.171  0.00  0.00    +0.148 HD
BRANCH  28  30
ATOM     30  C   UNL     1      -1.290   1.681   0.017  0.00  0.00    +0.137 C 
BRANCH  30  31
ATOM     31  C   UNL     1      -2.417   0.716  -0.356  0.00  0.00    +0.134 C 
ATOM     32  C   UNL     1      -3.775   1.461  -0.385  0.00  0.00    +0.035 C 
ATOM     33  C   UNL     1      -4.584   0.559  -1.359  0.00  0.00    +0.031 C 
ATOM     34  C   UNL     1      -3.496   0.080  -2.344  0.00  0.00    +0.160 C 
ATOM     35  O   UNL     1      -2.228   0.222  -1.692  0.00  0.00    -0.375 OA
ENDBRANCH  30  31
ENDBRANCH  28  30
ENDBRANCH  25  28
ENDBRANCH   9  25
TORSDOF 6
