REMARK  Name = ZINC18252328
REMARK  12 active torsions:
REMARK  status: ('A' for Active; 'I' for Inactive)
REMARK    1  A    between atoms: C_1  and  C_2
REMARK    2  A    between atoms: C_6  and  C_8
REMARK    3  A    between atoms: N_10  and  C_11
REMARK    4  A    between atoms: C_11  and  C_13
REMARK    5  A    between atoms: C_11  and  C_16
REMARK    6  A    between atoms: C_13  and  C_14
REMARK    7  A    between atoms: C_13  and  C_15
REMARK    8  A    between atoms: C_16  and  O_18
REMARK    9  A    between atoms: O_18  and  C_19
REMARK   10  A    between atoms: C_19  and  C_20
REMARK   11  A    between atoms: N_22  and  C_23
REMARK   12  A    between atoms: C_24  and  C_33
REMARK                            x       y       z     vdW  Elec       q    Type
REMARK                         _______ _______ _______ _____ _____    ______ ____
ROOT
ATOM      1  O   UNL     1       2.483   4.083   0.000  0.00  0.00    -0.454 OA
ENDROOT
BRANCH   1   2
ATOM      2  C   UNL     1       2.641   5.416   0.006  0.00  0.00    +0.328 C 
ATOM      3  O   UNL     1       1.673   6.139   0.019  0.00  0.00    -0.249 OA
BRANCH   2   4
ATOM      4  C   UNL     1       4.025   6.011  -0.004  0.00  0.00    +0.185 C 
BRANCH   4   7
ATOM      5  C   UNL     1       4.935   8.217  -0.494  0.00  0.00    +0.245 C 
ATOM      6  O   UNL     1       5.923   7.676  -0.952  0.00  0.00    -0.270 OA
ATOM      7  N   UNL     1       3.929   7.473   0.005  0.00  0.00    -0.298 N 
ATOM      8  H   UNL     1       3.141   7.904   0.370  0.00  0.00    +0.150 HD
BRANCH   5  14
ATOM      9  C   UNL     1       6.905  12.681  -1.544  0.00  0.00    +0.044 C 
ATOM     10  C   UNL     1       5.782  11.843  -0.989  0.00  0.00    -0.050 A 
ATOM     11  C   UNL     1       4.656  12.456  -0.468  0.00  0.00    +0.003 A 
ATOM     12  C   UNL     1       3.621  11.694   0.044  0.00  0.00    +0.001 A 
ATOM     13  C   UNL     1       3.705  10.317   0.039  0.00  0.00    +0.013 A 
ATOM     14  C   UNL     1       4.838   9.693  -0.485  0.00  0.00    +0.037 A 
ATOM     15  C   UNL     1       5.881  10.467  -0.996  0.00  0.00    +0.016 A 
ENDBRANCH   5  14
ENDBRANCH   4   7
BRANCH   4  16
ATOM     16  C   UNL     1       4.790   5.543   1.235  0.00  0.00    +0.014 C 
ATOM     17  C   UNL     1       6.196   6.147   1.225  0.00  0.00    +0.009 C 
ATOM     18  C   UNL     1       4.049   5.997   2.494  0.00  0.00    +0.009 C 
ENDBRANCH   4  16
ENDBRANCH   2   4
ENDBRANCH   1   2
BRANCH   1  19
ATOM     19  C   UNL     1       1.121   3.580   0.011  0.00  0.00    +0.328 C 
BRANCH  19  20
ATOM     20  C   UNL     1       1.141   2.074   0.002  0.00  0.00    +0.255 C 
ATOM     21  O   UNL     1       2.200   1.481  -0.011  0.00  0.00    -0.272 OA
ATOM     22  N   UNL     1      -0.017   1.384   0.010  0.00  0.00    -0.276 N 
ATOM     23  H   UNL     1      -0.863   1.857   0.016  0.00  0.00    +0.155 HD
BRANCH  22  24
ATOM     24  C   UNL     1       0.002  -0.004   0.002  0.00  0.00    +0.090 A 
ATOM     25  C   UNL     1      -1.071  -0.880   0.013  0.00  0.00    +0.084 A 
ATOM     26  C   UNL     1      -0.782  -2.307  -0.005  0.00  0.00    -0.018 A 
ATOM     27  C   UNL     1       0.531  -2.622  -0.015  0.00  0.00    -0.004 A 
ATOM     28  S   UNL     1       1.373  -1.062  -0.016  0.00  0.00    -0.077 S 
ATOM     29  C   UNL     1       1.145  -3.986  -0.010  0.00  0.00    +0.043 C 
ATOM     30  C   UNL     1       0.472  -4.849  -1.086  0.00  0.00    +0.005 C 
ATOM     31  C   UNL     1      -0.731  -5.548  -0.461  0.00  0.00    +0.001 C 
ATOM     32  C   UNL     1      -1.360  -4.657   0.608  0.00  0.00    +0.005 C 
ATOM     33  C   UNL     1      -1.879  -3.365  -0.014  0.00  0.00    +0.037 C 
BRANCH  25  34
ATOM     34  C   UNL     1      -2.419  -0.398   0.038  0.00  0.00    +0.102 C 
ATOM     35  N   UNL     1      -3.489  -0.015   0.059  0.00  0.00    -0.191 NA
ENDBRANCH  25  34
ENDBRANCH  22  24
ENDBRANCH  19  20
ENDBRANCH   1  19
TORSDOF 9
