REMARK  Name = ZINC36308109
REMARK  15 active torsions:
REMARK  status: ('A' for Active; 'I' for Inactive)
REMARK    1  A    between atoms: C_1  and  N_2
REMARK    2  A    between atoms: C_3  and  O_34
REMARK    3  A    between atoms: C_4  and  C_13
REMARK    4  A    between atoms: C_5  and  C_7
REMARK    5  A    between atoms: C_13  and  N_14
REMARK    6  A    between atoms: N_14  and  C_15
REMARK    7  A    between atoms: N_14  and  C_21
REMARK    8  A    between atoms: C_15  and  C_16
REMARK    9  A    between atoms: C_21  and  C_22
REMARK   10  A    between atoms: C_22  and  C_24
REMARK   11  A    between atoms: C_22  and  O_33
REMARK   12  A    between atoms: C_24  and  O_25
REMARK   13  A    between atoms: O_25  and  C_26
REMARK   14  A    between atoms: C_26  and  C_27
REMARK   15  A    between atoms: O_34  and  C_35
REMARK                            x       y       z     vdW  Elec       q    Type
REMARK                         _______ _______ _______ _____ _____    ______ ____
ROOT
ATOM      1  N   UNL     1       0.672  -3.762  -2.303  0.00  0.00    +0.389 N 
ATOM      2  H   UNL     1       1.361  -4.141  -1.670  0.00  0.00    -0.081 HD
ENDROOT
BRANCH   1   3
ATOM      3  C   UNL     1      -0.510  -3.335  -1.542  0.00  0.00    -0.035 C 
BRANCH   3   7
ATOM      4  C   UNL     1      -1.201  -6.776   2.051  0.00  0.00    +0.176 C 
ATOM      5  N   UNL     1      -1.349  -6.003   0.815  0.00  0.00    -0.235 N 
ATOM      6  C   UNL     1      -0.599  -4.931   0.451  0.00  0.00    +0.221 A 
ATOM      7  C   UNL     1      -1.050  -4.502  -0.756  0.00  0.00    +0.025 A 
ATOM      8  C   UNL     1      -2.111  -5.342  -1.142  0.00  0.00    +0.098 A 
ATOM      9  N   UNL     1      -2.283  -6.245  -0.200  0.00  0.00    -0.168 NA
BRANCH   8  10
ATOM     10  C   UNL     1      -2.896  -5.233  -2.397  0.00  0.00    +0.002 A 
ATOM     11  C   UNL     1      -3.324  -3.986  -2.848  0.00  0.00    +0.010 A 
ATOM     12  C   UNL     1      -4.053  -3.890  -4.016  0.00  0.00    +0.001 A 
ATOM     13  C   UNL     1      -4.360  -5.029  -4.738  0.00  0.00    +0.000 A 
ATOM     14  C   UNL     1      -3.938  -6.270  -4.295  0.00  0.00    +0.001 A 
ATOM     15  C   UNL     1      -3.203  -6.377  -3.132  0.00  0.00    +0.010 A 
ENDBRANCH   8  10
BRANCH   6  16
ATOM     16  O   UNL     1       0.417  -4.385   1.166  0.00  0.00    -0.438 OA
BRANCH  16  17
ATOM     17  C   UNL     1       0.108  -3.456   2.108  0.00  0.00    +0.130 A 
ATOM     18  C   UNL     1      -1.220  -3.171   2.394  0.00  0.00    +0.046 A 
ATOM     19  C   UNL     1      -1.532  -2.228   3.353  0.00  0.00    +0.004 A 
ATOM     20  C   UNL     1      -0.522  -1.567   4.028  0.00  0.00    +0.000 A 
ATOM     21  C   UNL     1       0.801  -1.848   3.745  0.00  0.00    +0.004 A 
ATOM     22  C   UNL     1       1.119  -2.795   2.791  0.00  0.00    +0.046 A 
ENDBRANCH  16  17
ENDBRANCH   6  16
ENDBRANCH   3   7
ENDBRANCH   1   3
BRANCH   1  23
ATOM     23  C   UNL     1       1.241  -2.608  -3.012  0.00  0.00    -0.003 C 
BRANCH  23  24
ATOM     24  C   UNL     1       1.640  -1.552  -2.014  0.00  0.00    +0.089 A 
ATOM     25  C   UNL     1       2.864  -1.399  -1.478  0.00  0.00    +0.042 A 
ATOM     26  C   UNL     1       2.791  -0.294  -0.598  0.00  0.00    +0.041 A 
ATOM     27  C   UNL     1       1.526   0.161  -0.649  0.00  0.00    +0.195 A 
ATOM     28  O   UNL     1       0.835  -0.601  -1.512  0.00  0.00    -0.470 OA
ENDBRANCH  23  24
ENDBRANCH   1  23
BRANCH   1  29
ATOM     29  C   UNL     1       0.282  -4.791  -3.276  0.00  0.00    -0.044 C 
BRANCH  29  30
ATOM     30  C   UNL     1       1.537  -5.388  -3.917  0.00  0.00    +0.124 C 
BRANCH  30  31
ATOM     31  O   UNL     1       2.154  -4.410  -4.757  0.00  0.00    -0.391 OA
ATOM     32  H   UNL     1       1.588  -4.095  -5.475  0.00  0.00    +0.210 HD
ENDBRANCH  30  31
BRANCH  30  33
ATOM     33  C   UNL     1       1.150  -6.608  -4.755  0.00  0.00    +0.189 C 
BRANCH  33  34
ATOM     34  O   UNL     1       2.332  -7.234  -5.259  0.00  0.00    -0.373 OA
BRANCH  34  35
ATOM     35  C   UNL     1       2.081  -8.390  -6.060  0.00  0.00    +0.195 C 
BRANCH  35  36
ATOM     36  C   UNL     1       3.390  -8.966  -6.535  0.00  0.00    -0.022 A 
ATOM     37  C   UNL     1       3.940  -8.537  -7.729  0.00  0.00    +0.006 A 
ATOM     38  C   UNL     1       5.141  -9.066  -8.165  0.00  0.00    +0.000 A 
ATOM     39  C   UNL     1       5.792 -10.022  -7.407  0.00  0.00    +0.000 A 
ATOM     40  C   UNL     1       5.242 -10.449  -6.214  0.00  0.00    +0.000 A 
ATOM     41  C   UNL     1       4.043  -9.918  -5.775  0.00  0.00    +0.006 A 
ENDBRANCH  35  36
ENDBRANCH  34  35
ENDBRANCH  33  34
ENDBRANCH  30  33
ENDBRANCH  29  30
ENDBRANCH   1  29
TORSDOF 14
