REMARK  Name = ZINC32387209
REMARK  9 active torsions:
REMARK  status: ('A' for Active; 'I' for Inactive)
REMARK    1  A    between atoms: C_1  and  N_2
REMARK    2  A    between atoms: N_2  and  C_19
REMARK    3  A    between atoms: C_3  and  C_5
REMARK    4  A    between atoms: C_5  and  O_6
REMARK    5  A    between atoms: O_6  and  C_7
REMARK    6  A    between atoms: C_7  and  C_9
REMARK    7  A    between atoms: C_12  and  N_16
REMARK    8  A    between atoms: C_14  and  N_15
REMARK    9  A    between atoms: C_19  and  C_26
REMARK                            x       y       z     vdW  Elec       q    Type
REMARK                         _______ _______ _______ _____ _____    ______ ____
ROOT
ATOM      1  C   UNL     1      -0.288   1.257   0.081  0.00  0.00    +0.133 C 
ATOM      2  N   UNL     1      -0.234  -0.205   0.138  0.00  0.00    -0.285 N 
ATOM      3  C   UNL     1      -0.028  -0.827   1.316  0.00  0.00    +0.254 C 
ATOM      4  O   UNL     1       0.017  -2.038   1.364  0.00  0.00    -0.272 OA
ENDROOT
BRANCH   2   5
ATOM      5  C   UNL     1      -0.402  -0.993  -1.086  0.00  0.00    +0.122 C 
ATOM      6  C   UNL     1       0.780  -1.954  -1.246  0.00  0.00    +0.038 C 
ATOM      7  C   UNL     1       2.064  -1.149  -1.460  0.00  0.00    +0.003 C 
ATOM      8  C   UNL     1       1.969  -0.360  -2.766  0.00  0.00    +0.008 C 
ATOM      9  C   UNL     1       0.831   0.661  -2.663  0.00  0.00    +0.077 C 
ATOM     10  C   UNL     1      -0.438  -0.070  -2.283  0.00  0.00    +0.161 C 
ATOM     11  O   UNL     1      -1.453   0.080  -2.920  0.00  0.00    -0.295 OA
BRANCH   5  12
ATOM     12  C   UNL     1      -1.688  -1.775  -1.011  0.00  0.00    +0.002 A 
ATOM     13  C   UNL     1      -2.499  -1.668   0.103  0.00  0.00    +0.007 A 
ATOM     14  C   UNL     1      -3.679  -2.385   0.172  0.00  0.00    +0.000 A 
ATOM     15  C   UNL     1      -4.048  -3.210  -0.874  0.00  0.00    +0.001 A 
ATOM     16  C   UNL     1      -3.239  -3.318  -1.989  0.00  0.00    +0.020 A 
ATOM     17  C   UNL     1      -2.060  -2.596  -2.060  0.00  0.00    +0.047 A 
ATOM     18 CL   UNL     1      -1.046  -2.726  -3.463  0.00  0.00    -0.083 Cl
ENDBRANCH   5  12
ENDBRANCH   2   5
BRANCH   3  19
ATOM     19  C   UNL     1       0.145  -0.017   2.575  0.00  0.00    +0.328 C 
BRANCH  19  20
ATOM     20  O   UNL     1       0.348  -0.896   3.683  0.00  0.00    -0.452 OA
BRANCH  20  21
ATOM     21  C   UNL     1       0.521  -0.326   4.893  0.00  0.00    +0.341 C 
ATOM     22  O   UNL     1       0.500   0.884   5.003  0.00  0.00    -0.245 OA
BRANCH  21  23
ATOM     23  C   UNL     1       0.735  -1.171   6.080  0.00  0.00    +0.080 A 
ATOM     24  C   UNL     1       0.886  -2.554   5.942  0.00  0.00    +0.019 A 
ATOM     25  C   UNL     1       1.086  -3.337   7.057  0.00  0.00    +0.033 A 
ATOM     26  C   UNL     1       1.138  -2.763   8.318  0.00  0.00    +0.128 A 
ATOM     27  C   UNL     1       0.991  -1.400   8.471  0.00  0.00    +0.056 A 
ATOM     28  C   UNL     1       0.794  -0.591   7.358  0.00  0.00    +0.041 A 
BRANCH  28  29
ATOM     29  N   UNL     1       0.651   0.782   7.509  0.00  0.00    -0.357 N 
ATOM     30  H   UNL     1       0.603   1.353   6.726  0.00  0.00    +0.142 HD
ATOM     31  H   UNL     1       0.600   1.169   8.396  0.00  0.00    +0.142 HD
ENDBRANCH  28  29
BRANCH  26  32
ATOM     32  N   UNL     1       1.353  -3.617   9.507  0.00  0.00    +0.056 N 
ATOM     33  O   UNL     1       1.482  -4.812   9.377  0.00  0.00    -0.126 OA
ATOM     34  O   UNL     1       1.399  -3.120  10.608  0.00  0.00    -0.126 OA
ENDBRANCH  26  32
ENDBRANCH  21  23
ENDBRANCH  20  21
ENDBRANCH  19  20
ENDBRANCH   3  19
TORSDOF 8
