REMARK  Name = ZINC38700818
REMARK  14 active torsions:
REMARK  status: ('A' for Active; 'I' for Inactive)
REMARK    1  A    between atoms: C_1  and  C_2
REMARK    2  A    between atoms: C_2  and  C_3
REMARK    3  A    between atoms: C_3  and  C_4
REMARK    4  A    between atoms: C_4  and  O_5
REMARK    5  A    between atoms: O_5  and  C_6
REMARK    6  A    between atoms: C_11  and  C_12
REMARK    7  A    between atoms: C_17  and  O_26
REMARK    8  A    between atoms: C_21  and  N_25
REMARK    9  A    between atoms: C_22  and  C_23
REMARK   10  A    between atoms: O_26  and  C_27
REMARK   11  A    between atoms: C_27  and  C_29
REMARK   12  A    between atoms: C_30  and  C_40
REMARK   13  A    between atoms: C_32  and  C_39
REMARK   14  A    between atoms: C_34  and  C_38
REMARK                            x       y       z     vdW  Elec       q    Type
REMARK                         _______ _______ _______ _____ _____    ______ ____
ROOT
ATOM      1  C   UNL     1       2.614  -3.234  -4.673  0.00  0.00    +0.101 C 
ATOM      2  C   UNL     1       1.961  -3.514  -6.001  0.00  0.00    +0.008 A 
ATOM      3  C   UNL     1       0.666  -3.082  -6.227  0.00  0.00    +0.012 A 
ATOM      4  C   UNL     1       0.051  -3.328  -7.439  0.00  0.00    +0.047 A 
ATOM      5  C   UNL     1       0.733  -4.013  -8.436  0.00  0.00    +0.136 A 
ATOM      6  C   UNL     1       2.029  -4.448  -8.212  0.00  0.00    +0.093 A 
ATOM      7  C   UNL     1       2.646  -4.199  -6.993  0.00  0.00    +0.138 A 
ATOM      8  O   UNL     1       3.915  -4.630  -6.790  0.00  0.00    -0.441 OA
ATOM      9  C   UNL     1       4.659  -4.087  -5.812  0.00  0.00    +0.199 C 
ATOM     10  C   UNL     1       4.102  -3.415  -4.781  0.00  0.00    +0.098 C 
ENDROOT
BRANCH   1  16
ATOM     11  C   UNL     1       1.411  -3.694  -2.522  0.00  0.00    +0.125 A 
ATOM     12  C   UNL     1       0.906  -4.573  -1.574  0.00  0.00    +0.046 A 
ATOM     13  C   UNL     1       1.065  -5.935  -1.743  0.00  0.00    +0.004 A 
ATOM     14  C   UNL     1       1.726  -6.422  -2.855  0.00  0.00    +0.001 A 
ATOM     15  C   UNL     1       2.231  -5.549  -3.801  0.00  0.00    +0.008 A 
ATOM     16  C   UNL     1       2.069  -4.186  -3.639  0.00  0.00    +0.007 A 
BRANCH  11  17
ATOM     17  O   UNL     1       1.255  -2.354  -2.358  0.00  0.00    -0.492 OA
BRANCH  17  18
ATOM     18  C   UNL     1       0.567  -1.919  -1.184  0.00  0.00    +0.229 C 
BRANCH  18  19
ATOM     19  C   UNL     1       0.490  -0.391  -1.174  0.00  0.00    +0.041 C 
BRANCH  19  21
ATOM     20  C   UNL     1      -0.323   1.602   0.094  0.00  0.00    +0.004 C 
ATOM     21  C   UNL     1      -0.246   0.074   0.084  0.00  0.00    -0.000 C 
ENDBRANCH  19  21
ENDBRANCH  18  19
ENDBRANCH  17  18
ENDBRANCH  11  17
ENDBRANCH   1  16
BRANCH   9  22
ATOM     22  N   UNL     1       6.024  -4.222  -5.861  0.00  0.00    -0.328 N 
ATOM     23  H   UNL     1       6.438  -4.703  -6.594  0.00  0.00    +0.145 HD
ATOM     24  H   UNL     1       6.575  -3.836  -5.162  0.00  0.00    +0.145 HD
ENDBRANCH   9  22
BRANCH  10  25
ATOM     25  C   UNL     1       4.951  -2.861  -3.770  0.00  0.00    +0.101 C 
ATOM     26  N   UNL     1       5.624  -2.422  -2.967  0.00  0.00    -0.191 NA
ENDBRANCH  10  25
BRANCH   5  27
ATOM     27  O   UNL     1       0.130  -4.257  -9.629  0.00  0.00    -0.420 OA
BRANCH  27  28
ATOM     28  C   UNL     1      -0.153  -5.537  -9.945  0.00  0.00    +0.380 C 
ATOM     29  O   UNL     1       0.042  -6.421  -9.134  0.00  0.00    -0.241 OA
BRANCH  28  30
ATOM     30  C   UNL     1      -0.696  -5.863 -11.270  0.00  0.00    +0.216 A 
ATOM     31  C   UNL     1      -1.022  -7.111 -11.696  0.00  0.00    +0.010 A 
ATOM     32  C   UNL     1      -1.518  -6.956 -13.063  0.00  0.00    +0.027 A 
ATOM     33  C   UNL     1      -2.000  -7.841 -14.030  0.00  0.00    -0.039 A 
ATOM     34  C   UNL     1      -2.396  -7.364 -15.247  0.00  0.00    +0.007 A 
ATOM     35  C   UNL     1      -2.323  -6.006 -15.528  0.00  0.00    -0.047 A 
ATOM     36  C   UNL     1      -1.851  -5.116 -14.588  0.00  0.00    +0.050 A 
ATOM     37  C   UNL     1      -1.441  -5.579 -13.342  0.00  0.00    +0.137 A 
ATOM     38  O   UNL     1      -0.953  -4.967 -12.246  0.00  0.00    -0.448 OA
ATOM     39  C   UNL     1      -2.764  -5.499 -16.877  0.00  0.00    +0.044 C 
ATOM     40  C   UNL     1      -2.082  -9.316 -13.733  0.00  0.00    +0.044 C 
ATOM     41  C   UNL     1      -0.897  -8.396 -10.918  0.00  0.00    +0.048 C 
ENDBRANCH  28  30
ENDBRANCH  27  28
ENDBRANCH   5  27
TORSDOF 10
