REMARK  Name = ZINC62528871
REMARK  8 active torsions:
REMARK  status: ('A' for Active; 'I' for Inactive)
REMARK    1  A    between atoms: C_1  and  S_2
REMARK    2  A    between atoms: S_2  and  N_5
REMARK    3  A    between atoms: N_5  and  C_6
REMARK    4  A    between atoms: C_6  and  C_7
REMARK    5  A    between atoms: C_7  and  N_8
REMARK    6  A    between atoms: N_11  and  C_12
REMARK    7  A    between atoms: N_15  and  C_18
REMARK    8  A    between atoms: C_18  and  C_19
REMARK                            x       y       z     vdW  Elec       q    Type
REMARK                         _______ _______ _______ _____ _____    ______ ____
ROOT
ATOM      1  N   UNL     1       4.480  -0.851  -2.326  0.00  0.00    -0.298 N 
ATOM      2  C   UNL     1       5.142  -1.389  -3.369  0.00  0.00    +0.300 C 
ATOM      3  O   UNL     1       4.603  -2.230  -4.063  0.00  0.00    -0.253 OA
ATOM      4  N   UNL     1       6.402  -0.996  -3.644  0.00  0.00    -0.297 N 
ATOM      5  H   UNL     1       4.910  -0.180  -1.773  0.00  0.00    +0.150 HD
ATOM      6  H   UNL     1       6.832  -0.326  -3.090  0.00  0.00    +0.151 HD
ENDROOT
BRANCH   4   7
ATOM      7  C   UNL     1       7.121  -1.581  -4.778  0.00  0.00    +0.071 C 
ATOM      8  C   UNL     1       7.791  -2.887  -4.340  0.00  0.00    +0.004 C 
ATOM      9  C   UNL     1       8.605  -3.452  -5.506  0.00  0.00    -0.077 C 
ATOM     10  N   UNL     1       9.633  -2.483  -5.905  0.00  0.00    +0.380 N 
ATOM     11  C   UNL     1       8.996  -1.254  -6.393  0.00  0.00    -0.077 C 
ATOM     12  C   UNL     1       8.197  -0.604  -5.261  0.00  0.00    +0.004 C 
ATOM     13  H   UNL     1      10.215  -2.265  -5.109  0.00  0.00    -0.082 HD
BRANCH  10  14
ATOM     14  C   UNL     1      10.462  -3.060  -6.971  0.00  0.00    -0.075 C 
BRANCH  14  15
ATOM     15  C   UNL     1      11.622  -2.113  -7.285  0.00  0.00    -0.028 C 
ATOM     16  C   UNL     1      12.408  -2.650  -8.483  0.00  0.00    +0.002 C 
ATOM     17  C   UNL     1      13.568  -1.703  -8.797  0.00  0.00    +0.000 C 
ATOM     18  C   UNL     1      14.492  -1.608  -7.581  0.00  0.00    +0.000 C 
ATOM     19  C   UNL     1      13.706  -1.072  -6.383  0.00  0.00    +0.000 C 
ATOM     20  C   UNL     1      12.546  -2.019  -6.069  0.00  0.00    +0.002 C 
ENDBRANCH  14  15
ENDBRANCH  10  14
ENDBRANCH   4   7
BRANCH   1  21
ATOM     21  C   UNL     1       3.111  -1.278  -2.028  0.00  0.00    +0.122 C 
BRANCH  21  22
ATOM     22  C   UNL     1       2.595  -0.519  -0.804  0.00  0.00    +0.124 C 
BRANCH  22  23
ATOM     23  N   UNL     1       1.226  -0.946  -0.506  0.00  0.00    -0.193 NA
ATOM     24  H   UNL     1       0.718  -1.442  -1.167  0.00  0.00    +0.148 HD
BRANCH  23  26
ATOM     25  C   UNL     1       0.422   1.227   0.980  0.00  0.00    +0.214 C 
ATOM     26  S   UNL     1       0.545  -0.583   0.960  0.00  0.00    +0.027 S 
ATOM     27  O   UNL     1       1.498  -1.019   1.920  0.00  0.00    -0.158 OA
ATOM     28  O   UNL     1      -0.752  -1.161   0.911  0.00  0.00    -0.158 OA
ENDBRANCH  23  26
ENDBRANCH  22  23
ENDBRANCH  21  22
ENDBRANCH   1  21
TORSDOF 7
