REMARK  Name = ZINC09742902
REMARK  5 active torsions:
REMARK  status: ('A' for Active; 'I' for Inactive)
REMARK    1  A    between atoms: C_4  and  C_7
REMARK    2  A    between atoms: C_16  and  N_17
REMARK    3  A    between atoms: C_16  and  N_60
REMARK    4  A    between atoms: C_20  and  C_24
REMARK    5  A    between atoms: C_20  and  C_30
REMARK                            x       y       z     vdW  Elec       q    Type
REMARK                         _______ _______ _______ _____ _____    ______ ____
ROOT
ATOM      1  N   UNL     1       0.946   1.868  -0.619  0.00  0.00    -0.241 N 
ATOM      2  C   UNL     1      -0.243   1.245  -0.738  0.00  0.00    +0.254 C 
ATOM      3  O   UNL     1      -0.473   0.213  -1.331  0.00  0.00    -0.272 OA
ATOM      4  C   UNL     1      -1.235   2.107   0.018  0.00  0.00    +0.164 C 
ATOM      5  N   UNL     1      -0.410   3.216   0.530  0.00  0.00    -0.278 N 
ATOM      6  C   UNL     1       0.846   2.990   0.104  0.00  0.00    +0.308 C 
ATOM      7  O   UNL     1       1.784   3.722   0.349  0.00  0.00    -0.252 OA
ATOM      8  H   UNL     1      -0.714   3.964   1.067  0.00  0.00    +0.152 HD
ENDROOT
BRANCH   4   9
ATOM      9  C   UNL     1      -2.304   2.623  -0.909  0.00  0.00    -0.011 A 
ATOM     10  C   UNL     1      -2.957   1.754  -1.764  0.00  0.00    +0.006 A 
ATOM     11  C   UNL     1      -3.941   2.226  -2.611  0.00  0.00    +0.000 A 
ATOM     12  C   UNL     1      -4.266   3.570  -2.612  0.00  0.00    +0.000 A 
ATOM     13  C   UNL     1      -3.610   4.440  -1.761  0.00  0.00    +0.000 A 
ATOM     14  C   UNL     1      -2.629   3.967  -0.910  0.00  0.00    +0.006 A 
ENDBRANCH   4   9
BRANCH   4  15
ATOM     15  C   UNL     1      -1.847   1.335   1.159  0.00  0.00    -0.011 A 
ATOM     16  C   UNL     1      -2.406   0.091   0.930  0.00  0.00    +0.006 A 
ATOM     17  C   UNL     1      -2.964  -0.619   1.976  0.00  0.00    +0.000 A 
ATOM     18  C   UNL     1      -2.971  -0.082   3.250  0.00  0.00    +0.000 A 
ATOM     19  C   UNL     1      -2.417   1.164   3.478  0.00  0.00    +0.000 A 
ATOM     20  C   UNL     1      -1.855   1.873   2.432  0.00  0.00    +0.006 A 
ENDBRANCH   4  15
BRANCH   1  21
ATOM     21  C   UNL     1       2.195   1.378  -1.207  0.00  0.00    +0.044 C 
BRANCH  21  30
ATOM     22  C   UNL     1       3.766   1.980  -2.948  0.00  0.00    -0.004 C 
ATOM     23  C   UNL     1       3.867   2.585  -4.345  0.00  0.00    -0.046 A 
ATOM     24  C   UNL     1       4.979   2.449  -5.172  0.00  0.00    +0.010 A 
ATOM     25  C   UNL     1       4.984   3.018  -6.399  0.00  0.00    +0.045 A 
ATOM     26  S   UNL     1       3.376   3.797  -6.451  0.00  0.00    -0.101 S 
ATOM     27  C   UNL     1       2.824   3.308  -4.841  0.00  0.00    -0.010 A 
ATOM     28  C   UNL     1       1.530   3.597  -4.152  0.00  0.00    +0.024 C 
ATOM     29  C   UNL     1       1.705   3.249  -2.664  0.00  0.00    -0.070 C 
ATOM     30  N   UNL     1       2.332   1.909  -2.577  0.00  0.00    +0.398 N 
ATOM     31  H   UNL     1       1.853   1.277  -3.229  0.00  0.00    -0.078 HD
BRANCH  22  35
ATOM     32  C   UNL     1       5.376  -1.976  -2.978  0.00  0.00    +0.000 A 
ATOM     33  C   UNL     1       6.131  -0.926  -2.491  0.00  0.00    +0.000 A 
ATOM     34  C   UNL     1       5.610   0.354  -2.481  0.00  0.00    +0.002 A 
ATOM     35  C   UNL     1       4.334   0.584  -2.959  0.00  0.00    -0.057 A 
ATOM     36  C   UNL     1       3.576  -0.466  -3.442  0.00  0.00    +0.002 A 
ATOM     37  C   UNL     1       4.099  -1.746  -3.456  0.00  0.00    +0.000 A 
ENDBRANCH  22  35
ENDBRANCH  21  30
ENDBRANCH   1  21
TORSDOF 5
