REMARK  Name = ZINC65828742
REMARK  6 active torsions:
REMARK  status: ('A' for Active; 'I' for Inactive)
REMARK    1  A    between atoms: C_1  and  C_2
REMARK    2  A    between atoms: C_2  and  C_3
REMARK    3  A    between atoms: C_2  and  N_4
REMARK    4  A    between atoms: C_5  and  N_9
REMARK    5  A    between atoms: N_12  and  C_13
REMARK    6  A    between atoms: C_13  and  C_16
REMARK                            x       y       z     vdW  Elec       q    Type
REMARK                         _______ _______ _______ _____ _____    ______ ____
ROOT
ATOM      1  N   UNL     1      -1.317  -1.770  -2.090  0.00  0.00    -0.254 N 
ATOM      2  C   UNL     1      -2.003  -2.548  -2.951  0.00  0.00    +0.306 C 
ATOM      3  O   UNL     1      -3.163  -2.830  -2.723  0.00  0.00    -0.252 OA
ATOM      4  N   UNL     1      -1.403  -3.013  -4.064  0.00  0.00    -0.290 N 
ATOM      5  H   UNL     1      -0.391  -1.545  -2.272  0.00  0.00    +0.158 HD
ATOM      6  H   UNL     1      -0.502  -2.728  -4.285  0.00  0.00    +0.151 HD
ENDROOT
BRANCH   1   8
ATOM      7  N   UNL     1      -1.372  -0.504   0.007  0.00  0.00    -0.248 N 
ATOM      8  C   UNL     1      -1.938  -1.289  -0.938  0.00  0.00    +0.125 A 
ATOM      9  C   UNL     1      -3.224  -1.524  -0.559  0.00  0.00    +0.065 A 
ATOM     10  C   UNL     1      -3.443  -0.860   0.651  0.00  0.00    +0.136 A 
ATOM     11  N   UNL     1      -2.335  -0.254   0.993  0.00  0.00    -0.178 NA
BRANCH   7  13
ATOM     12  C   UNL     1      -0.003   1.523   0.008  0.00  0.00    +0.032 C 
ATOM     13  C   UNL     1       0.006  -0.007   0.002  0.00  0.00    +0.103 C 
ATOM     14  C   UNL     1       0.736  -0.517   1.246  0.00  0.00    +0.032 C 
ENDBRANCH   7  13
ENDBRANCH   1   8
BRANCH   4  15
ATOM     15  C   UNL     1      -2.110  -3.950  -4.941  0.00  0.00    +0.061 C 
ATOM     16  C   UNL     1      -1.431  -5.288  -5.239  0.00  0.00    +0.033 C 
ATOM     17  C   UNL     1      -2.648  -5.237  -4.312  0.00  0.00    +0.033 C 
BRANCH  15  18
ATOM     18  C   UNL     1      -2.923  -3.321  -6.043  0.00  0.00    -0.024 A 
ATOM     19  C   UNL     1      -3.782  -4.098  -6.797  0.00  0.00    +0.007 A 
ATOM     20  C   UNL     1      -4.529  -3.521  -7.808  0.00  0.00    +0.015 A 
ATOM     21  C   UNL     1      -4.415  -2.167  -8.065  0.00  0.00    +0.018 A 
ATOM     22  C   UNL     1      -3.555  -1.390  -7.310  0.00  0.00    +0.015 A 
ATOM     23  C   UNL     1      -2.813  -1.966  -6.296  0.00  0.00    +0.007 A 
ATOM     24 BR   UNL     1      -5.436  -1.378  -9.447  0.00  0.00    -0.050 Br
ENDBRANCH  15  18
ENDBRANCH   4  15
TORSDOF 4
