REMARK  Name = ZINC16856437
REMARK  7 active torsions:
REMARK  status: ('A' for Active; 'I' for Inactive)
REMARK    1  A    between atoms: C_1  and  C_2
REMARK    2  A    between atoms: C_5  and  C_9
REMARK    3  A    between atoms: C_6  and  C_8
REMARK    4  A    between atoms: C_9  and  C_10
REMARK    5  A    between atoms: C_11  and  C_17
REMARK    6  A    between atoms: C_15  and  O_16
REMARK    7  A    between atoms: C_18  and  C_19
REMARK                            x       y       z     vdW  Elec       q    Type
REMARK                         _______ _______ _______ _____ _____    ______ ____
ROOT
ATOM      1  C   UNL     1       1.591   1.955  -0.180  0.00  0.00    +0.044 A 
ATOM      2  C   UNL     1       2.942   1.639  -0.009  0.00  0.00    +0.074 A 
ATOM      3  N   UNL     1       3.307   0.354   0.003  0.00  0.00    -0.235 NA
ATOM      4  C   UNL     1       2.415  -0.601  -0.146  0.00  0.00    +0.225 A 
ATOM      5  N   UNL     1       1.133  -0.341  -0.311  0.00  0.00    -0.201 NA
ATOM      6  C   UNL     1       0.686   0.910  -0.334  0.00  0.00    +0.219 A 
ENDROOT
BRANCH   6   7
ATOM      7  O   UNL     1      -0.634   1.165  -0.509  0.00  0.00    -0.492 OA
ATOM      8  H   UNL     1      -1.139   1.211   0.314  0.00  0.00    +0.294 HD
ENDBRANCH   6   7
BRANCH   2   9
ATOM      9  C   UNL     1       3.945   2.705   0.158  0.00  0.00    +0.029 C 
ATOM     10  C   UNL     1       5.233   2.388   0.368  0.00  0.00    +0.010 C 
BRANCH  10  11
ATOM     11  C   UNL     1       6.216   3.449   0.652  0.00  0.00    -0.022 A 
ATOM     12  C   UNL     1       5.813   4.781   0.813  0.00  0.00    +0.027 A 
ATOM     13  C   UNL     1       6.766   5.740   1.084  0.00  0.00    +0.111 A 
ATOM     14  N   UNL     1       8.042   5.418   1.181  0.00  0.00    -0.263 NA
ATOM     15  C   UNL     1       8.466   4.178   1.031  0.00  0.00    +0.111 A 
ATOM     16  C   UNL     1       7.582   3.154   0.764  0.00  0.00    +0.027 A 
ENDBRANCH  10  11
ENDBRANCH   2   9
BRANCH   1  17
ATOM     17  C   UNL     1       1.128   3.389  -0.201  0.00  0.00    +0.078 C 
BRANCH  17  22
ATOM     18  C   UNL     1       0.779   5.223  -5.670  0.00  0.00    +0.044 C 
ATOM     19  C   UNL     1       0.870   4.745  -4.243  0.00  0.00    -0.050 A 
ATOM     20  C   UNL     1       2.105   4.490  -3.677  0.00  0.00    +0.003 A 
ATOM     21  C   UNL     1       2.189   4.051  -2.369  0.00  0.00    +0.004 A 
ATOM     22  C   UNL     1       1.037   3.868  -1.627  0.00  0.00    -0.040 A 
ATOM     23  C   UNL     1      -0.198   4.118  -2.194  0.00  0.00    -0.047 A 
ATOM     24  C   UNL     1      -0.281   4.561  -3.501  0.00  0.00    +0.007 A 
ATOM     25  C   UNL     1      -1.454   3.912  -1.387  0.00  0.00    +0.044 C 
ENDBRANCH  17  22
ENDBRANCH   1  17
TORSDOF 5
