REMARK  Name = ZINC13778560
REMARK  12 active torsions:
REMARK  status: ('A' for Active; 'I' for Inactive)
REMARK    1  A    between atoms: C_1  and  C_2
REMARK    2  A    between atoms: C_2  and  N_3
REMARK    3  A    between atoms: N_3  and  C_4
REMARK    4  A    between atoms: N_3  and  C_6
REMARK    5  A    between atoms: C_4  and  C_5
REMARK    6  A    between atoms: C_9  and  C_12
REMARK    7  A    between atoms: C_20  and  O_35
REMARK    8  A    between atoms: C_23  and  C_24
REMARK    9  A    between atoms: C_23  and  N_73
REMARK   10  A    between atoms: N_26  and  C_27
REMARK   11  A    between atoms: C_30  and  O_33
REMARK   12  A    between atoms: O_33  and  C_34
REMARK                            x       y       z     vdW  Elec       q    Type
REMARK                         _______ _______ _______ _____ _____    ______ ____
ROOT
ATOM      1  C   UNL     1      -0.050   1.840   0.154  0.00  0.00    -0.031 C 
ATOM      2  C   UNL     1      -0.803   2.531  -0.984  0.00  0.00    +0.011 C 
ATOM      3  C   UNL     1      -2.251   2.038  -1.004  0.00  0.00    +0.005 C 
ATOM      4  C   UNL     1      -2.943   2.388   0.315  0.00  0.00    +0.000 C 
ATOM      5  C   UNL     1      -2.922   3.905   0.512  0.00  0.00    +0.003 C 
ATOM      6  C   UNL     1      -1.473   4.393   0.555  0.00  0.00    +0.035 C 
ATOM      7  C   UNL     1      -0.776   4.046  -0.763  0.00  0.00    +0.066 C 
ATOM      8  C   UNL     1       0.682   4.511  -0.697  0.00  0.00    +0.016 C 
ATOM      9  C   UNL     1       1.397   3.766   0.433  0.00  0.00    -0.075 C 
ATOM     10  N   UNL     1       1.351   2.314   0.157  0.00  0.00    +0.390 N 
ATOM     11  H   UNL     1       1.764   2.138  -0.767  0.00  0.00    -0.080 HD
ENDROOT
BRANCH   1  15
ATOM     12  C   UNL     1      -0.083  -2.387  -0.476  0.00  0.00    +0.030 A 
ATOM     13  C   UNL     1      -0.975  -1.809   0.418  0.00  0.00    +0.023 A 
ATOM     14  C   UNL     1      -0.962  -0.443   0.620  0.00  0.00    +0.004 A 
ATOM     15  C   UNL     1      -0.062   0.350  -0.068  0.00  0.00    -0.060 A 
ATOM     16  C   UNL     1       0.824  -0.221  -0.964  0.00  0.00    +0.004 A 
ATOM     17  C   UNL     1       0.820  -1.587  -1.165  0.00  0.00    +0.023 A 
BRANCH  12  18
ATOM     18  N   UNL     1      -0.094  -3.768  -0.681  0.00  0.00    -0.330 N 
BRANCH  18  20
ATOM     19  C   UNL     1       2.135  -4.753  -0.890  0.00  0.00    +0.024 C 
ATOM     20  C   UNL     1       0.848  -4.376  -1.625  0.00  0.00    +0.102 C 
ENDBRANCH  18  20
BRANCH  18  21
ATOM     21  C   UNL     1      -1.046  -4.610   0.047  0.00  0.00    +0.102 C 
ATOM     22  C   UNL     1      -2.338  -4.738  -0.764  0.00  0.00    +0.024 C 
ENDBRANCH  18  21
ENDBRANCH  12  18
ENDBRANCH   1  15
BRANCH   7  23
ATOM     23  O   UNL     1      -1.441   4.701  -1.845  0.00  0.00    -0.388 OA
ATOM     24  H   UNL     1      -1.453   5.665  -1.772  0.00  0.00    +0.210 HD
ENDBRANCH   7  23
BRANCH  10  25
ATOM     25  C   UNL     1       2.129   1.582   1.177  0.00  0.00    +0.020 C 
BRANCH  25  26
ATOM     26  C   UNL     1       3.587   1.923   1.012  0.00  0.00    +0.201 C 
ATOM     27  O   UNL     1       3.934   2.704   0.151  0.00  0.00    -0.278 OA
ATOM     28  N   UNL     1       4.507   1.360   1.821  0.00  0.00    -0.287 N 
ATOM     29  H   UNL     1       4.224   0.795   2.557  0.00  0.00    +0.155 HD
BRANCH  28  30
ATOM     30  C   UNL     1       5.871   1.590   1.598  0.00  0.00    +0.034 A 
ATOM     31  C   UNL     1       6.345   1.753   0.303  0.00  0.00    +0.027 A 
ATOM     32  C   UNL     1       7.689   1.985   0.085  0.00  0.00    +0.047 A 
ATOM     33  C   UNL     1       8.566   2.044   1.157  0.00  0.00    +0.120 A 
ATOM     34  C   UNL     1       8.094   1.876   2.451  0.00  0.00    +0.047 A 
ATOM     35  C   UNL     1       6.750   1.649   2.671  0.00  0.00    +0.027 A 
BRANCH  33  36
ATOM     36  O   UNL     1       9.890   2.267   0.941  0.00  0.00    -0.495 OA
ATOM     37  C   UNL     1      10.307   2.430  -0.416  0.00  0.00    +0.277 C 
ENDBRANCH  33  36
ENDBRANCH  28  30
ENDBRANCH  25  26
ENDBRANCH  10  25
TORSDOF 9
