REMARK  Name = ZINC35694616
REMARK  5 active torsions:
REMARK  status: ('A' for Active; 'I' for Inactive)
REMARK    1  A    between atoms: C_1  and  C_2
REMARK    2  A    between atoms: C_2  and  C_4
REMARK    3  A    between atoms: C_2  and  N_10
REMARK    4  A    between atoms: N_10  and  C_11
REMARK    5  A    between atoms: C_16  and  N_17
REMARK                            x       y       z     vdW  Elec       q    Type
REMARK                         _______ _______ _______ _____ _____    ______ ____
ROOT
ATOM      1  C   UNL     1      -2.055  -0.661   1.228  0.00  0.00    +0.049 A 
ATOM      2  C   UNL     1      -1.432  -0.324   2.420  0.00  0.00    +0.030 A 
ATOM      3  C   UNL     1      -2.104  -0.472   3.619  0.00  0.00    -0.024 A 
ATOM      4  C   UNL     1      -3.405  -0.958   3.633  0.00  0.00    +0.038 A 
ATOM      5  C   UNL     1      -4.034  -1.296   2.442  0.00  0.00    +0.048 A 
ATOM      6  C   UNL     1      -3.364  -1.144   1.239  0.00  0.00    +0.047 A 
ATOM      7  N   UNL     1      -4.082  -1.106   4.851  0.00  0.00    -0.285 N 
ATOM      8  C   UNL     1      -3.657  -0.457   5.950  0.00  0.00    +0.218 C 
ATOM      9  O   UNL     1      -4.245  -0.607   7.000  0.00  0.00    -0.275 OA
ATOM     10  C   UNL     1      -2.460   0.454   5.891  0.00  0.00    +0.101 C 
ATOM     11  C   UNL     1      -1.427  -0.106   4.914  0.00  0.00    +0.046 C 
ATOM     12  H   UNL     1      -4.861  -1.681   4.902  0.00  0.00    +0.155 HD
ENDROOT
BRANCH   6  13
ATOM     13  N   UNL     1      -3.997  -1.479   0.036  0.00  0.00    -0.356 N 
ATOM     14  H   UNL     1      -3.526  -1.375  -0.806  0.00  0.00    +0.142 HD
ATOM     15  H   UNL     1      -4.907  -1.814   0.044  0.00  0.00    +0.142 HD
ENDBRANCH   6  13
BRANCH   1  16
ATOM     16  N   UNL     1      -1.372  -0.511   0.012  0.00  0.00    -0.334 N 
ATOM     17  H   UNL     1      -1.810  -0.743  -0.822  0.00  0.00    +0.147 HD
BRANCH  16  19
ATOM     18  C   UNL     1      -0.019   1.526   0.010  0.00  0.00    +0.034 C 
ATOM     19  C   UNL     1       0.002  -0.004   0.002  0.00  0.00    +0.116 C 
BRANCH  19  20
ATOM     20  C   UNL     1       0.707  -0.490  -1.238  0.00  0.00    +0.061 A 
ATOM     21  C   UNL     1       2.085  -0.606  -1.239  0.00  0.00    +0.025 A 
ATOM     22  C   UNL     1       2.724  -1.054  -2.385  0.00  0.00    +0.003 A 
ATOM     23  C   UNL     1       1.950  -1.370  -3.491  0.00  0.00    +0.020 A 
ATOM     24  C   UNL     1       0.578  -1.229  -3.416  0.00  0.00    +0.111 A 
ATOM     25  N   UNL     1       0.003  -0.805  -2.307  0.00  0.00    -0.258 NA
ENDBRANCH  19  20
ENDBRANCH  16  19
ENDBRANCH   1  16
TORSDOF 4
