REMARK  Name = ZINC06143196
REMARK  5 active torsions:
REMARK  status: ('A' for Active; 'I' for Inactive)
REMARK    1  A    between atoms: C_4  and  C_7
REMARK    2  A    between atoms: C_7  and  C_9
REMARK    3  A    between atoms: C_7  and  N_66
REMARK    4  A    between atoms: N_18  and  C_21
REMARK    5  A    between atoms: C_24  and  C_34
REMARK                            x       y       z     vdW  Elec       q    Type
REMARK                         _______ _______ _______ _____ _____    ______ ____
ROOT
ATOM      1  C   UNL     1      -3.204  -1.294   1.259  0.00  0.00    -0.058 C 
ATOM      2  C   UNL     1      -1.925  -0.454   1.259  0.00  0.00    +0.088 C 
ATOM      3  N   UNL     1      -1.189  -0.688   0.008  0.00  0.00    -0.320 N 
ATOM      4  C   UNL     1      -2.010  -0.328  -1.157  0.00  0.00    +0.088 C 
ATOM      5  C   UNL     1      -3.289  -1.167  -1.156  0.00  0.00    -0.058 C 
ATOM      6  N   UNL     1      -4.029  -0.906   0.096  0.00  0.00    +0.389 N 
ATOM      7  H   UNL     1      -4.241   0.097   0.156  0.00  0.00    -0.080 HD
ENDROOT
BRANCH   3   8
ATOM      8  C   UNL     1       0.002  -0.004   0.002  0.00  0.00    +0.111 A 
ATOM      9  C   UNL     1      -0.006   1.360   0.220  0.00  0.00    -0.004 A 
ATOM     10  C   UNL     1       1.183   2.077   0.222  0.00  0.00    -0.020 A 
ATOM     11  C   UNL     1       2.390   1.412   0.001  0.00  0.00    +0.098 A 
ATOM     12  C   UNL     1       2.368  -0.036  -0.230  0.00  0.00    +0.158 A 
ATOM     13  N   UNL     1       1.160  -0.691  -0.219  0.00  0.00    -0.279 N 
ATOM     14  C   UNL     1       1.419  -2.029  -0.465  0.00  0.00    +0.075 A 
ATOM     15  C   UNL     1       0.621  -3.159  -0.564  0.00  0.00    +0.028 A 
ATOM     16  C   UNL     1       1.199  -4.385  -0.820  0.00  0.00    +0.002 A 
ATOM     17  C   UNL     1       2.574  -4.496  -0.972  0.00  0.00    +0.002 A 
ATOM     18  C   UNL     1       3.377  -3.396  -0.873  0.00  0.00    +0.030 A 
ATOM     19  C   UNL     1       2.813  -2.142  -0.614  0.00  0.00    +0.090 A 
ATOM     20  N   UNL     1       3.337  -0.902  -0.463  0.00  0.00    -0.226 NA
ATOM     21  C   UNL     1       0.898   3.540   0.481  0.00  0.00    +0.037 C 
ATOM     22  C   UNL     1      -0.610   3.713   0.203  0.00  0.00    +0.009 C 
ATOM     23  C   UNL     1      -1.165   2.300   0.480  0.00  0.00    +0.039 C 
BRANCH  11  24
ATOM     24  C   UNL     1       3.628   2.131   0.001  0.00  0.00    +0.103 C 
ATOM     25  N   UNL     1       4.610   2.701   0.001  0.00  0.00    -0.191 NA
ENDBRANCH  11  24
ENDBRANCH   3   8
BRANCH   6  26
ATOM     26  C   UNL     1      -5.298  -1.665   0.101  0.00  0.00    -0.005 C 
BRANCH  26  27
ATOM     27  C   UNL     1      -6.065  -1.329   1.354  0.00  0.00    -0.038 A 
ATOM     28  C   UNL     1      -5.836  -0.130   2.003  0.00  0.00    +0.004 A 
ATOM     29  C   UNL     1      -6.539   0.180   3.152  0.00  0.00    +0.000 A 
ATOM     30  C   UNL     1      -7.472  -0.710   3.653  0.00  0.00    +0.001 A 
ATOM     31  C   UNL     1      -7.701  -1.909   3.005  0.00  0.00    +0.020 A 
ATOM     32  C   UNL     1      -7.001  -2.217   1.852  0.00  0.00    +0.043 A 
ATOM     33 CL   UNL     1      -7.294  -3.719   1.033  0.00  0.00    -0.083 Cl
ENDBRANCH  26  27
BRANCH  26  37
ATOM     34  C   UNL     1      -7.600  -0.546  -3.319  0.00  0.00    +0.000 A 
ATOM     35  C   UNL     1      -7.572  -1.865  -2.907  0.00  0.00    +0.000 A 
ATOM     36  C   UNL     1      -6.827  -2.227  -1.800  0.00  0.00    +0.002 A 
ATOM     37  C   UNL     1      -6.110  -1.270  -1.106  0.00  0.00    -0.057 A 
ATOM     38  C   UNL     1      -6.143   0.049  -1.516  0.00  0.00    +0.002 A 
ATOM     39  C   UNL     1      -6.884   0.411  -2.625  0.00  0.00    +0.000 A 
ENDBRANCH  26  37
ENDBRANCH   6  26
TORSDOF 5
