REMARK  Name = ZINC39652633
REMARK  8 active torsions:
REMARK  status: ('A' for Active; 'I' for Inactive)
REMARK    1  A    between atoms: C_1  and  C_2
REMARK    2  A    between atoms: C_2  and  O_3
REMARK    3  A    between atoms: O_3  and  C_4
REMARK    4  A    between atoms: C_9  and  C_10
REMARK    5  A    between atoms: C_10  and  C_11
REMARK    6  A    between atoms: C_11  and  N_12
REMARK    7  A    between atoms: C_13  and  C_15
REMARK    8  A    between atoms: C_26  and  C_28
REMARK                            x       y       z     vdW  Elec       q    Type
REMARK                         _______ _______ _______ _____ _____    ______ ____
ROOT
ATOM      1  C   UNL     1       5.805   1.732  -5.540  0.00  0.00    +0.100 C 
ATOM      2  C   UNL     1       4.767   2.868  -5.396  0.00  0.00    +0.121 C 
ATOM      3  N   UNL     1       5.391   3.828  -4.456  0.00  0.00    -0.296 N 
ATOM      4  C   UNL     1       6.821   3.849  -4.844  0.00  0.00    +0.115 C 
ATOM      5  C   UNL     1       7.152   2.381  -5.180  0.00  0.00    -0.004 C 
ATOM      6  C   UNL     1       8.106   2.313  -6.369  0.00  0.00    -0.010 C 
ATOM      7  C   UNL     1       9.457   2.912  -5.968  0.00  0.00    -0.082 C 
ATOM      8  N   UNL     1      10.008   2.164  -4.831  0.00  0.00    +0.379 N 
ATOM      9  C   UNL     1       9.130   2.312  -3.664  0.00  0.00    -0.082 C 
ATOM     10  C   UNL     1       7.765   1.688  -3.967  0.00  0.00    -0.010 C 
ATOM     11  C   UNL     1       4.792   4.526  -3.470  0.00  0.00    +0.247 C 
ATOM     12  O   UNL     1       3.629   4.308  -3.191  0.00  0.00    -0.270 OA
ATOM     13  H   UNL     1      10.080   1.188  -5.075  0.00  0.00    -0.086 HD
ATOM     14  H   UNL     1      10.925   2.521  -4.608  0.00  0.00    -0.086 HD
ENDROOT
BRANCH  11  15
ATOM     15  C   UNL     1       5.549   5.557  -2.729  0.00  0.00    +0.038 A 
ATOM     16  C   UNL     1       6.697   6.122  -3.289  0.00  0.00    +0.013 A 
ATOM     17  C   UNL     1       7.399   7.083  -2.593  0.00  0.00    +0.002 A 
ATOM     18  C   UNL     1       6.970   7.489  -1.342  0.00  0.00    +0.015 A 
ATOM     19  C   UNL     1       5.833   6.933  -0.781  0.00  0.00    +0.019 A 
ATOM     20  C   UNL     1       5.117   5.974  -1.470  0.00  0.00    +0.028 A 
ATOM     21 BR   UNL     1       5.255   7.493   0.931  0.00  0.00    -0.050 Br
ENDBRANCH  11  15
BRANCH   1  23
ATOM     22  N   UNL     1       5.933  -0.637  -4.840  0.00  0.00    -0.315 N 
ATOM     23  C   UNL     1       5.491   0.610  -4.584  0.00  0.00    +0.218 C 
ATOM     24  O   UNL     1       4.841   0.830  -3.584  0.00  0.00    -0.275 OA
ATOM     25  H   UNL     1       6.452  -0.813  -5.640  0.00  0.00    +0.149 HD
BRANCH  22  26
ATOM     26  C   UNL     1       5.627  -1.728  -3.911  0.00  0.00    +0.109 C 
BRANCH  26  27
ATOM     27  C   UNL     1       6.240  -3.029  -4.432  0.00  0.00    +0.057 C 
BRANCH  27  33
ATOM     28  C   UNL     1       4.722  -4.833  -3.578  0.00  0.00    +0.124 A 
ATOM     29  C   UNL     1       4.438  -5.869  -2.700  0.00  0.00    +0.046 A 
ATOM     30  C   UNL     1       5.352  -6.215  -1.723  0.00  0.00    +0.004 A 
ATOM     31  C   UNL     1       6.549  -5.529  -1.620  0.00  0.00    +0.000 A 
ATOM     32  C   UNL     1       6.834  -4.497  -2.494  0.00  0.00    +0.007 A 
ATOM     33  C   UNL     1       5.926  -4.151  -3.476  0.00  0.00    -0.004 A 
BRANCH  28  34
ATOM     34  O   UNL     1       3.825  -4.491  -4.540  0.00  0.00    -0.492 OA
BRANCH  34  36
ATOM     35  C   UNL     1       1.730  -4.711  -5.724  0.00  0.00    +0.048 C 
ATOM     36  C   UNL     1       2.607  -5.236  -4.585  0.00  0.00    +0.225 C 
ENDBRANCH  34  36
ENDBRANCH  28  34
ENDBRANCH  27  33
ENDBRANCH  26  27
ENDBRANCH  22  26
ENDBRANCH   1  23
TORSDOF 7
