REMARK  Name = ZINC28057097
REMARK  7 active torsions:
REMARK  status: ('A' for Active; 'I' for Inactive)
REMARK    1  A    between atoms: C_1  and  C_2
REMARK    2  A    between atoms: C_2  and  C_3
REMARK    3  A    between atoms: C_2  and  C_4
REMARK    4  A    between atoms: C_7  and  C_10
REMARK    5  A    between atoms: C_28  and  C_30
REMARK    6  A    between atoms: C_34  and  O_36
REMARK    7  A    between atoms: O_36  and  C_37
REMARK                            x       y       z     vdW  Elec       q    Type
REMARK                         _______ _______ _______ _____ _____    ______ ____
ROOT
ATOM      1  C   UNL     1      -0.104   5.707  -2.541  0.00  0.00    +0.234 C 
ATOM      2  C   UNL     1      -0.903   5.915  -1.275  0.00  0.00    +0.025 C 
ATOM      3  C   UNL     1      -2.095   6.511  -1.349  0.00  0.00    +0.050 C 
ATOM      4  C   UNL     1      -2.570   6.977  -2.674  0.00  0.00    +0.039 A 
ATOM      5  C   UNL     1      -3.903   7.297  -2.896  0.00  0.00    +0.033 A 
ATOM      6  C   UNL     1      -4.300   7.731  -4.148  0.00  0.00    +0.042 A 
ATOM      7  C   UNL     1      -3.376   7.846  -5.173  0.00  0.00    +0.023 A 
ATOM      8  C   UNL     1      -2.047   7.529  -4.959  0.00  0.00    +0.048 A 
ATOM      9  C   UNL     1      -1.637   7.093  -3.713  0.00  0.00    +0.131 A 
ATOM     10  O   UNL     1      -0.342   6.770  -3.464  0.00  0.00    -0.479 OA
ATOM     11 CL   UNL     1      -5.964   8.133  -4.436  0.00  0.00    -0.084 Cl
ATOM     12  N   UNL     1      -2.898   6.720  -0.222  0.00  0.00    -0.282 N 
ATOM     13  C   UNL     1      -2.304   6.555   1.019  0.00  0.00    +0.240 A 
ATOM     14  N   UNL     1      -2.700   6.893   2.212  0.00  0.00    -0.092 NA
ATOM     15  N   UNL     1      -1.816   6.555   3.088  0.00  0.00    -0.021 NA
ATOM     16  N   UNL     1      -0.809   5.981   2.514  0.00  0.00    -0.042 NA
ATOM     17  N   UNL     1      -1.091   5.956   1.149  0.00  0.00    -0.201 N 
ATOM     18  C   UNL     1      -0.324   5.427   0.030  0.00  0.00    +0.174 C 
ATOM     19  H   UNL     1      -3.954   7.004  -0.343  0.00  0.00    +0.155 HD
ENDROOT
BRANCH   1  23
ATOM     20  C   UNL     1      -1.241   2.001  -4.335  0.00  0.00    -0.045 A 
ATOM     21  C   UNL     1      -2.088   3.091  -4.405  0.00  0.00    +0.004 A 
ATOM     22  C   UNL     1      -1.720   4.290  -3.824  0.00  0.00    +0.008 A 
ATOM     23  C   UNL     1      -0.505   4.400  -3.174  0.00  0.00    -0.003 A 
ATOM     24  C   UNL     1       0.345   3.311  -3.110  0.00  0.00    +0.008 A 
ATOM     25  C   UNL     1      -0.025   2.110  -3.686  0.00  0.00    +0.004 A 
BRANCH  20  27
ATOM     26  C   UNL     1      -0.616   0.308  -6.036  0.00  0.00    +0.012 C 
ATOM     27  C   UNL     1      -1.642   0.694  -4.968  0.00  0.00    +0.013 C 
ATOM     28  C   UNL     1      -1.697  -0.396  -3.896  0.00  0.00    +0.012 C 
ENDBRANCH  20  27
ENDBRANCH   1  23
BRANCH  18  29
ATOM     29  C   UNL     1      -0.367   3.921   0.064  0.00  0.00    -0.015 A 
ATOM     30  C   UNL     1      -1.580   3.262  -0.019  0.00  0.00    +0.006 A 
ATOM     31  C   UNL     1      -1.622   1.880   0.006  0.00  0.00    +0.004 A 
ATOM     32  C   UNL     1      -0.453   1.154   0.125  0.00  0.00    +0.045 A 
ATOM     33  C   UNL     1       0.765   1.813   0.208  0.00  0.00    +0.120 A 
ATOM     34  C   UNL     1       0.805   3.199   0.177  0.00  0.00    +0.051 A 
BRANCH  33  35
ATOM     35  O   UNL     1       1.918   1.101   0.320  0.00  0.00    -0.495 OA
ATOM     36  C   UNL     1       1.800  -0.323   0.345  0.00  0.00    +0.277 C 
ENDBRANCH  33  35
ENDBRANCH  18  29
TORSDOF 4
