REMARK  Name = ZINC39670579
REMARK  6 active torsions:
REMARK  status: ('A' for Active; 'I' for Inactive)
REMARK    1  A    between atoms: C_1  and  C_2
REMARK    2  A    between atoms: C_7  and  C_11
REMARK    3  A    between atoms: C_11  and  N_12
REMARK    4  A    between atoms: C_13  and  C_15
REMARK    5  A    between atoms: C_26  and  C_28
REMARK    6  A    between atoms: C_31  and  C_33
REMARK                            x       y       z     vdW  Elec       q    Type
REMARK                         _______ _______ _______ _____ _____    ______ ____
ROOT
ATOM      1  C   UNL     1       3.158  -7.609   3.255  0.00  0.00    +0.100 C 
ATOM      2  C   UNL     1       4.014  -6.555   3.992  0.00  0.00    +0.121 C 
ATOM      3  N   UNL     1       4.000  -6.986   5.410  0.00  0.00    -0.294 N 
ATOM      4  C   UNL     1       4.100  -8.464   5.347  0.00  0.00    +0.115 C 
ATOM      5  C   UNL     1       3.220  -8.862   4.145  0.00  0.00    -0.004 C 
ATOM      6  C   UNL     1       3.857 -10.020   3.384  0.00  0.00    -0.010 C 
ATOM      7  C   UNL     1       3.855 -11.270   4.269  0.00  0.00    -0.082 C 
ATOM      8  N   UNL     1       2.475 -11.604   4.644  0.00  0.00    +0.379 N 
ATOM      9  C   UNL     1       1.902 -10.523   5.456  0.00  0.00    -0.082 C 
ATOM     10  C   UNL     1       1.821  -9.242   4.620  0.00  0.00    -0.010 C 
ATOM     11  C   UNL     1       3.915  -6.210   6.508  0.00  0.00    +0.282 C 
ATOM     12  O   UNL     1       3.916  -6.718   7.614  0.00  0.00    -0.267 OA
ATOM     13  H   UNL     1       1.922 -11.726   3.810  0.00  0.00    -0.086 HD
ATOM     14  H   UNL     1       2.471 -12.461   5.176  0.00  0.00    -0.086 HD
ENDROOT
BRANCH  11  15
ATOM     15  C   UNL     1       3.821  -4.755   6.371  0.00  0.00    +0.190 A 
ATOM     16  C   UNL     1       3.735  -3.849   7.406  0.00  0.00    +0.055 A 
ATOM     17  C   UNL     1       3.666  -2.578   6.825  0.00  0.00    +0.051 A 
ATOM     18  C   UNL     1       3.712  -2.753   5.471  0.00  0.00    +0.139 A 
ATOM     19  O   UNL     1       3.811  -4.067   5.210  0.00  0.00    -0.450 OA
BRANCH  18  20
ATOM     20  C   UNL     1       3.666  -1.675   4.463  0.00  0.00    +0.052 A 
ATOM     21  C   UNL     1       2.675  -0.693   4.530  0.00  0.00    +0.014 A 
ATOM     22  C   UNL     1       2.638   0.310   3.584  0.00  0.00    +0.001 A 
ATOM     23  C   UNL     1       3.579   0.346   2.570  0.00  0.00    +0.003 A 
ATOM     24  C   UNL     1       4.563  -0.622   2.495  0.00  0.00    +0.039 A 
ATOM     25  C   UNL     1       4.617  -1.631   3.439  0.00  0.00    +0.134 A 
ATOM     26  F   UNL     1       5.582  -2.573   3.369  0.00  0.00    -0.205 F 
ENDBRANCH  18  20
ENDBRANCH  11  15
BRANCH   1  28
ATOM     27  N   UNL     1       0.976  -7.549   2.090  0.00  0.00    -0.309 N 
ATOM     28  C   UNL     1       1.735  -7.130   3.123  0.00  0.00    +0.219 C 
ATOM     29  O   UNL     1       1.273  -6.367   3.945  0.00  0.00    -0.275 OA
ATOM     30  H   UNL     1       1.346  -8.159   1.433  0.00  0.00    +0.149 HD
BRANCH  27  31
ATOM     31  C   UNL     1      -0.407  -7.083   1.962  0.00  0.00    +0.159 C 
BRANCH  31  38
ATOM     32  C   UNL     1      -3.083  -8.896  -4.685  0.00  0.00    +0.045 C 
ATOM     33  C   UNL     1      -2.718  -8.974  -3.225  0.00  0.00    -0.034 A 
ATOM     34  C   UNL     1      -3.050 -10.119  -2.482  0.00  0.00    +0.008 A 
ATOM     35  C   UNL     1      -2.719 -10.187  -1.164  0.00  0.00    +0.045 A 
ATOM     36  C   UNL     1      -2.046  -9.103  -0.565  0.00  0.00    +0.115 A 
ATOM     37  N   UNL     1      -1.610  -8.895   0.669  0.00  0.00    -0.342 N 
ATOM     38  C   UNL     1      -1.030  -7.694   0.733  0.00  0.00    +0.051 A 
ATOM     39  C   UNL     1      -1.096  -7.118  -0.487  0.00  0.00    +0.115 A 
ATOM     40  N   UNL     1      -1.736  -7.999  -1.316  0.00  0.00    -0.308 N 
ATOM     41  C   UNL     1      -2.070  -7.946  -2.639  0.00  0.00    +0.096 A 
ATOM     42  H   UNL     1      -1.698  -9.517   1.409  0.00  0.00    +0.167 HD
ENDBRANCH  31  38
ENDBRANCH  27  31
ENDBRANCH   1  28
TORSDOF 5
