REMARK  Name = ZINC37915338
REMARK  4 active torsions:
REMARK  status: ('A' for Active; 'I' for Inactive)
REMARK    1  A    between atoms: C_1  and  C_2
REMARK    2  A    between atoms: C_2  and  C_3
REMARK    3  A    between atoms: N_8  and  S_9
REMARK    4  A    between atoms: S_9  and  C_12
REMARK                            x       y       z     vdW  Elec       q    Type
REMARK                         _______ _______ _______ _____ _____    ______ ____
ROOT
ATOM      1  C   UNL     1       2.820   2.256   2.835  0.00  0.00    +0.106 A 
ATOM      2  C   UNL     1       1.775   2.791   3.567  0.00  0.00    +0.030 A 
ATOM      3  C   UNL     1       1.991   3.225   4.859  0.00  0.00    +0.025 A 
ATOM      4  C   UNL     1       3.258   3.124   5.424  0.00  0.00    +0.030 A 
ATOM      5  C   UNL     1       4.304   2.586   4.691  0.00  0.00    -0.025 A 
ATOM      6  C   UNL     1       4.077   2.150   3.396  0.00  0.00    +0.034 A 
ATOM      7  C   UNL     1       5.686   2.452   5.273  0.00  0.00    +0.038 C 
ATOM      8  C   UNL     1       5.863   3.402   6.457  0.00  0.00    +0.023 C 
ATOM      9  C   UNL     1       4.695   3.202   7.432  0.00  0.00    +0.102 C 
ATOM     10  N   UNL     1       3.458   3.575   6.734  0.00  0.00    -0.344 N 
ATOM     11  H   UNL     1       2.790   4.125   7.173  0.00  0.00    +0.146 HD
ENDROOT
BRANCH   1  12
ATOM     12  S   UNL     1       2.544   1.704   1.184  0.00  0.00    +0.061 S 
ATOM     13  O   UNL     1       3.804   1.742   0.527  0.00  0.00    -0.153 OA
ATOM     14  O   UNL     1       1.411   2.413   0.702  0.00  0.00    -0.153 OA
BRANCH  12  19
ATOM     15  C   UNL     1       0.724  -0.399   1.271  0.00  0.00    +0.080 C 
ATOM     16  C   UNL     1       0.798  -1.935   1.391  0.00  0.00    +0.022 C 
ATOM     17  C   UNL     1       2.198  -2.167   2.018  0.00  0.00    +0.019 C 
ATOM     18  C   UNL     1       3.027  -1.040   1.353  0.00  0.00    +0.110 C 
ATOM     19  N   UNL     1       2.103   0.110   1.269  0.00  0.00    -0.174 NA
BRANCH  15  21
ATOM     20  C   UNL     1      -1.439  -0.456   0.021  0.00  0.00    +0.005 C 
ATOM     21  C   UNL     1       0.024  -0.012  -0.034  0.00  0.00    +0.017 C 
ENDBRANCH  15  21
ENDBRANCH  12  19
ENDBRANCH   1  12
TORSDOF 3
