REMARK  Name = ZINC33382288
REMARK  8 active torsions:
REMARK  status: ('A' for Active; 'I' for Inactive)
REMARK    1  A    between atoms: C_1  and  C_2
REMARK    2  A    between atoms: C_7  and  N_8
REMARK    3  A    between atoms: C_13  and  C_30
REMARK    4  A    between atoms: C_16  and  C_21
REMARK    5  A    between atoms: C_16  and  C_27
REMARK    6  A    between atoms: C_33  and  C_36
REMARK    7  A    between atoms: C_36  and  O_38
REMARK    8  A    between atoms: O_38  and  C_39
REMARK                            x       y       z     vdW  Elec       q    Type
REMARK                         _______ _______ _______ _____ _____    ______ ____
ROOT
ATOM      1  N   UNL     1      -0.386   0.185   2.503  0.00  0.00    -0.210 N 
ATOM      2  C   UNL     1      -1.427   0.619   3.286  0.00  0.00    +0.229 C 
ATOM      3  O   UNL     1      -2.600   0.334   3.183  0.00  0.00    -0.275 OA
ATOM      4  C   UNL     1      -0.811   1.490   4.261  0.00  0.00    +0.078 C 
ATOM      5  C   UNL     1      -1.090   2.088   5.574  0.00  0.00    -0.026 C 
ATOM      6  N   UNL     1       0.259   2.491   6.091  0.00  0.00    +0.398 N 
ATOM      7  C   UNL     1       1.283   1.999   5.113  0.00  0.00    +0.074 C 
ATOM      8  C   UNL     1       0.577   0.772   4.498  0.00  0.00    +0.090 C 
ATOM      9  C   UNL     1       0.836   0.454   3.051  0.00  0.00    +0.229 C 
ATOM     10  O   UNL     1       1.909   0.441   2.487  0.00  0.00    -0.275 OA
ATOM     11  H   UNL     1       0.311   3.496   6.165  0.00  0.00    -0.083 HD
ATOM     12  H   UNL     1       0.419   2.072   6.995  0.00  0.00    -0.083 HD
ENDROOT
BRANCH   1  19
ATOM     13  C   UNL     1      -0.507   1.769   0.141  0.00  0.00    +0.045 C 
ATOM     14  C   UNL     1      -0.623   0.267   0.099  0.00  0.00    -0.029 A 
ATOM     15  C   UNL     1      -0.788  -0.380  -1.111  0.00  0.00    +0.005 A 
ATOM     16  C   UNL     1      -0.894  -1.758  -1.150  0.00  0.00    +0.000 A 
ATOM     17  C   UNL     1      -0.836  -2.492   0.020  0.00  0.00    +0.002 A 
ATOM     18  C   UNL     1      -0.671  -1.851   1.232  0.00  0.00    +0.024 A 
ATOM     19  C   UNL     1      -0.559  -0.468   1.274  0.00  0.00    +0.047 A 
ENDBRANCH   1  19
BRANCH   7  20
ATOM     20  C   UNL     1       1.579   3.051   4.075  0.00  0.00    -0.047 A 
ATOM     21  C   UNL     1       0.764   4.162   3.965  0.00  0.00    +0.003 A 
ATOM     22  C   UNL     1       1.036   5.127   3.013  0.00  0.00    +0.000 A 
ATOM     23  C   UNL     1       2.123   4.981   2.172  0.00  0.00    +0.000 A 
ATOM     24  C   UNL     1       2.939   3.870   2.283  0.00  0.00    +0.000 A 
ATOM     25  C   UNL     1       2.670   2.908   3.238  0.00  0.00    +0.003 A 
ENDBRANCH   7  20
BRANCH   5  26
ATOM     26  C   UNL     1      -1.728   1.075   6.490  0.00  0.00    -0.061 A 
ATOM     27  C   UNL     1      -0.939   0.142   7.139  0.00  0.00    +0.003 A 
ATOM     28  C   UNL     1      -1.516  -0.787   7.979  0.00  0.00    +0.015 A 
ATOM     29  C   UNL     1      -2.899  -0.785   8.173  0.00  0.00    +0.059 A 
ATOM     30  C   UNL     1      -3.688   0.159   7.514  0.00  0.00    +0.015 A 
ATOM     31  C   UNL     1      -3.098   1.087   6.682  0.00  0.00    +0.003 A 
BRANCH  29  32
ATOM     32  C   UNL     1      -3.524  -1.778   9.071  0.00  0.00    +0.339 C 
ATOM     33  O   UNL     1      -2.835  -2.599   9.642  0.00  0.00    -0.245 OA
BRANCH  32  34
ATOM     34  O   UNL     1      -4.859  -1.773   9.256  0.00  0.00    -0.464 OA
ATOM     35  C   UNL     1      -5.395  -2.762  10.137  0.00  0.00    +0.280 C 
ENDBRANCH  32  34
ENDBRANCH  29  32
ENDBRANCH   5  26
BRANCH   7  36
ATOM     36  C   UNL     1       2.543   1.579   5.825  0.00  0.00    +0.350 C 
ATOM     37  O   UNL     1       2.626   1.694   7.036  0.00  0.00    -0.248 OA
ATOM     38  O   UNL     1       3.480   1.125   5.190  0.00  0.00    -0.248 OA
ENDBRANCH   7  36
TORSDOF 6
