REMARK  Name = ZINC12497552
REMARK  9 active torsions:
REMARK  status: ('A' for Active; 'I' for Inactive)
REMARK    1  A    between atoms: C_1  and  N_2
REMARK    2  A    between atoms: N_2  and  C_3
REMARK    3  A    between atoms: N_2  and  C_4
REMARK    4  A    between atoms: C_7  and  C_10
REMARK    5  A    between atoms: N_18  and  C_21
REMARK    6  A    between atoms: C_28  and  C_29
REMARK    7  A    between atoms: C_28  and  C_35
REMARK    8  A    between atoms: C_35  and  O_37
REMARK    9  A    between atoms: O_37  and  C_38
REMARK                            x       y       z     vdW  Elec       q    Type
REMARK                         _______ _______ _______ _____ _____    ______ ____
ROOT
ATOM      1  C   UNL     1       2.452   3.934   0.006  0.00  0.00    -0.026 C 
ATOM      2  C   UNL     1       2.793   4.424   1.393  0.00  0.00    +0.078 C 
ATOM      3  C   UNL     1       3.872   5.503   0.982  0.00  0.00    +0.090 C 
ATOM      4  C   UNL     1       4.380   5.854   2.306  0.00  0.00    +0.230 C 
ATOM      5  O   UNL     1       4.742   6.944   2.693  0.00  0.00    -0.275 OA
ATOM      6  N   UNL     1       4.357   4.678   3.014  0.00  0.00    -0.207 N 
ATOM      7  C   UNL     1       3.607   3.709   2.401  0.00  0.00    +0.229 C 
ATOM      8  O   UNL     1       3.610   2.520   2.635  0.00  0.00    -0.275 OA
ATOM      9  C   UNL     1       3.140   6.253  -0.070  0.00  0.00    +0.070 C 
ATOM     10  N   UNL     1       2.317   5.215  -0.752  0.00  0.00    +0.398 N 
ATOM     11  H   UNL     1       1.332   5.507  -0.766  0.00  0.00    -0.083 HD
ATOM     12  H   UNL     1       2.649   5.085  -1.715  0.00  0.00    -0.083 HD
ENDROOT
BRANCH   6  13
ATOM     13  C   UNL     1       5.028   4.490   4.232  0.00  0.00    +0.079 A 
ATOM     14  C   UNL     1       6.334   4.019   4.240  0.00  0.00    +0.027 A 
ATOM     15  C   UNL     1       6.993   3.835   5.441  0.00  0.00    +0.002 A 
ATOM     16  C   UNL     1       6.354   4.118   6.633  0.00  0.00    +0.003 A 
ATOM     17  C   UNL     1       5.053   4.587   6.630  0.00  0.00    +0.040 A 
ATOM     18  C   UNL     1       4.389   4.779   5.432  0.00  0.00    +0.145 A 
ATOM     19  F   UNL     1       3.120   5.244   5.428  0.00  0.00    -0.204 F 
ENDBRANCH   6  13
BRANCH   1  23
ATOM     20  C   UNL     1      -1.224   1.755   0.019  0.00  0.00    +0.029 A 
ATOM     21  C   UNL     1      -0.013   1.076   0.024  0.00  0.00    +0.023 A 
ATOM     22  C   UNL     1       1.174   1.783   0.018  0.00  0.00    +0.004 A 
ATOM     23  C   UNL     1       1.156   3.166   0.012  0.00  0.00    -0.060 A 
ATOM     24  C   UNL     1      -0.049   3.845   0.013  0.00  0.00    +0.004 A 
ATOM     25  C   UNL     1      -1.239   3.144   0.018  0.00  0.00    +0.023 A 
BRANCH  20  27
ATOM     26  C   UNL     1      -2.412  -0.418  -0.101  0.00  0.00    +0.129 C 
ATOM     27  N   UNL     1      -2.426   1.042   0.019  0.00  0.00    -0.336 N 
ATOM     28  C   UNL     1      -3.700   1.755   0.140  0.00  0.00    +0.129 C 
ENDBRANCH  20  27
ENDBRANCH   1  23
BRANCH   9  29
ATOM     29  C   UNL     1       4.110   6.883  -1.037  0.00  0.00    -0.047 A 
ATOM     30  C   UNL     1       5.364   7.272  -0.604  0.00  0.00    +0.003 A 
ATOM     31  C   UNL     1       6.254   7.846  -1.492  0.00  0.00    +0.000 A 
ATOM     32  C   UNL     1       5.888   8.039  -2.811  0.00  0.00    +0.000 A 
ATOM     33  C   UNL     1       4.632   7.655  -3.242  0.00  0.00    +0.000 A 
ATOM     34  C   UNL     1       3.743   7.077  -2.355  0.00  0.00    +0.003 A 
ENDBRANCH   9  29
BRANCH   9  35
ATOM     35  C   UNL     1       2.258   7.305   0.552  0.00  0.00    +0.301 C 
ATOM     36  O   UNL     1       2.528   7.753   1.641  0.00  0.00    -0.252 OA
BRANCH  35  37
ATOM     37  O   UNL     1       1.173   7.744  -0.104  0.00  0.00    -0.469 OA
ATOM     38  C   UNL     1       0.369   8.758   0.555  0.00  0.00    +0.280 C 
ENDBRANCH  35  37
ENDBRANCH   9  35
TORSDOF 6
