REMARK  Name = ZINC21432799
REMARK  9 active torsions:
REMARK  status: ('A' for Active; 'I' for Inactive)
REMARK    1  A    between atoms: C_1  and  S_2
REMARK    2  A    between atoms: S_2  and  C_3
REMARK    3  A    between atoms: C_6  and  C_14
REMARK    4  A    between atoms: N_7  and  C_8
REMARK    5  A    between atoms: C_14  and  O_16
REMARK    6  A    between atoms: O_16  and  C_17
REMARK    7  A    between atoms: C_17  and  C_18
REMARK    8  A    between atoms: N_20  and  C_21
REMARK    9  A    between atoms: C_22  and  C_30
REMARK                            x       y       z     vdW  Elec       q    Type
REMARK                         _______ _______ _______ _____ _____    ______ ____
ROOT
ATOM      1  C   UNL     1       3.082   0.644   3.899  0.00  0.00    +0.255 C 
ATOM      2  O   UNL     1       2.643   1.354   3.020  0.00  0.00    -0.272 OA
ATOM      3  N   UNL     1       3.609   1.195   5.011  0.00  0.00    -0.277 N 
ATOM      4  H   UNL     1       4.008   0.551   5.808  0.00  0.00    +0.155 HD
ENDROOT
BRANCH   3   5
ATOM      5  C   UNL     1       3.650   2.574   5.148  0.00  0.00    +0.084 A 
ATOM      6  C   UNL     1       4.143   3.321   6.209  0.00  0.00    +0.068 A 
ATOM      7  C   UNL     1       4.069   4.768   6.103  0.00  0.00    -0.023 A 
ATOM      8  C   UNL     1       3.509   5.234   4.966  0.00  0.00    -0.004 A 
ATOM      9  S   UNL     1       3.090   3.783   4.041  0.00  0.00    -0.077 S 
ATOM     10  C   UNL     1       3.296   6.666   4.585  0.00  0.00    +0.043 C 
ATOM     11  C   UNL     1       3.466   7.532   5.842  0.00  0.00    +0.005 C 
ATOM     12  C   UNL     1       4.752   7.110   6.560  0.00  0.00    +0.005 C 
ATOM     13  C   UNL     1       4.571   5.723   7.179  0.00  0.00    +0.037 C 
BRANCH   6  14
ATOM     14  C   UNL     1       4.720   2.673   7.391  0.00  0.00    +0.244 C 
ATOM     15  O   UNL     1       5.910   2.423   7.428  0.00  0.00    -0.270 OA
ATOM     16  N   UNL     1       3.932   2.355   8.438  0.00  0.00    -0.325 N 
ATOM     17  H   UNL     1       4.365   1.869   9.324  0.00  0.00    +0.145 HD
ATOM     18  H   UNL     1       2.856   2.581   8.405  0.00  0.00    +0.145 HD
ENDBRANCH   6  14
ENDBRANCH   3   5
BRANCH   1  19
ATOM     19  C   UNL     1       3.038  -0.855   3.750  0.00  0.00    +0.328 C 
BRANCH  19  20
ATOM     20  O   UNL     1       2.438  -1.191   2.497  0.00  0.00    -0.451 OA
BRANCH  20  21
ATOM     21  C   UNL     1       2.322  -2.504   2.206  0.00  0.00    +0.358 C 
ATOM     22  O   UNL     1       2.721  -3.340   2.996  0.00  0.00    -0.243 OA
BRANCH  21  26
ATOM     23  C   UNL     1       0.779  -2.895  -1.010  0.00  0.00    +0.174 A 
ATOM     24  N   UNL     1       0.972  -4.151  -0.657  0.00  0.00    -0.229 NA
ATOM     25  C   UNL     1       1.546  -4.203   0.542  0.00  0.00    +0.147 A 
ATOM     26  C   UNL     1       1.737  -2.909   0.981  0.00  0.00    +0.152 A 
ATOM     27  N   UNL     1       1.237  -2.081  -0.021  0.00  0.00    -0.282 N 
BRANCH  27  28
ATOM     28  C   UNL     1       1.215  -0.680  -0.013  0.00  0.00    +0.049 A 
ATOM     29  C   UNL     1       0.002  -0.004   0.002  0.00  0.00    +0.026 A 
ATOM     30  C   UNL     1      -0.017   1.377   0.010  0.00  0.00    +0.002 A 
ATOM     31  C   UNL     1       1.171   2.086   0.002  0.00  0.00    +0.000 A 
ATOM     32  C   UNL     1       2.380   1.415  -0.013  0.00  0.00    +0.002 A 
ATOM     33  C   UNL     1       2.405   0.034  -0.021  0.00  0.00    +0.026 A 
ENDBRANCH  27  28
BRANCH  23  35
ATOM     34  C   UNL     1      -0.291  -3.959  -3.292  0.00  0.00    +0.093 C 
ATOM     35  S   UNL     1       0.048  -2.357  -2.520  0.00  0.00    -0.091 S 
ENDBRANCH  23  35
ENDBRANCH  21  26
ENDBRANCH  20  21
ENDBRANCH  19  20
ENDBRANCH   1  19
TORSDOF 8
