REMARK  Name = ZINC00894466
REMARK  7 active torsions:
REMARK  status: ('A' for Active; 'I' for Inactive)
REMARK    1  A    between atoms: C_1  and  C_2
REMARK    2  A    between atoms: C_4  and  C_33
REMARK    3  A    between atoms: C_7  and  C_14
REMARK    4  A    between atoms: C_14  and  C_16
REMARK    5  A    between atoms: C_14  and  N_63
REMARK    6  A    between atoms: N_20  and  C_21
REMARK    7  A    between atoms: C_29  and  C_32
REMARK                            x       y       z     vdW  Elec       q    Type
REMARK                         _______ _______ _______ _____ _____    ______ ____
ROOT
ATOM      1  C   UNL     1       0.059   1.209   2.425  0.00  0.00    +0.039 C 
ENDROOT
BRANCH   1   8
ATOM      2  C   UNL     1      -2.227   5.373   8.832  0.00  0.00    +0.044 C 
ATOM      3  C   UNL     1      -1.588   4.690   7.650  0.00  0.00    -0.048 A 
ATOM      4  C   UNL     1      -0.264   4.962   7.333  0.00  0.00    +0.007 A 
ATOM      5  C   UNL     1       0.334   4.355   6.266  0.00  0.00    -0.041 A 
ATOM      6  C   UNL     1      -0.394   3.450   5.486  0.00  0.00    +0.002 A 
ATOM      7  C   UNL     1       0.218   2.777   4.338  0.00  0.00    +0.018 A 
ATOM      8  C   UNL     1      -0.538   1.914   3.615  0.00  0.00    +0.011 A 
ATOM      9  C   UNL     1      -1.881   1.670   3.976  0.00  0.00    +0.251 A 
ATOM     10  O   UNL     1      -2.541   0.888   3.315  0.00  0.00    -0.268 OA
ATOM     11  N   UNL     1      -2.449   2.279   5.032  0.00  0.00    -0.322 N 
ATOM     12  H   UNL     1      -3.403   2.083   5.259  0.00  0.00    +0.169 HD
ATOM     13  C   UNL     1      -1.736   3.171   5.804  0.00  0.00    +0.050 A 
ATOM     14  C   UNL     1      -2.324   3.803   6.896  0.00  0.00    +0.029 A 
ATOM     15  C   UNL     1       1.771   4.658   5.930  0.00  0.00    +0.044 C 
ENDBRANCH   1   8
BRANCH   1  22
ATOM     16  C   UNL     1      -0.274   0.703   0.081  0.00  0.00    -0.077 C 
ATOM     17  C   UNL     1      -1.256   0.842  -1.084  0.00  0.00    -0.018 C 
ATOM     18  C   UNL     1      -1.430   2.325  -1.425  0.00  0.00    -0.001 C 
ATOM     19  C   UNL     1      -1.920   3.072  -0.181  0.00  0.00    -0.031 C 
ATOM     20  C   UNL     1      -0.918   2.868   0.958  0.00  0.00    -0.074 C 
ATOM     21  C   UNL     1      -2.039   4.565  -0.495  0.00  0.00    +0.005 C 
ATOM     22  N   UNL     1      -0.815   1.423   1.253  0.00  0.00    +0.389 N 
ATOM     23  H   UNL     1      -1.752   1.059   1.465  0.00  0.00    -0.080 HD
ENDBRANCH   1  22
BRANCH   1  24
ATOM     24  C   UNL     1       0.143  -0.269   2.707  0.00  0.00    +0.143 A 
ATOM     25  N   UNL     1      -0.851  -1.123   2.715  0.00  0.00    -0.115 NA
ATOM     26  N   UNL     1      -0.375  -2.286   2.996  0.00  0.00    -0.023 NA
ATOM     27  N   UNL     1       0.897  -2.196   3.175  0.00  0.00    -0.044 NA
ATOM     28  N   UNL     1       1.254  -0.968   3.006  0.00  0.00    -0.227 N 
BRANCH  28  29
ATOM     29  C   UNL     1       2.614  -0.434   3.118  0.00  0.00    +0.111 C 
ATOM     30  C   UNL     1       3.551  -1.164   2.133  0.00  0.00    +0.027 C 
ATOM     31  C   UNL     1       4.889  -1.289   2.905  0.00  0.00    +0.002 C 
ATOM     32  C   UNL     1       4.423  -1.577   4.354  0.00  0.00    +0.002 C 
ATOM     33  C   UNL     1       3.168  -0.697   4.529  0.00  0.00    +0.027 C 
ENDBRANCH  28  29
ENDBRANCH   1  24
TORSDOF 4
