REMARK  Name = ZINC36032816
REMARK  10 active torsions:
REMARK  status: ('A' for Active; 'I' for Inactive)
REMARK    1  A    between atoms: C_1  and  C_2
REMARK    2  A    between atoms: C_2  and  C_3
REMARK    3  A    between atoms: C_2  and  C_4
REMARK    4  A    between atoms: C_4  and  C_5
REMARK    5  A    between atoms: N_9  and  C_28
REMARK    6  A    between atoms: N_14  and  S_17
REMARK    7  A    between atoms: S_17  and  C_20
REMARK    8  A    between atoms: C_28  and  C_29
REMARK    9  A    between atoms: C_29  and  O_30
REMARK   10  A    between atoms: O_30  and  C_31
REMARK                            x       y       z     vdW  Elec       q    Type
REMARK                         _______ _______ _______ _____ _____    ______ ____
ROOT
ATOM      1  C   UNL     1      -0.565  -0.383   2.394  0.00  0.00    +0.019 C 
ATOM      2  C   UNL     1       0.172  -0.697   3.679  0.00  0.00    +0.201 C 
ATOM      3  O   UNL     1       0.957   0.036   4.242  0.00  0.00    -0.277 OA
ATOM      4  N   UNL     1      -0.194  -1.928   4.092  0.00  0.00    -0.311 N 
ATOM      5  C   UNL     1      -1.155  -2.497   3.143  0.00  0.00    +0.006 C 
ATOM      6  N   UNL     1      -1.675  -1.365   2.342  0.00  0.00    +0.401 N 
ATOM      7  C   UNL     1      -0.461  -3.502   2.226  0.00  0.00    +0.023 C 
ATOM      8  C   UNL     1       0.107  -4.649   3.068  0.00  0.00    +0.109 C 
ATOM      9  N   UNL     1      -0.973  -5.213   3.889  0.00  0.00    -0.177 NA
ATOM     10  C   UNL     1      -1.751  -4.312   4.750  0.00  0.00    +0.109 C 
ATOM     11  C   UNL     1      -2.304  -3.168   3.894  0.00  0.00    +0.023 C 
ATOM     12  H   UNL     1      -2.509  -0.982   2.764  0.00  0.00    -0.082 HD
ATOM     13  H   UNL     1      -1.854  -1.651   1.392  0.00  0.00    -0.082 HD
ENDROOT
BRANCH   9  14
ATOM     14  S   UNL     1      -1.307  -6.835   3.845  0.00  0.00    +0.062 S 
ATOM     15  O   UNL     1      -2.661  -6.982   4.251  0.00  0.00    -0.153 OA
ATOM     16  O   UNL     1      -0.830  -7.313   2.595  0.00  0.00    -0.153 OA
BRANCH  14  17
ATOM     17  C   UNL     1      -0.322  -7.603   5.088  0.00  0.00    +0.125 A 
ATOM     18  C   UNL     1      -0.928  -8.215   6.169  0.00  0.00    +0.030 A 
ATOM     19  C   UNL     1      -0.156  -8.818   7.145  0.00  0.00    +0.003 A 
ATOM     20  C   UNL     1       1.222  -8.810   7.040  0.00  0.00    +0.021 A 
ATOM     21  C   UNL     1       1.830  -8.198   5.959  0.00  0.00    +0.061 A 
ATOM     22  C   UNL     1       1.057  -7.599   4.979  0.00  0.00    +0.086 A 
ATOM     23 CL   UNL     1       1.818  -6.837   3.617  0.00  0.00    -0.080 Cl
ATOM     24 CL   UNL     1       3.561  -8.187   5.827  0.00  0.00    -0.082 Cl
ENDBRANCH  14  17
ENDBRANCH   9  14
BRANCH   1  25
ATOM     25  C   UNL     1       0.363  -0.565   1.191  0.00  0.00    -0.004 C 
BRANCH  25  27
ATOM     26  C   UNL     1      -0.809   1.215  -0.114  0.00  0.00    +0.007 C 
ATOM     27  C   UNL     1      -0.407  -0.261  -0.097  0.00  0.00    -0.018 C 
ATOM     28  C   UNL     1       0.482  -0.562  -1.305  0.00  0.00    +0.007 C 
ENDBRANCH  25  27
ENDBRANCH   1  25
BRANCH   4  29
ATOM     29  C   UNL     1       0.294  -2.593   5.302  0.00  0.00    +0.134 C 
BRANCH  29  30
ATOM     30  C   UNL     1      -0.528  -2.130   6.506  0.00  0.00    +0.178 C 
BRANCH  30  31
ATOM     31  O   UNL     1      -1.899  -2.481   6.309  0.00  0.00    -0.381 OA
ATOM     32  C   UNL     1      -2.759  -2.091   7.382  0.00  0.00    +0.194 C 
ENDBRANCH  30  31
ENDBRANCH  29  30
ENDBRANCH   4  29
TORSDOF 7
