REMARK  Name = ZINC21985994
REMARK  15 active torsions:
REMARK  status: ('A' for Active; 'I' for Inactive)
REMARK    1  A    between atoms: C_1  and  C_2
REMARK    2  A    between atoms: C_2  and  C_3
REMARK    3  A    between atoms: C_3  and  C_4
REMARK    4  A    between atoms: C_7  and  C_12
REMARK    5  A    between atoms: N_9  and  C_11
REMARK    6  A    between atoms: N_14  and  C_15
REMARK    7  A    between atoms: C_15  and  C_17
REMARK    8  A    between atoms: C_15  and  C_33
REMARK    9  A    between atoms: C_19  and  O_32
REMARK   10  A    between atoms: C_21  and  O_31
REMARK   11  A    between atoms: C_23  and  O_30
REMARK   12  A    between atoms: C_25  and  S_28
REMARK   13  A    between atoms: S_28  and  C_29
REMARK   14  A    between atoms: C_33  and  C_35
REMARK   15  A    between atoms: C_33  and  O_36
REMARK                            x       y       z     vdW  Elec       q    Type
REMARK                         _______ _______ _______ _____ _____    ______ ____
ROOT
ATOM      1  C   UNL     1       2.822  -0.538  -0.104  0.00  0.00    +0.132 C 
ENDROOT
BRANCH   1   2
ATOM      2  C   UNL     1       2.310   0.348   1.032  0.00  0.00    +0.173 C 
ATOM      3  C   UNL     1       2.866  -0.159   2.366  0.00  0.00    +0.176 C 
ATOM      4  C   UNL     1       4.394  -0.053   2.346  0.00  0.00    +0.177 C 
ATOM      5  C   UNL     1       4.790   1.400   2.066  0.00  0.00    +0.184 C 
ATOM      6  C   UNL     1       4.160   1.847   0.744  0.00  0.00    +0.207 C 
ATOM      7  O   UNL     1       2.741   1.694   0.819  0.00  0.00    -0.356 OA
BRANCH   6   8
ATOM      8  S   UNL     1       4.565   3.588   0.439  0.00  0.00    -0.131 S 
ATOM      9  C   UNL     1       3.885   3.914  -1.211  0.00  0.00    +0.087 C 
ENDBRANCH   6   8
BRANCH   5  10
ATOM     10  O   UNL     1       4.321   2.236   3.125  0.00  0.00    -0.386 OA
ATOM     11  H   UNL     1       4.513   3.319   3.098  0.00  0.00    +0.210 HD
ENDBRANCH   5  10
BRANCH   4  12
ATOM     12  O   UNL     1       4.919  -0.898   1.320  0.00  0.00    -0.386 OA
ATOM     13  H   UNL     1       6.005  -0.953   1.155  0.00  0.00    +0.210 HD
ENDBRANCH   4  12
BRANCH   3  14
ATOM     14  O   UNL     1       2.346   0.636   3.433  0.00  0.00    -0.387 OA
ATOM     15  H   UNL     1       2.636   0.419   4.472  0.00  0.00    +0.210 HD
ENDBRANCH   3  14
ENDBRANCH   1   2
BRANCH   1  18
ATOM     16  C   UNL     1       2.890  -0.242  -2.522  0.00  0.00    +0.200 C 
ATOM     17  O   UNL     1       3.974  -0.787  -2.531  0.00  0.00    -0.278 OA
ATOM     18  N   UNL     1       2.208  -0.118  -1.366  0.00  0.00    -0.309 N 
ATOM     19  H   UNL     1       1.190   0.299  -1.371  0.00  0.00    +0.149 HD
BRANCH  16  22
ATOM     20  C   UNL     1       1.366  -0.628  -5.867  0.00  0.00    -0.029 C 
ATOM     21  C   UNL     1       1.207  -0.648  -4.333  0.00  0.00    -0.005 C 
ATOM     22  C   UNL     1       2.307   0.297  -3.803  0.00  0.00    +0.019 C 
ATOM     23  N   UNL     1       3.336   0.311  -4.875  0.00  0.00    +0.386 N 
ATOM     24  C   UNL     1       2.550   0.327  -6.135  0.00  0.00    -0.075 C 
ATOM     25  C   UNL     1       4.188   1.504  -4.771  0.00  0.00    -0.095 C 
ATOM     26  H   UNL     1       4.026  -0.543  -4.814  0.00  0.00    -0.081 HD
BRANCH  20  27
ATOM     27  C   UNL     1       0.093  -0.095  -6.527  0.00  0.00    +0.001 C 
BRANCH  27  29
ATOM     28  C   UNL     1      -1.049   0.334  -8.707  0.00  0.00    +0.004 C 
ATOM     29  C   UNL     1       0.224  -0.200  -8.047  0.00  0.00    -0.003 C 
ENDBRANCH  27  29
ENDBRANCH  20  27
ENDBRANCH  16  22
ENDBRANCH   1  18
BRANCH   1  30
ATOM     30  C   UNL     1       2.455  -1.996   0.180  0.00  0.00    +0.134 C 
ATOM     31  C   UNL     1       2.971  -2.883  -0.954  0.00  0.00    +0.039 C 
BRANCH  30  32
ATOM     32  O   UNL     1       1.035  -2.120   0.274  0.00  0.00    -0.390 OA
ATOM     33  H   UNL     1       0.580  -3.101   0.476  0.00  0.00    +0.210 HD
ENDBRANCH  30  32
ENDBRANCH   1  30
TORSDOF 11
