REMARK  Name = ZINC59577946
REMARK  11 active torsions:
REMARK  status: ('A' for Active; 'I' for Inactive)
REMARK    1  A    between atoms: C_1  and  C_2
REMARK    2  A    between atoms: C_4  and  C_15
REMARK    3  A    between atoms: C_6  and  C_14
REMARK    4  A    between atoms: C_7  and  O_8
REMARK    5  A    between atoms: O_8  and  C_9
REMARK    6  A    between atoms: C_9  and  C_10
REMARK    7  A    between atoms: C_15  and  N_16
REMARK    8  A    between atoms: N_16  and  C_17
REMARK    9  A    between atoms: N_16  and  C_18
REMARK   10  A    between atoms: C_18  and  C_19
REMARK   11  A    between atoms: C_32  and  C_34
REMARK                            x       y       z     vdW  Elec       q    Type
REMARK                         _______ _______ _______ _____ _____    ______ ____
ROOT
ATOM      1  N   UNL     1       1.414  -3.039  -2.949  0.00  0.00    +0.386 N 
ATOM      2  C   UNL     1       2.088  -3.929  -1.994  0.00  0.00    -0.095 C 
ATOM      3  H   UNL     1       1.901  -2.156  -2.987  0.00  0.00    -0.081 HD
ENDROOT
BRANCH   1   4
ATOM      4  C   UNL     1       0.028  -2.816  -2.516  0.00  0.00    -0.043 C 
BRANCH   4   8
ATOM      5  C   UNL     1      -0.018   1.503   0.010  0.00  0.00    +0.047 C 
ATOM      6  C   UNL     1       0.002  -0.004   0.002  0.00  0.00    -0.008 A 
ATOM      7  C   UNL     1       0.006  -0.689  -1.198  0.00  0.00    +0.008 A 
ATOM      8  C   UNL     1       0.024  -2.071  -1.206  0.00  0.00    -0.063 A 
ATOM      9  C   UNL     1       0.040  -2.772  -0.014  0.00  0.00    +0.008 A 
ATOM     10  C   UNL     1       0.036  -2.092   1.188  0.00  0.00    -0.008 A 
ATOM     11  C   UNL     1       0.023  -0.705   1.199  0.00  0.00    +0.127 A 
ATOM     12  C   UNL     1       0.052  -2.856   2.487  0.00  0.00    +0.047 C 
BRANCH  11  13
ATOM     13  O   UNL     1       0.025  -0.033   2.381  0.00  0.00    -0.483 OA
BRANCH  13  14
ATOM     14  C   UNL     1      -1.246   0.270   2.957  0.00  0.00    +0.342 C 
BRANCH  14  15
ATOM     15  C   UNL     1      -1.043   1.022   4.274  0.00  0.00    +0.424 C 
ATOM     16  F   UNL     1      -0.346   2.211   4.030  0.00  0.00    -0.167 F 
ATOM     17  F   UNL     1      -2.288   1.320   4.838  0.00  0.00    -0.167 F 
ATOM     18  F   UNL     1      -0.309   0.225   5.158  0.00  0.00    -0.167 F 
ENDBRANCH  14  15
ENDBRANCH  13  14
ENDBRANCH  11  13
ENDBRANCH   4   8
ENDBRANCH   1   4
BRANCH   1  19
ATOM     19  C   UNL     1       1.417  -3.657  -4.282  0.00  0.00    +0.019 C 
BRANCH  19  20
ATOM     20  C   UNL     1       2.835  -3.773  -4.778  0.00  0.00    +0.204 C 
ATOM     21  O   UNL     1       3.753  -3.380  -4.089  0.00  0.00    -0.277 OA
ATOM     22  N   UNL     1       3.084  -4.315  -5.987  0.00  0.00    -0.268 N 
ATOM     23  C   UNL     1       2.033  -4.768  -6.796  0.00  0.00    +0.058 A 
ATOM     24  C   UNL     1       1.337  -5.921  -6.470  0.00  0.00    +0.025 A 
ATOM     25  C   UNL     1       0.318  -6.365  -7.292  0.00  0.00    +0.002 A 
ATOM     26  C   UNL     1      -0.008  -5.664  -8.439  0.00  0.00    +0.002 A 
ATOM     27  C   UNL     1       0.676  -4.508  -8.767  0.00  0.00    +0.025 A 
ATOM     28  C   UNL     1       1.690  -4.050  -7.942  0.00  0.00    +0.055 A 
ATOM     29  N   UNL     1       2.359  -2.853  -8.223  0.00  0.00    -0.284 N 
ATOM     30  C   UNL     1       3.708  -2.798  -8.192  0.00  0.00    +0.219 C 
ATOM     31  O   UNL     1       4.271  -1.736  -8.355  0.00  0.00    -0.275 OA
ATOM     32  C   UNL     1       4.517  -4.046  -7.956  0.00  0.00    +0.118 C 
ATOM     33  C   UNL     1       4.457  -4.434  -6.482  0.00  0.00    +0.087 C 
ATOM     34  C   UNL     1       4.931  -5.880  -6.323  0.00  0.00    +0.029 C 
ATOM     35  H   UNL     1       1.849  -2.057  -8.442  0.00  0.00    +0.155 HD
ENDBRANCH  19  20
ENDBRANCH   1  19
TORSDOF 7
