REMARK  Name = ZINC21180378
REMARK  14 active torsions:
REMARK  status: ('A' for Active; 'I' for Inactive)
REMARK    1  A    between atoms: C_1  and  C_2
REMARK    2  A    between atoms: C_3  and  C_35
REMARK    3  A    between atoms: C_11  and  C_13
REMARK    4  A    between atoms: C_13  and  S_14
REMARK    5  A    between atoms: S_14  and  C_15
REMARK    6  A    between atoms: N_25  and  C_26
REMARK    7  A    between atoms: C_26  and  C_27
REMARK    8  A    between atoms: C_27  and  N_28
REMARK    9  A    between atoms: N_28  and  C_29
REMARK   10  A    between atoms: N_28  and  C_32
REMARK   11  A    between atoms: C_29  and  C_30
REMARK   12  A    between atoms: C_29  and  C_31
REMARK   13  A    between atoms: C_32  and  C_33
REMARK   14  A    between atoms: C_32  and  C_34
REMARK                            x       y       z     vdW  Elec       q    Type
REMARK                         _______ _______ _______ _____ _____    ______ ____
ROOT
ATOM      1  C   UNL     1      -0.511  -6.895   5.796  0.00  0.00    +0.172 A 
ATOM      2  N   UNL     1      -0.689  -6.390   6.992  0.00  0.00    -0.223 NA
ATOM      3  C   UNL     1      -0.570  -7.145   8.103  0.00  0.00    +0.079 A 
ATOM      4  C   UNL     1      -0.760  -6.606   9.379  0.00  0.00    +0.028 A 
ATOM      5  C   UNL     1      -0.630  -7.408  10.477  0.00  0.00    +0.002 A 
ATOM      6  C   UNL     1      -0.311  -8.754  10.347  0.00  0.00    +0.001 A 
ATOM      7  C   UNL     1      -0.118  -9.309   9.112  0.00  0.00    +0.015 A 
ATOM      8  C   UNL     1      -0.245  -8.515   7.974  0.00  0.00    +0.065 A 
ATOM      9  C   UNL     1      -0.051  -9.057   6.622  0.00  0.00    +0.262 A 
ATOM     10  O   UNL     1       0.230 -10.229   6.447  0.00  0.00    -0.267 OA
ATOM     11  N   UNL     1      -0.201  -8.207   5.580  0.00  0.00    -0.289 N 
ENDROOT
BRANCH   1  12
ATOM     12  S   UNL     1      -0.686  -5.833   4.401  0.00  0.00    -0.080 S 
BRANCH  12  13
ATOM     13  C   UNL     1      -1.089  -4.220   5.126  0.00  0.00    +0.151 C 
BRANCH  13  24
ATOM     14  C   UNL     1      -2.064   0.921   0.935  0.00  0.00    +0.045 C 
ATOM     15  C   UNL     1      -1.724  -0.543   0.826  0.00  0.00    -0.026 A 
ATOM     16  C   UNL     1      -1.533  -1.108  -0.377  0.00  0.00    -0.008 A 
ATOM     17  S   UNL     1      -1.165  -2.807   0.019  0.00  0.00    -0.073 S 
ATOM     18  C   UNL     1      -1.280  -2.708   1.786  0.00  0.00    +0.116 A 
ATOM     19  C   UNL     1      -1.595  -1.357   2.019  0.00  0.00    +0.075 A 
ATOM     20  C   UNL     1      -1.745  -0.985   3.395  0.00  0.00    +0.260 A 
ATOM     21  O   UNL     1      -2.022   0.163   3.699  0.00  0.00    -0.267 OA
ATOM     22  N   UNL     1      -1.576  -1.922   4.346  0.00  0.00    -0.310 N 
ATOM     23  H   UNL     1      -1.677  -1.676   5.279  0.00  0.00    +0.170 HD
ATOM     24  C   UNL     1      -1.268  -3.205   4.026  0.00  0.00    +0.121 A 
ATOM     25  N   UNL     1      -1.133  -3.578   2.782  0.00  0.00    -0.226 NA
ATOM     26  C   UNL     1      -1.610  -0.461  -1.736  0.00  0.00    +0.052 C 
ENDBRANCH  13  24
ENDBRANCH  12  13
ENDBRANCH   1  12
BRANCH  11  27
ATOM     27  C   UNL     1      -0.024  -8.697   4.211  0.00  0.00    +0.109 C 
BRANCH  27  28
ATOM     28  C   UNL     1       1.442  -8.547   3.801  0.00  0.00    -0.056 C 
BRANCH  28  29
ATOM     29  N   UNL     1       1.649  -9.167   2.485  0.00  0.00    +0.384 N 
ATOM     30  H   UNL     1       1.327 -10.123   2.509  0.00  0.00    -0.081 HD
BRANCH  29  31
ATOM     31  C   UNL     1       0.894  -8.422   1.469  0.00  0.00    -0.074 C 
ATOM     32  C   UNL     1       1.720  -7.223   0.997  0.00  0.00    -0.014 C 
ATOM     33  C   UNL     1       0.600  -9.337   0.279  0.00  0.00    -0.014 C 
ENDBRANCH  29  31
BRANCH  29  34
ATOM     34  C   UNL     1       3.079  -9.140   2.150  0.00  0.00    -0.074 C 
ATOM     35  C   UNL     1       3.879  -9.791   3.280  0.00  0.00    -0.014 C 
ATOM     36  C   UNL     1       3.313  -9.912   0.850  0.00  0.00    -0.014 C 
ENDBRANCH  29  34
ENDBRANCH  28  29
ENDBRANCH  27  28
ENDBRANCH  11  27
TORSDOF 8
