REMARK  Name = ZINC13009093
REMARK  12 active torsions:
REMARK  status: ('A' for Active; 'I' for Inactive)
REMARK    1  A    between atoms: C_1  and  O_2
REMARK    2  A    between atoms: O_2  and  C_3
REMARK    3  A    between atoms: C_8  and  C_9
REMARK    4  A    between atoms: C_9  and  C_11
REMARK    5  A    between atoms: C_9  and  N_34
REMARK    6  A    between atoms: C_11  and  N_12
REMARK    7  A    between atoms: C_13  and  C_15
REMARK    8  A    between atoms: C_19  and  S_21
REMARK    9  A    between atoms: S_21  and  N_24
REMARK   10  A    between atoms: N_24  and  C_25
REMARK   11  A    between atoms: N_24  and  C_28
REMARK   12  A    between atoms: C_25  and  C_26
REMARK                            x       y       z     vdW  Elec       q    Type
REMARK                         _______ _______ _______ _____ _____    ______ ____
ROOT
ATOM      1  N   UNL     1      -2.079  -3.084   0.636  0.00  0.00    -0.313 N 
ATOM      2  C   UNL     1      -3.257  -3.728   0.517  0.00  0.00    +0.244 C 
ATOM      3  O   UNL     1      -4.069  -3.362  -0.309  0.00  0.00    -0.270 OA
ATOM      4  H   UNL     1      -1.430  -3.377   1.296  0.00  0.00    +0.149 HD
ENDROOT
BRANCH   2   5
ATOM      5  C   UNL     1      -3.560  -4.882   1.391  0.00  0.00    +0.039 A 
ATOM      6  C   UNL     1      -2.631  -5.302   2.345  0.00  0.00    +0.013 A 
ATOM      7  C   UNL     1      -2.920  -6.378   3.158  0.00  0.00    +0.003 A 
ATOM      8  C   UNL     1      -4.128  -7.041   3.029  0.00  0.00    +0.029 A 
ATOM      9  C   UNL     1      -5.053  -6.630   2.086  0.00  0.00    +0.109 A 
ATOM     10  C   UNL     1      -4.778  -5.551   1.271  0.00  0.00    +0.041 A 
BRANCH   9  11
ATOM     11  S   UNL     1      -6.588  -7.482   1.930  0.00  0.00    +0.075 S 
ATOM     12  O   UNL     1      -7.051  -7.244   0.608  0.00  0.00    -0.150 OA
ATOM     13  O   UNL     1      -6.379  -8.791   2.440  0.00  0.00    -0.150 OA
BRANCH  11  14
ATOM     14  N   UNL     1      -7.663  -6.743   2.949  0.00  0.00    -0.199 N 
BRANCH  14  15
ATOM     15  C   UNL     1      -7.872  -7.252   4.233  0.00  0.00    +0.052 A 
ATOM     16  C   UNL     1      -7.612  -6.461   5.346  0.00  0.00    +0.025 A 
ATOM     17  C   UNL     1      -7.819  -6.967   6.614  0.00  0.00    +0.002 A 
ATOM     18  C   UNL     1      -8.284  -8.259   6.777  0.00  0.00    +0.000 A 
ATOM     19  C   UNL     1      -8.543  -9.049   5.672  0.00  0.00    +0.002 A 
ATOM     20  C   UNL     1      -8.344  -8.547   4.401  0.00  0.00    +0.025 A 
ENDBRANCH  14  15
BRANCH  14  21
ATOM     21  C   UNL     1      -8.397  -5.555   2.504  0.00  0.00    +0.158 C 
BRANCH  21  22
ATOM     22  C   UNL     1      -9.743  -5.969   1.966  0.00  0.00    -0.014 C 
ATOM     23  C   UNL     1     -10.835  -5.435   2.453  0.00  0.00    +0.005 C 
ENDBRANCH  21  22
ENDBRANCH  14  21
ENDBRANCH  11  14
ENDBRANCH   9  11
ENDBRANCH   2   5
BRANCH   1  24
ATOM     24  C   UNL     1      -1.778  -1.941  -0.230  0.00  0.00    +0.094 C 
BRANCH  24  25
ATOM     25  C   UNL     1      -0.344  -1.472   0.024  0.00  0.00    -0.017 C 
BRANCH  25  31
ATOM     26  C   UNL     1       1.029  -2.666  -1.701  0.00  0.00    +0.122 A 
ATOM     27  C   UNL     1       1.920  -3.664  -2.069  0.00  0.00    +0.046 A 
ATOM     28  C   UNL     1       2.391  -4.551  -1.121  0.00  0.00    +0.004 A 
ATOM     29  C   UNL     1       1.976  -4.445   0.194  0.00  0.00    +0.000 A 
ATOM     30  C   UNL     1       1.089  -3.452   0.563  0.00  0.00    +0.005 A 
ATOM     31  C   UNL     1       0.619  -2.559  -0.380  0.00  0.00    -0.018 A 
BRANCH  26  33
ATOM     32  C   UNL     1       1.029  -1.963  -3.972  0.00  0.00    +0.277 C 
ATOM     33  O   UNL     1       0.564  -1.792  -2.632  0.00  0.00    -0.495 OA
ENDBRANCH  26  33
ENDBRANCH  25  31
BRANCH  25  34
ATOM     34  N   UNL     1      -0.173  -1.172   1.452  0.00  0.00    +0.385 N 
ATOM     35  C   UNL     1       1.175  -0.599   1.696  0.00  0.00    -0.078 C 
ATOM     36  C   UNL     1       1.001   0.157   3.037  0.00  0.00    -0.020 C 
ATOM     37  C   UNL     1      -0.424   0.745   2.920  0.00  0.00    -0.020 C 
ATOM     38  C   UNL     1      -1.136  -0.132   1.874  0.00  0.00    -0.078 C 
ATOM     39  H   UNL     1      -0.301  -2.009   2.001  0.00  0.00    -0.081 HD
ENDBRANCH  25  34
ENDBRANCH  24  25
ENDBRANCH   1  24
TORSDOF 11
