REMARK  Name = ZINC16120806
REMARK  3 active torsions:
REMARK  status: ('A' for Active; 'I' for Inactive)
REMARK    1  A    between atoms: C_4  and  S_8
REMARK    2  A    between atoms: S_8  and  N_11
REMARK    3  A    between atoms: N_11  and  C_12
REMARK                            x       y       z     vdW  Elec       q    Type
REMARK                         _______ _______ _______ _____ _____    ______ ____
ROOT
ATOM      1  N   UNL     1       3.404   3.608   1.409  0.00  0.00    -0.215 N 
ATOM      2  H   UNL     1       3.462   4.232   2.150  0.00  0.00    +0.174 HD
ENDROOT
BRANCH   1   3
ATOM      3  C   UNL     1       3.857   2.292   1.565  0.00  0.00    +0.066 A 
ATOM      4  C   UNL     1       4.465   1.637   0.503  0.00  0.00    +0.075 A 
ATOM      5  C   UNL     1       4.918   0.336   0.659  0.00  0.00    +0.164 A 
ATOM      6  C   UNL     1       4.755  -0.314   1.877  0.00  0.00    +0.163 A 
ATOM      7  C   UNL     1       4.142   0.342   2.934  0.00  0.00    +0.066 A 
ATOM      8  C   UNL     1       3.694   1.640   2.780  0.00  0.00    +0.044 A 
ATOM      9 BR   UNL     1       2.858   2.529   4.225  0.00  0.00    -0.048 Br
ATOM     10  O   UNL     1       5.193  -1.592   2.048  0.00  0.00    -0.485 OA
ATOM     11  C   UNL     1       5.465  -2.344   0.861  0.00  0.00    +0.270 C 
ATOM     12  C   UNL     1       6.284  -1.461  -0.090  0.00  0.00    +0.270 C 
ATOM     13  O   UNL     1       5.513  -0.293  -0.392  0.00  0.00    -0.485 OA
ENDBRANCH   1   3
BRANCH   1  14
ATOM     14  S   UNL     1       2.768   4.098  -0.039  0.00  0.00    +0.074 S 
ATOM     15  O   UNL     1       2.367   5.451   0.131  0.00  0.00    -0.150 OA
ATOM     16  O   UNL     1       1.864   3.082  -0.451  0.00  0.00    -0.150 OA
BRANCH  14  20
ATOM     17  C   UNL     1       6.149   4.124  -3.051  0.00  0.00    +0.021 A 
ATOM     18  C   UNL     1       6.191   4.969  -1.958  0.00  0.00    +0.023 A 
ATOM     19  C   UNL     1       5.157   4.963  -1.039  0.00  0.00    +0.068 A 
ATOM     20  C   UNL     1       4.084   4.106  -1.210  0.00  0.00    +0.128 A 
ATOM     21  C   UNL     1       4.045   3.257  -2.299  0.00  0.00    +0.050 A 
ATOM     22  C   UNL     1       5.079   3.264  -3.219  0.00  0.00    +0.043 A 
ATOM     23 CL   UNL     1       5.029   2.197  -4.588  0.00  0.00    -0.083 Cl
ATOM     24 CL   UNL     1       5.207   6.029   0.330  0.00  0.00    -0.082 Cl
ENDBRANCH  14  20
ENDBRANCH   1  14
TORSDOF 3
