REMARK  Name = ZINC16828009
REMARK  10 active torsions:
REMARK  status: ('A' for Active; 'I' for Inactive)
REMARK    1  A    between atoms: C_1  and  C_2
REMARK    2  A    between atoms: C_5  and  N_8
REMARK    3  A    between atoms: C_21  and  S_22
REMARK    4  A    between atoms: S_22  and  C_23
REMARK    5  A    between atoms: C_23  and  C_25
REMARK    6  A    between atoms: C_23  and  C_26
REMARK    7  A    between atoms: N_28  and  C_29
REMARK    8  A    between atoms: C_34  and  C_35
REMARK    9  A    between atoms: C_35  and  C_36
REMARK   10  A    between atoms: C_35  and  C_37
REMARK                            x       y       z     vdW  Elec       q    Type
REMARK                         _______ _______ _______ _____ _____    ______ ____
ROOT
ATOM      1  N   UNL     1       1.734   2.541  -0.262  0.00  0.00    -0.245 N 
ATOM      2  C   UNL     1       0.858   3.566  -0.210  0.00  0.00    +0.268 A 
ATOM      3  O   UNL     1       1.252   4.717  -0.226  0.00  0.00    -0.267 OA
ATOM      4  C   UNL     1      -0.584   3.270  -0.134  0.00  0.00    +0.064 A 
ATOM      5  C   UNL     1      -1.531   4.291  -0.078  0.00  0.00    +0.015 A 
ATOM      6  C   UNL     1      -2.871   3.975  -0.007  0.00  0.00    +0.001 A 
ATOM      7  C   UNL     1      -3.279   2.651   0.009  0.00  0.00    +0.002 A 
ATOM      8  C   UNL     1      -2.351   1.630  -0.045  0.00  0.00    +0.027 A 
ATOM      9  C   UNL     1      -0.998   1.928  -0.113  0.00  0.00    +0.064 A 
ATOM     10  N   UNL     1      -0.041   0.923  -0.173  0.00  0.00    -0.255 N 
ATOM     11  C   UNL     1       1.294   1.226  -0.244  0.00  0.00    +0.245 A 
ATOM     12  N   UNL     1       1.941   0.086  -0.283  0.00  0.00    -0.109 NA
ATOM     13  N   UNL     1       1.111  -0.895  -0.242  0.00  0.00    -0.120 NA
ATOM     14  C   UNL     1      -0.118  -0.443  -0.174  0.00  0.00    +0.198 A 
ENDROOT
BRANCH   1  19
ATOM     15  C   UNL     1       7.295   3.626  -0.556  0.00  0.00    +0.044 C 
ATOM     16  C   UNL     1       5.818   3.338  -0.478  0.00  0.00    -0.050 A 
ATOM     17  C   UNL     1       5.295   2.710   0.638  0.00  0.00    +0.005 A 
ATOM     18  C   UNL     1       3.942   2.445   0.713  0.00  0.00    +0.026 A 
ATOM     19  C   UNL     1       3.106   2.809  -0.334  0.00  0.00    +0.053 A 
ATOM     20  C   UNL     1       3.634   3.434  -1.456  0.00  0.00    +0.026 A 
ATOM     21  C   UNL     1       4.988   3.701  -1.522  0.00  0.00    +0.005 A 
ENDBRANCH   1  19
BRANCH  14  22
ATOM     22  S   UNL     1      -1.589  -1.411  -0.099  0.00  0.00    -0.073 S 
BRANCH  22  23
ATOM     23  C   UNL     1      -0.990  -3.123  -0.138  0.00  0.00    +0.137 C 
ATOM     24  C   UNL     1      -0.177  -3.407   1.127  0.00  0.00    +0.029 C 
BRANCH  23  25
ATOM     25  C   UNL     1      -2.165  -4.064  -0.202  0.00  0.00    +0.230 C 
ATOM     26  O   UNL     1      -3.265  -3.685   0.138  0.00  0.00    -0.274 OA
ATOM     27  N   UNL     1      -1.992  -5.328  -0.638  0.00  0.00    -0.284 N 
ATOM     28  H   UNL     1      -1.126  -5.612  -0.970  0.00  0.00    +0.155 HD
BRANCH  27  29
ATOM     29  C   UNL     1      -3.062  -6.230  -0.611  0.00  0.00    +0.037 A 
ATOM     30  C   UNL     1      -4.355  -5.783  -0.850  0.00  0.00    +0.023 A 
ATOM     31  C   UNL     1      -5.408  -6.676  -0.828  0.00  0.00    +0.002 A 
ATOM     32  C   UNL     1      -5.177  -8.012  -0.557  0.00  0.00    +0.000 A 
ATOM     33  C   UNL     1      -3.892  -8.460  -0.313  0.00  0.00    +0.006 A 
ATOM     34  C   UNL     1      -2.834  -7.572  -0.339  0.00  0.00    -0.024 A 
BRANCH  34  35
ATOM     35  C   UNL     1      -1.433  -8.060  -0.073  0.00  0.00    +0.015 C 
ATOM     36  C   UNL     1      -1.393  -8.786   1.274  0.00  0.00    +0.012 C 
ATOM     37  C   UNL     1      -1.008  -9.023  -1.184  0.00  0.00    +0.012 C 
ENDBRANCH  34  35
ENDBRANCH  27  29
ENDBRANCH  23  25
ENDBRANCH  22  23
ENDBRANCH  14  22
TORSDOF 6
