REMARK  Name = ZINC06177101
REMARK  10 active torsions:
REMARK  status: ('A' for Active; 'I' for Inactive)
REMARK    1  A    between atoms: C_1  and  O_2
REMARK    2  A    between atoms: O_2  and  C_3
REMARK    3  A    between atoms: C_8  and  N_9
REMARK    4  A    between atoms: C_10  and  C_29
REMARK    5  A    between atoms: C_13  and  S_14
REMARK    6  A    between atoms: S_14  and  C_15
REMARK    7  A    between atoms: C_15  and  C_16
REMARK    8  A    between atoms: N_18  and  C_19
REMARK    9  A    between atoms: C_24  and  C_25
REMARK   10  A    between atoms: C_34  and  O_35
REMARK                            x       y       z     vdW  Elec       q    Type
REMARK                         _______ _______ _______ _____ _____    ______ ____
ROOT
ATOM      1  N   UNL     1       0.035   1.109   4.089  0.00  0.00    -0.267 N 
ATOM      2  C   UNL     1       1.079   0.404   4.646  0.00  0.00    +0.173 A 
ATOM      3  N   UNL     1       1.786  -0.086   3.654  0.00  0.00    -0.128 NA
ATOM      4  N   UNL     1       1.261   0.254   2.531  0.00  0.00    -0.122 NA
ATOM      5  C   UNL     1       0.192   0.990   2.735  0.00  0.00    +0.197 A 
ENDROOT
BRANCH   1  11
ATOM      6  C   UNL     1      -0.800   3.145   5.103  0.00  0.00    +0.144 A 
ATOM      7  C   UNL     1      -1.805   3.828   5.769  0.00  0.00    +0.048 A 
ATOM      8  C   UNL     1      -2.975   3.176   6.109  0.00  0.00    +0.004 A 
ATOM      9  C   UNL     1      -3.150   1.844   5.782  0.00  0.00    +0.002 A 
ATOM     10  C   UNL     1      -2.154   1.157   5.113  0.00  0.00    +0.030 A 
ATOM     11  C   UNL     1      -0.977   1.805   4.768  0.00  0.00    +0.092 A 
BRANCH   6  13
ATOM     12  C   UNL     1       0.467   5.157   5.148  0.00  0.00    +0.277 C 
ATOM     13  O   UNL     1       0.355   3.783   4.773  0.00  0.00    -0.493 OA
ENDBRANCH   6  13
ENDBRANCH   1  11
BRANCH   2  14
ATOM     14  C   UNL     1       1.352   0.230   6.088  0.00  0.00    +0.061 A 
ATOM     15  C   UNL     1       0.509   0.812   7.036  0.00  0.00    +0.015 A 
ATOM     16  C   UNL     1       0.769   0.646   8.381  0.00  0.00    +0.001 A 
ATOM     17  C   UNL     1       1.862  -0.095   8.794  0.00  0.00    +0.004 A 
ATOM     18  C   UNL     1       2.704  -0.676   7.864  0.00  0.00    +0.046 A 
ATOM     19  C   UNL     1       2.454  -0.524   6.510  0.00  0.00    +0.128 A 
BRANCH  19  20
ATOM     20  O   UNL     1       3.277  -1.099   5.596  0.00  0.00    -0.506 OA
ATOM     21  H   UNL     1       4.016  -0.538   5.324  0.00  0.00    +0.292 HD
ENDBRANCH  19  20
ENDBRANCH   2  14
BRANCH   5  22
ATOM     22  S   UNL     1      -0.849   1.688   1.497  0.00  0.00    -0.076 S 
BRANCH  22  23
ATOM     23  C   UNL     1      -0.004   1.100   0.008  0.00  0.00    +0.173 C 
BRANCH  23  24
ATOM     24  C   UNL     1      -0.739   1.590  -1.213  0.00  0.00    +0.227 C 
ATOM     25  O   UNL     1      -1.736   2.270  -1.089  0.00  0.00    -0.275 OA
ATOM     26  N   UNL     1      -0.288   1.272  -2.443  0.00  0.00    -0.284 N 
ATOM     27  H   UNL     1       0.544   0.784  -2.544  0.00  0.00    +0.155 HD
BRANCH  26  28
ATOM     28  C   UNL     1      -1.022   1.646  -3.575  0.00  0.00    +0.045 A 
ATOM     29  C   UNL     1      -1.723   2.845  -3.585  0.00  0.00    +0.024 A 
ATOM     30  C   UNL     1      -2.441   3.214  -4.705  0.00  0.00    +0.002 A 
ATOM     31  C   UNL     1      -2.471   2.386  -5.812  0.00  0.00    +0.001 A 
ATOM     32  C   UNL     1      -1.779   1.189  -5.803  0.00  0.00    +0.014 A 
ATOM     33  C   UNL     1      -1.054   0.817  -4.688  0.00  0.00    +0.076 A 
BRANCH  33  34
ATOM     34  C   UNL     1      -0.301  -0.488  -4.679  0.00  0.00    +0.419 C 
ATOM     35  F   UNL     1      -0.485  -1.141  -5.902  0.00  0.00    -0.166 F 
ATOM     36  F   UNL     1       1.062  -0.238  -4.484  0.00  0.00    -0.166 F 
ATOM     37  F   UNL     1      -0.779  -1.296  -3.642  0.00  0.00    -0.166 F 
ENDBRANCH  33  34
ENDBRANCH  26  28
ENDBRANCH  23  24
ENDBRANCH  22  23
ENDBRANCH   5  22
TORSDOF 9
