REMARK  Name = ZINC09060775
REMARK  6 active torsions:
REMARK  status: ('A' for Active; 'I' for Inactive)
REMARK    1  A    between atoms: C_3  and  S_8
REMARK    2  A    between atoms: C_6  and  N_7
REMARK    3  A    between atoms: S_8  and  N_11
REMARK    4  A    between atoms: N_11  and  C_12
REMARK    5  A    between atoms: C_12  and  C_31
REMARK    6  A    between atoms: N_18  and  C_23
REMARK                            x       y       z     vdW  Elec       q    Type
REMARK                         _______ _______ _______ _____ _____    ______ ____
ROOT
ATOM      1  C   UNL     1       4.484   1.524   2.558  0.00  0.00    +0.243 C 
ATOM      2  C   UNL     1       4.538   1.880   4.025  0.00  0.00    +0.097 A 
ATOM      3  C   UNL     1       5.381   2.706   4.786  0.00  0.00    +0.284 A 
ATOM      4  N   UNL     1       5.170   2.825   6.109  0.00  0.00    -0.153 NA
ATOM      5  C   UNL     1       4.186   2.176   6.689  0.00  0.00    +0.358 A 
ATOM      6  O   UNL     1       3.999   2.316   8.018  0.00  0.00    -0.244 OA
ATOM      7  N   UNL     1       3.350   1.368   5.984  0.00  0.00    -0.248 N 
ATOM      8  C   UNL     1       3.518   1.208   4.628  0.00  0.00    +0.125 A 
ATOM      9  N   UNL     1       2.813   0.459   3.713  0.00  0.00    -0.269 N 
ATOM     10  C   UNL     1       3.304   0.577   2.466  0.00  0.00    +0.254 C 
ATOM     11  O   UNL     1       2.885   0.034   1.466  0.00  0.00    -0.273 OA
ATOM     12  O   UNL     1       6.299   3.311   4.251  0.00  0.00    -0.265 OA
ATOM     13  H   UNL     1       2.048  -0.092   3.942  0.00  0.00    +0.156 HD
ENDROOT
BRANCH   7  14
ATOM     14  C   UNL     1       2.312   0.694   6.643  0.00  0.00    +0.053 A 
ATOM     15  C   UNL     1       2.357  -0.687   6.779  0.00  0.00    +0.029 A 
ATOM     16  C   UNL     1       1.334  -1.349   7.428  0.00  0.00    +0.040 A 
ATOM     17  C   UNL     1       0.263  -0.637   7.942  0.00  0.00    +0.124 A 
ATOM     18  C   UNL     1       0.217   0.740   7.807  0.00  0.00    +0.040 A 
ATOM     19  C   UNL     1       1.241   1.407   7.164  0.00  0.00    +0.029 A 
ATOM     20  F   UNL     1      -0.737  -1.287   8.577  0.00  0.00    -0.205 F 
ENDBRANCH   7  14
BRANCH   1  21
ATOM     21  C   UNL     1       5.772   0.822   2.124  0.00  0.00    +0.422 C 
ATOM     22  F   UNL     1       6.837   1.727   2.177  0.00  0.00    -0.168 F 
ATOM     23  F   UNL     1       6.030  -0.253   2.982  0.00  0.00    -0.168 F 
ATOM     24  F   UNL     1       5.627   0.349   0.815  0.00  0.00    -0.168 F 
ENDBRANCH   1  21
BRANCH   1  25
ATOM     25  N   UNL     1       4.251   2.720   1.745  0.00  0.00    -0.162 NA
ATOM     26  H   UNL     1       4.850   2.932   1.012  0.00  0.00    +0.150 HD
BRANCH  25  27
ATOM     27  S   UNL     1       2.965   3.709   2.077  0.00  0.00    +0.060 S 
ATOM     28  O   UNL     1       3.015   4.771   1.135  0.00  0.00    -0.153 OA
ATOM     29  O   UNL     1       2.977   3.933   3.480  0.00  0.00    -0.153 OA
BRANCH  27  32
ATOM     30  C   UNL     1      -0.321   1.433   2.477  0.00  0.00    +0.024 A 
ATOM     31  C   UNL     1       0.828   2.150   2.748  0.00  0.00    +0.030 A 
ATOM     32  C   UNL     1       1.500   2.794   1.726  0.00  0.00    +0.105 A 
ATOM     33  C   UNL     1       1.025   2.723   0.429  0.00  0.00    +0.030 A 
ATOM     34  C   UNL     1      -0.123   2.007   0.151  0.00  0.00    +0.024 A 
ATOM     35  C   UNL     1      -0.801   1.359   1.175  0.00  0.00    +0.025 A 
BRANCH  35  36
ATOM     36  N   UNL     1      -1.962   0.634   0.897  0.00  0.00    -0.358 N 
ATOM     37  H   UNL     1      -2.435   0.182   1.613  0.00  0.00    +0.142 HD
ATOM     38  H   UNL     1      -2.296   0.584  -0.012  0.00  0.00    +0.142 HD
ENDBRANCH  35  36
ENDBRANCH  27  32
ENDBRANCH  25  27
ENDBRANCH   1  25
TORSDOF 6
