REMARK  Name = ZINC56062235
REMARK  7 active torsions:
REMARK  status: ('A' for Active; 'I' for Inactive)
REMARK    1  A    between atoms: C_1  and  C_2
REMARK    2  A    between atoms: C_6  and  S_8
REMARK    3  A    between atoms: S_8  and  N_11
REMARK    4  A    between atoms: N_11  and  C_12
REMARK    5  A    between atoms: C_12  and  C_13
REMARK    6  A    between atoms: C_21  and  C_28
REMARK    7  A    between atoms: C_24  and  C_27
REMARK                            x       y       z     vdW  Elec       q    Type
REMARK                         _______ _______ _______ _____ _____    ______ ____
ROOT
ATOM      1  C   UNL     1      -2.794  -5.723   2.344  0.00  0.00    -0.016 A 
ATOM      2  C   UNL     1      -2.554  -6.814   3.169  0.00  0.00    +0.009 A 
ATOM      3  C   UNL     1      -3.633  -7.558   3.610  0.00  0.00    +0.042 A 
ATOM      4  C   UNL     1      -4.915  -7.191   3.213  0.00  0.00    +0.099 A 
ATOM      5  N   UNL     1      -5.103  -6.144   2.425  0.00  0.00    -0.349 N 
ATOM      6  C   UNL     1      -4.092  -5.412   1.994  0.00  0.00    +0.089 A 
ATOM      7  N   UNL     1      -6.009  -7.930   3.648  0.00  0.00    -0.312 N 
ATOM      8  C   UNL     1      -7.384  -7.495   3.352  0.00  0.00    +0.137 C 
ATOM      9  C   UNL     1      -8.146  -8.680   2.748  0.00  0.00    +0.133 C 
ATOM     10  O   UNL     1      -8.010  -9.814   3.608  0.00  0.00    -0.371 OA
ATOM     11  C   UNL     1      -6.665 -10.274   3.763  0.00  0.00    +0.133 C 
ATOM     12  C   UNL     1      -5.827  -9.173   4.414  0.00  0.00    +0.137 C 
ATOM     13  C   UNL     1      -6.651 -11.522   4.648  0.00  0.00    +0.039 C 
ATOM     14  C   UNL     1      -7.569  -9.011   1.370  0.00  0.00    +0.039 C 
ATOM     15  H   UNL     1      -6.005  -5.906   2.160  0.00  0.00    +0.167 HD
ENDROOT
BRANCH   1  16
ATOM     16  C   UNL     1      -1.648  -4.884   1.839  0.00  0.00    +0.142 C 
BRANCH  16  17
ATOM     17  N   UNL     1      -1.382  -3.800   2.789  0.00  0.00    -0.186 NA
ATOM     18  H   UNL     1      -2.036  -3.581   3.470  0.00  0.00    +0.148 HD
BRANCH  17  19
ATOM     19  S   UNL     1       0.036  -2.950   2.698  0.00  0.00    +0.061 S 
ATOM     20  O   UNL     1       1.081  -3.909   2.617  0.00  0.00    -0.153 OA
ATOM     21  O   UNL     1      -0.015  -1.964   3.720  0.00  0.00    -0.153 OA
BRANCH  19  27
ATOM     22  C   UNL     1      -0.037   1.484  -0.069  0.00  0.00    +0.044 C 
ATOM     23  C   UNL     1      -0.008  -0.023  -0.055  0.00  0.00    -0.048 A 
ATOM     24  C   UNL     1       0.012  -0.725  -1.246  0.00  0.00    +0.006 A 
ATOM     25  C   UNL     1       0.039  -2.106  -1.234  0.00  0.00    +0.040 A 
ATOM     26  C   UNL     1       0.047  -2.788  -0.029  0.00  0.00    +0.150 A 
ATOM     27  C   UNL     1       0.027  -2.084   1.163  0.00  0.00    +0.140 A 
ATOM     28  C   UNL     1       0.005  -0.702   1.149  0.00  0.00    +0.034 A 
ATOM     29  F   UNL     1       0.073  -4.139  -0.016  0.00  0.00    -0.203 F 
ENDBRANCH  19  27
ENDBRANCH  17  19
ENDBRANCH  16  17
ENDBRANCH   1  16
TORSDOF 4
