REMARK  Name = ZINC44577255
REMARK  8 active torsions:
REMARK  status: ('A' for Active; 'I' for Inactive)
REMARK    1  A    between atoms: C_1  and  C_2
REMARK    2  A    between atoms: N_6  and  C_7
REMARK    3  A    between atoms: C_7  and  C_9
REMARK    4  A    between atoms: C_9  and  C_11
REMARK    5  A    between atoms: C_9  and  N_14
REMARK    6  A    between atoms: C_11  and  C_12
REMARK    7  A    between atoms: C_11  and  C_13
REMARK    8  A    between atoms: C_15  and  C_17
REMARK                            x       y       z     vdW  Elec       q    Type
REMARK                         _______ _______ _______ _____ _____    ______ ____
ROOT
ATOM      1  C   UNL     1       0.074  -3.522   4.486  0.00  0.00    +0.164 C 
ENDROOT
BRANCH   1   2
ATOM      2  N   UNL     1       0.070  -2.804   5.763  0.00  0.00    -0.297 N 
ATOM      3  C   UNL     1       0.578  -3.390   6.866  0.00  0.00    +0.280 C 
ATOM      4  O   UNL     1       1.039  -4.514   6.801  0.00  0.00    -0.267 OA
ATOM      5  H   UNL     1      -0.297  -1.908   5.816  0.00  0.00    +0.150 HD
BRANCH   3   6
ATOM      6  C   UNL     1       0.574  -2.671   8.148  0.00  0.00    +0.190 A 
ATOM      7  C   UNL     1       1.061  -3.157   9.319  0.00  0.00    +0.063 A 
ATOM      8  C   UNL     1       0.848  -2.107  10.314  0.00  0.00    +0.021 A 
ATOM      9  C   UNL     1       1.121  -1.989  11.679  0.00  0.00    +0.011 A 
ATOM     10  C   UNL     1       0.786  -0.841  12.339  0.00  0.00    +0.001 A 
ATOM     11  C   UNL     1       0.175   0.207  11.664  0.00  0.00    +0.004 A 
ATOM     12  C   UNL     1      -0.104   0.110  10.318  0.00  0.00    +0.047 A 
ATOM     13  C   UNL     1       0.229  -1.048   9.624  0.00  0.00    +0.136 A 
ATOM     14  O   UNL     1       0.091  -1.425   8.338  0.00  0.00    -0.450 OA
ENDBRANCH   3   6
ENDBRANCH   1   2
BRANCH   1  15
ATOM     15  C   UNL     1      -1.163  -4.418   4.401  0.00  0.00    +0.012 C 
ATOM     16  C   UNL     1      -1.143  -5.426   5.551  0.00  0.00    +0.009 C 
ATOM     17  C   UNL     1      -2.424  -3.557   4.499  0.00  0.00    +0.009 C 
ENDBRANCH   1  15
BRANCH   1  18
ATOM     18  C   UNL     1       0.054  -2.529   3.353  0.00  0.00    +0.259 C 
ATOM     19  O   UNL     1       0.038  -1.335   3.589  0.00  0.00    -0.272 OA
BRANCH  18  25
ATOM     20  C   UNL     1      -0.018   1.503   0.010  0.00  0.00    +0.064 C 
ATOM     21  C   UNL     1       0.002  -0.004   0.002  0.00  0.00    +0.021 A 
ATOM     22  C   UNL     1       0.006  -0.694  -1.144  0.00  0.00    +0.069 A 
ATOM     23  S   UNL     1       0.033  -2.379  -0.561  0.00  0.00    -0.060 S 
ATOM     24  C   UNL     1       0.036  -2.076   1.093  0.00  0.00    +0.163 A 
ATOM     25  N   UNL     1       0.054  -2.955   2.096  0.00  0.00    -0.155 NA
ATOM     26  N   UNL     1       0.023  -0.718   1.159  0.00  0.00    -0.340 N 
ATOM     27  H   UNL     1       0.025  -0.266   2.018  0.00  0.00    +0.167 HD
ENDBRANCH  18  25
ENDBRANCH   1  18
TORSDOF 5
