REMARK  Name = ZINC36206508
REMARK  12 active torsions:
REMARK  status: ('A' for Active; 'I' for Inactive)
REMARK    1  A    between atoms: C_1  and  C_2
REMARK    2  A    between atoms: C_5  and  C_38
REMARK    3  A    between atoms: C_6  and  C_8
REMARK    4  A    between atoms: C_17  and  C_19
REMARK    5  A    between atoms: C_19  and  N_20
REMARK    6  A    between atoms: N_20  and  C_21
REMARK    7  A    between atoms: N_20  and  C_27
REMARK    8  A    between atoms: C_21  and  C_22
REMARK    9  A    between atoms: C_27  and  C_28
REMARK   10  A    between atoms: C_28  and  C_30
REMARK   11  A    between atoms: C_28  and  O_37
REMARK   12  A    between atoms: C_30  and  C_31
REMARK                            x       y       z     vdW  Elec       q    Type
REMARK                         _______ _______ _______ _____ _____    ______ ____
ROOT
ATOM      1  C   UNL     1       3.985  -5.892   4.424  0.00  0.00    -0.003 C 
ENDROOT
BRANCH   1  11
ATOM      2  C   UNL     1      -0.799  -3.473   2.487  0.00  0.00    +0.004 A 
ATOM      3  C   UNL     1      -1.852  -3.668   3.317  0.00  0.00    +0.056 A 
ATOM      4  S   UNL     1      -1.154  -4.622   4.652  0.00  0.00    -0.076 S 
ATOM      5  C   UNL     1       0.518  -4.736   4.069  0.00  0.00    +0.116 A 
ATOM      6  C   UNL     1       0.495  -4.037   2.852  0.00  0.00    +0.080 A 
ATOM      7  C   UNL     1       1.741  -3.973   2.149  0.00  0.00    +0.260 A 
ATOM      8  O   UNL     1       1.822  -3.384   1.085  0.00  0.00    -0.267 OA
ATOM      9  N   UNL     1       2.821  -4.574   2.682  0.00  0.00    -0.312 N 
ATOM     10  H   UNL     1       3.668  -4.534   2.211  0.00  0.00    +0.170 HD
ATOM     11  C   UNL     1       2.749  -5.234   3.866  0.00  0.00    +0.094 A 
ATOM     12  N   UNL     1       1.629  -5.301   4.535  0.00  0.00    -0.229 NA
BRANCH   2  18
ATOM     13  C   UNL     1      -1.775   0.824   0.142  0.00  0.00    +0.044 C 
ATOM     14  C   UNL     1      -1.431  -0.642   0.097  0.00  0.00    -0.050 A 
ATOM     15  C   UNL     1      -1.267  -1.276  -1.122  0.00  0.00    +0.003 A 
ATOM     16  C   UNL     1      -0.951  -2.622  -1.171  0.00  0.00    +0.004 A 
ATOM     17  C   UNL     1      -0.798  -3.340  -0.002  0.00  0.00    -0.043 A 
ATOM     18  C   UNL     1      -0.962  -2.707   1.229  0.00  0.00    -0.013 A 
ATOM     19  C   UNL     1      -1.274  -1.349   1.272  0.00  0.00    +0.012 A 
ATOM     20  C   UNL     1      -0.455  -4.807  -0.057  0.00  0.00    +0.044 C 
ENDBRANCH   2  18
ENDBRANCH   1  11
BRANCH   1  21
ATOM     21  N   UNL     1       3.662  -6.537   5.703  0.00  0.00    +0.391 N 
ATOM     22  H   UNL     1       3.250  -5.860   6.327  0.00  0.00    -0.080 HD
BRANCH  21  23
ATOM     23  C   UNL     1       2.710  -7.632   5.472  0.00  0.00    -0.002 C 
BRANCH  23  24
ATOM     24  C   UNL     1       2.267  -8.201   6.795  0.00  0.00    +0.089 A 
ATOM     25  C   UNL     1       1.276  -7.720   7.566  0.00  0.00    +0.042 A 
ATOM     26  C   UNL     1       1.203  -8.552   8.707  0.00  0.00    +0.041 A 
ATOM     27  C   UNL     1       2.154  -9.492   8.564  0.00  0.00    +0.195 A 
ATOM     28  O   UNL     1       2.792  -9.278   7.402  0.00  0.00    -0.470 OA
ENDBRANCH  23  24
ENDBRANCH  21  23
BRANCH  21  29
ATOM     29  C   UNL     1       4.889  -7.075   6.305  0.00  0.00    -0.046 C 
BRANCH  29  30
ATOM     30  C   UNL     1       5.822  -5.921   6.678  0.00  0.00    +0.102 C 
BRANCH  30  31
ATOM     31  O   UNL     1       5.182  -5.084   7.643  0.00  0.00    -0.393 OA
ATOM     32  H   UNL     1       5.003  -5.522   8.486  0.00  0.00    +0.210 HD
ENDBRANCH  30  31
BRANCH  30  33
ATOM     33  C   UNL     1       7.117  -6.482   7.268  0.00  0.00    +0.064 C 
BRANCH  33  34
ATOM     34  C   UNL     1       8.084  -5.354   7.521  0.00  0.00    -0.045 A 
ATOM     35  C   UNL     1       8.969  -4.967   6.532  0.00  0.00    +0.004 A 
ATOM     36  C   UNL     1       9.856  -3.933   6.765  0.00  0.00    +0.000 A 
ATOM     37  C   UNL     1       9.857  -3.285   7.986  0.00  0.00    +0.000 A 
ATOM     38  C   UNL     1       8.972  -3.672   8.975  0.00  0.00    +0.000 A 
ATOM     39  C   UNL     1       8.082  -4.703   8.741  0.00  0.00    +0.004 A 
ENDBRANCH  33  34
ENDBRANCH  30  33
ENDBRANCH  29  30
ENDBRANCH  21  29
ENDBRANCH   1  21
TORSDOF 10
