REMARK  Name = ZINC36622519
REMARK  6 active torsions:
REMARK  status: ('A' for Active; 'I' for Inactive)
REMARK    1  A    between atoms: C_11  and  C_14
REMARK    2  A    between atoms: C_14  and  C_15
REMARK    3  A    between atoms: N_17  and  C_18
REMARK    4  A    between atoms: C_18  and  C_19
REMARK    5  A    between atoms: C_21  and  N_26
REMARK    6  A    between atoms: C_24  and  O_25
REMARK                            x       y       z     vdW  Elec       q    Type
REMARK                         _______ _______ _______ _____ _____    ______ ____
ROOT
ATOM      1  C   UNL     1       5.739   1.646   1.369  0.00  0.00    +0.218 C 
ATOM      2  O   UNL     1       5.386   0.937   2.287  0.00  0.00    -0.275 OA
ATOM      3  N   UNL     1       6.204   2.887   1.616  0.00  0.00    -0.311 N 
ATOM      4  H   UNL     1       6.486   3.455   0.881  0.00  0.00    +0.149 HD
ENDROOT
BRANCH   1   5
ATOM      5  C   UNL     1       5.657   1.141  -0.048  0.00  0.00    +0.134 C 
BRANCH   5  16
ATOM      6  C   UNL     1      -0.016   1.358   0.009  0.00  0.00    +0.001 A 
ATOM      7  C   UNL     1       1.168   2.090   0.002  0.00  0.00    +0.001 A 
ATOM      8  C   UNL     1       2.378   1.462  -0.013  0.00  0.00    +0.009 A 
ATOM      9  C   UNL     1       2.434   0.064  -0.021  0.00  0.00    -0.007 A 
ATOM     10  C   UNL     1       1.231  -0.683  -0.013  0.00  0.00    -0.017 A 
ATOM     11  C   UNL     1       0.002  -0.004   0.002  0.00  0.00    +0.008 A 
ATOM     12  C   UNL     1       1.289  -2.090  -0.022  0.00  0.00    +0.012 A 
ATOM     13  C   UNL     1       2.477  -2.743  -0.037  0.00  0.00    +0.047 A 
ATOM     14  C   UNL     1       3.695  -2.054  -0.045  0.00  0.00    +0.136 A 
ATOM     15  C   UNL     1       3.701  -0.656  -0.038  0.00  0.00    +0.031 A 
ATOM     16  C   UNL     1       5.109  -0.263  -0.050  0.00  0.00    +0.007 A 
ATOM     17  C   UNL     1       5.815  -1.406  -0.064  0.00  0.00    +0.200 A 
ATOM     18  O   UNL     1       4.981  -2.459  -0.061  0.00  0.00    -0.463 OA
ENDBRANCH   5  16
ENDBRANCH   1   5
BRANCH   3  19
ATOM     19  C   UNL     1       6.283   3.379   2.994  0.00  0.00    +0.143 C 
BRANCH  19  20
ATOM     20  C   UNL     1       6.832   4.782   2.995  0.00  0.00    +0.013 A 
ATOM     21  C   UNL     1       5.989   5.854   3.223  0.00  0.00    +0.041 A 
ATOM     22  C   UNL     1       6.492   7.142   3.224  0.00  0.00    +0.127 A 
ATOM     23  C   UNL     1       7.838   7.361   2.999  0.00  0.00    +0.036 A 
ATOM     24  C   UNL     1       8.685   6.293   2.771  0.00  0.00    +0.048 A 
ATOM     25  C   UNL     1       8.184   5.000   2.774  0.00  0.00    +0.122 A 
BRANCH  22  26
ATOM     26  N   UNL     1       5.587   8.287   3.467  0.00  0.00    +0.056 N 
ATOM     27  O   UNL     1       4.410   8.097   3.664  0.00  0.00    -0.126 OA
ATOM     28  O   UNL     1       6.026   9.414   3.469  0.00  0.00    -0.126 OA
ENDBRANCH  22  26
BRANCH  25  29
ATOM     29  O   UNL     1       9.015   3.947   2.556  0.00  0.00    -0.506 OA
ATOM     30  H   UNL     1       9.104   3.703   1.624  0.00  0.00    +0.292 HD
ENDBRANCH  25  29
ENDBRANCH  19  20
ENDBRANCH   3  19
TORSDOF 6
