REMARK  Name = ZINC34868902
REMARK  14 active torsions:
REMARK  status: ('A' for Active; 'I' for Inactive)
REMARK    1  A    between atoms: C_1  and  C_2
REMARK    2  A    between atoms: C_2  and  C_3
REMARK    3  A    between atoms: C_3  and  C_4
REMARK    4  A    between atoms: C_4  and  N_5
REMARK    5  A    between atoms: C_13  and  C_15
REMARK    6  A    between atoms: C_16  and  C_18
REMARK    7  A    between atoms: C_18  and  C_20
REMARK    8  A    between atoms: C_18  and  N_25
REMARK    9  A    between atoms: C_20  and  C_22
REMARK   10  A    between atoms: C_20  and  C_23
REMARK   11  A    between atoms: C_23  and  C_24
REMARK   12  A    between atoms: N_25  and  S_26
REMARK   13  A    between atoms: S_26  and  C_29
REMARK   14  A    between atoms: C_33  and  N_35
REMARK                            x       y       z     vdW  Elec       q    Type
REMARK                         _______ _______ _______ _____ _____    ______ ____
ROOT
ATOM      1  C   UNL     1       5.892  -4.449   6.999  0.00  0.00    +0.165 C 
ENDROOT
BRANCH   1  12
ATOM      2  N   UNL     1       0.244  -4.527   3.475  0.00  0.00    -0.299 N 
ATOM      3  C   UNL     1       0.953  -5.671   3.544  0.00  0.00    +0.303 C 
ATOM      4  O   UNL     1       0.653  -6.616   2.841  0.00  0.00    -0.253 OA
ATOM      5  N   UNL     1       1.995  -5.767   4.393  0.00  0.00    -0.280 N 
ATOM      6  C   UNL     1       2.296  -4.680   5.335  0.00  0.00    +0.128 C 
ATOM      7  C   UNL     1       3.751  -4.241   5.128  0.00  0.00    +0.127 C 
ATOM      8  N   UNL     1       4.607  -5.435   5.130  0.00  0.00    -0.297 N 
ATOM      9  C   UNL     1       4.306  -6.523   4.188  0.00  0.00    +0.130 C 
ATOM     10  C   UNL     1       2.848  -6.965   4.399  0.00  0.00    +0.092 C 
ATOM     11  C   UNL     1       2.714  -7.684   5.742  0.00  0.00    +0.030 C 
ATOM     12  C   UNL     1       5.649  -5.532   5.979  0.00  0.00    +0.235 C 
ATOM     13  O   UNL     1       6.390  -6.490   5.923  0.00  0.00    -0.274 OA
ATOM     14  H   UNL     1       0.435  -3.800   4.088  0.00  0.00    +0.150 HD
BRANCH   2  15
ATOM     15  C   UNL     1      -0.816  -4.382   2.474  0.00  0.00    +0.106 C 
BRANCH  15  16
ATOM     16  C   UNL     1      -1.459  -3.000   2.609  0.00  0.00    +0.018 C 
BRANCH  16  18
ATOM     17  C   UNL     1      -3.209  -1.467   1.698  0.00  0.00    +0.004 C 
ATOM     18  C   UNL     1      -2.566  -2.848   1.563  0.00  0.00    -0.002 C 
ENDBRANCH  16  18
ENDBRANCH  15  16
ENDBRANCH   2  15
ENDBRANCH   1  12
BRANCH   1  19
ATOM     19  C   UNL     1       5.236  -4.840   8.324  0.00  0.00    +0.013 C 
ATOM     20  C   UNL     1       3.715  -4.863   8.153  0.00  0.00    +0.009 C 
BRANCH  19  21
ATOM     21  C   UNL     1       5.723  -6.229   8.745  0.00  0.00    +0.002 C 
ATOM     22  C   UNL     1       5.165  -6.568  10.128  0.00  0.00    +0.004 C 
ENDBRANCH  19  21
ENDBRANCH   1  19
BRANCH   1  23
ATOM     23  N   UNL     1       7.334  -4.282   7.199  0.00  0.00    -0.178 NA
ATOM     24  H   UNL     1       7.922  -5.052   7.156  0.00  0.00    +0.149 HD
BRANCH  23  25
ATOM     25  S   UNL     1       7.959  -2.778   7.498  0.00  0.00    +0.059 S 
ATOM     26  O   UNL     1       9.359  -2.947   7.670  0.00  0.00    -0.153 OA
ATOM     27  O   UNL     1       7.412  -1.908   6.516  0.00  0.00    -0.153 OA
BRANCH  25  28
ATOM     28  C   UNL     1       7.321  -2.248   9.052  0.00  0.00    +0.108 A 
ATOM     29  C   UNL     1       6.131  -1.545   9.107  0.00  0.00    +0.030 A 
ATOM     30  C   UNL     1       5.630  -1.130  10.326  0.00  0.00    +0.024 A 
ATOM     31  C   UNL     1       6.319  -1.417  11.492  0.00  0.00    +0.071 A 
ATOM     32  C   UNL     1       7.509  -2.120  11.436  0.00  0.00    +0.146 A 
ATOM     33  C   UNL     1       8.007  -2.539  10.216  0.00  0.00    +0.062 A 
ATOM     34 CL   UNL     1       5.690  -0.895  13.023  0.00  0.00    -0.081 Cl
BRANCH  32  35
ATOM     35  N   UNL     1       8.246  -2.427  12.682  0.00  0.00    +0.058 N 
ATOM     36  O   UNL     1       9.286  -3.042  12.633  0.00  0.00    -0.126 OA
ATOM     37  O   UNL     1       7.808  -2.064  13.748  0.00  0.00    -0.126 OA
ENDBRANCH  32  35
ENDBRANCH  25  28
ENDBRANCH  23  25
ENDBRANCH   1  23
TORSDOF 10
