REMARK  Name = ZINC35640931
REMARK  12 active torsions:
REMARK  status: ('A' for Active; 'I' for Inactive)
REMARK    1  A    between atoms: C_1  and  C_2
REMARK    2  A    between atoms: C_2  and  N_3
REMARK    3  A    between atoms: C_4  and  C_24
REMARK    4  A    between atoms: C_5  and  C_19
REMARK    5  A    between atoms: C_6  and  C_11
REMARK    6  A    between atoms: C_19  and  O_21
REMARK    7  A    between atoms: O_21  and  C_22
REMARK    8  A    between atoms: C_22  and  C_23
REMARK    9  A    between atoms: C_24  and  N_25
REMARK   10  A    between atoms: N_25  and  C_26
REMARK   11  A    between atoms: N_25  and  C_27
REMARK   12  A    between atoms: N_30  and  C_33
REMARK                            x       y       z     vdW  Elec       q    Type
REMARK                         _______ _______ _______ _____ _____    ______ ____
ROOT
ATOM      1  N   UNL     1       0.946  -0.760  -1.530  0.00  0.00    -0.258 N 
ATOM      2  C   UNL     1      -0.062  -0.646  -2.445  0.00  0.00    +0.041 C 
ATOM      3  C   UNL     1       0.202  -0.590  -3.768  0.00  0.00    +0.080 C 
ATOM      4  C   UNL     1       1.653  -0.656  -4.202  0.00  0.00    +0.144 C 
ATOM      5  N   UNL     1       2.662  -0.777  -3.136  0.00  0.00    -0.288 N 
ATOM      6  C   UNL     1       2.243  -0.817  -1.856  0.00  0.00    +0.307 C 
ATOM      7  O   UNL     1       3.068  -0.913  -0.970  0.00  0.00    -0.252 OA
ATOM      8  H   UNL     1       3.607  -0.824  -3.351  0.00  0.00    +0.151 HD
ENDROOT
BRANCH   4   9
ATOM      9  C   UNL     1       1.959   0.590  -4.991  0.00  0.00    -0.021 A 
ATOM     10  C   UNL     1       2.231   1.776  -4.333  0.00  0.00    +0.007 A 
ATOM     11  C   UNL     1       2.512   2.919  -5.057  0.00  0.00    +0.022 A 
ATOM     12  C   UNL     1       2.521   2.879  -6.439  0.00  0.00    +0.059 A 
ATOM     13  C   UNL     1       2.249   1.692  -7.098  0.00  0.00    +0.060 A 
ATOM     14  C   UNL     1       1.974   0.546  -6.373  0.00  0.00    +0.027 A 
ATOM     15 CL   UNL     1       2.260   1.639  -8.833  0.00  0.00    -0.082 Cl
ATOM     16 CL   UNL     1       2.873   4.315  -7.348  0.00  0.00    -0.082 Cl
ENDBRANCH   4   9
BRANCH   1  18
ATOM     17  C   UNL     1       0.549   0.603   0.462  0.00  0.00    +0.025 C 
ATOM     18  C   UNL     1       0.587  -0.815  -0.111  0.00  0.00    +0.111 C 
ENDBRANCH   1  18
BRANCH   3  19
ATOM     19  C   UNL     1      -0.840  -0.473  -4.718  0.00  0.00    +0.339 C 
ATOM     20  O   UNL     1      -1.989  -0.330  -4.345  0.00  0.00    -0.245 OA
BRANCH  19  21
ATOM     21  O   UNL     1      -0.559  -0.522  -6.037  0.00  0.00    -0.462 OA
BRANCH  21  22
ATOM     22  C   UNL     1      -1.661  -0.398  -6.939  0.00  0.00    +0.229 C 
ATOM     23  C   UNL     1      -1.151  -0.475  -8.380  0.00  0.00    +0.048 C 
ENDBRANCH  21  22
ENDBRANCH  19  21
ENDBRANCH   3  19
BRANCH   2  24
ATOM     24  C   UNL     1      -1.491  -0.584  -1.971  0.00  0.00    +0.136 C 
BRANCH  24  25
ATOM     25  N   UNL     1      -2.116  -1.904  -2.125  0.00  0.00    -0.297 NA
ATOM     26  C   UNL     1      -1.634  -2.838  -1.099  0.00  0.00    +0.105 C 
BRANCH  25  27
ATOM     27  C   UNL     1      -3.581  -1.799  -2.095  0.00  0.00    +0.053 C 
ATOM     28  C   UNL     1      -4.032  -1.327  -0.710  0.00  0.00    +0.000 C 
ATOM     29  C   UNL     1      -5.561  -1.296  -0.661  0.00  0.00    -0.078 C 
ATOM     30  N   UNL     1      -6.090  -2.642  -0.917  0.00  0.00    +0.378 N 
ATOM     31  C   UNL     1      -5.722  -3.072  -2.271  0.00  0.00    -0.078 C 
ATOM     32  C   UNL     1      -4.199  -3.171  -2.383  0.00  0.00    +0.000 C 
ATOM     33  C   UNL     1      -7.553  -2.623  -0.792  0.00  0.00    -0.096 C 
ATOM     34  H   UNL     1      -5.705  -3.287  -0.244  0.00  0.00    -0.082 HD
ENDBRANCH  25  27
ENDBRANCH  24  25
ENDBRANCH   2  24
TORSDOF 8
