REMARK  Name = ZINC35024502
REMARK  15 active torsions:
REMARK  status: ('A' for Active; 'I' for Inactive)
REMARK    1  A    between atoms: C_1  and  C_2
REMARK    2  A    between atoms: C_3  and  C_4
REMARK    3  A    between atoms: C_3  and  C_5
REMARK    4  A    between atoms: C_5  and  O_7
REMARK    5  A    between atoms: O_7  and  C_8
REMARK    6  A    between atoms: C_10  and  C_38
REMARK    7  A    between atoms: C_12  and  O_37
REMARK    8  A    between atoms: C_17  and  C_18
REMARK    9  A    between atoms: C_17  and  C_19
REMARK   10  A    between atoms: C_21  and  C_32
REMARK   11  A    between atoms: C_23  and  O_31
REMARK   12  A    between atoms: C_27  and  C_30
REMARK   13  A    between atoms: C_32  and  O_33
REMARK   14  A    between atoms: O_33  and  C_34
REMARK   15  A    between atoms: C_34  and  C_36
REMARK                            x       y       z     vdW  Elec       q    Type
REMARK                         _______ _______ _______ _____ _____    ______ ____
ROOT
ATOM      1  C   UNL     1      -2.087  -4.264   0.053  0.00  0.00    +0.124 C 
ATOM      2  C   UNL     1      -0.938  -4.729   0.932  0.00  0.00    +0.055 C 
ATOM      3  C   UNL     1      -1.477  -5.431   2.194  0.00  0.00    +0.023 C 
ATOM      4  C   UNL     1      -2.248  -6.663   1.757  0.00  0.00    +0.085 C 
ATOM      5  C   UNL     1      -3.506  -6.217   1.022  0.00  0.00    +0.052 C 
ATOM      6  C   UNL     1      -3.365  -5.115   0.022  0.00  0.00    +0.052 C 
ATOM      7  C   UNL     1      -2.474  -5.058  -1.194  0.00  0.00    +0.012 C 
ATOM      8  C   UNL     1      -3.002  -4.228  -2.387  0.00  0.00    +0.015 C 
ATOM      9  C   UNL     1      -1.661  -6.272  -1.621  0.00  0.00    +0.015 C 
ATOM     10  C   UNL     1      -4.347  -7.379   0.619  0.00  0.00    -0.018 C 
ATOM     11  C   UNL     1      -5.089  -8.003   1.477  0.00  0.00    -0.033 C 
ATOM     12  C   UNL     1      -5.194  -7.660   2.917  0.00  0.00    +0.077 C 
ATOM     13  C   UNL     1      -3.913  -7.302   3.603  0.00  0.00    +0.140 C 
ATOM     14  C   UNL     1      -2.665  -7.647   2.811  0.00  0.00    +0.084 C 
ATOM     15  C   UNL     1      -1.660  -8.132   3.805  0.00  0.00    -0.011 C 
ATOM     16  C   UNL     1      -2.271  -8.359   4.973  0.00  0.00    -0.009 C 
ATOM     17  C   UNL     1      -3.702  -8.043   4.910  0.00  0.00    +0.191 C 
ATOM     18  O   UNL     1      -4.550  -8.316   5.737  0.00  0.00    -0.289 OA
ATOM     19  C   UNL     1      -1.568  -8.877   6.202  0.00  0.00    +0.047 C 
ATOM     20  C   UNL     1      -0.280  -5.754   3.085  0.00  0.00    +0.010 C 
ENDROOT
BRANCH  13  21
ATOM     21  O   UNL     1      -3.924  -5.907   3.911  0.00  0.00    -0.380 OA
ATOM     22  H   UNL     1      -4.655  -5.636   4.483  0.00  0.00    +0.211 HD
ENDBRANCH  13  21
BRANCH   4  23
ATOM     23  O   UNL     1      -1.418  -7.409   0.852  0.00  0.00    -0.387 OA
ATOM     24  H   UNL     1      -0.581  -7.703   1.236  0.00  0.00    +0.210 HD
ENDBRANCH   4  23
BRANCH   1  25
ATOM     25  O   UNL     1      -2.279  -2.844   0.009  0.00  0.00    -0.454 OA
BRANCH  25  26
ATOM     26  C   UNL     1      -2.910  -2.279   1.057  0.00  0.00    +0.335 C 
ATOM     27  O   UNL     1      -3.371  -2.978   1.938  0.00  0.00    -0.245 OA
BRANCH  26  30
ATOM     28  C   UNL     1      -3.798   1.240   2.250  0.00  0.00    +0.036 C 
ATOM     29  C   UNL     1      -3.664  -0.259   2.170  0.00  0.00    -0.020 C 
ATOM     30  C   UNL     1      -3.041  -0.817   1.135  0.00  0.00    +0.029 C 
ATOM     31  C   UNL     1      -2.470   0.050   0.043  0.00  0.00    +0.051 C 
ENDBRANCH  26  30
ENDBRANCH  25  26
ENDBRANCH   1  25
BRANCH  11  32
ATOM     32  C   UNL     1      -5.906  -9.160   0.972  0.00  0.00    +0.263 C 
BRANCH  32  33
ATOM     33  O   UNL     1      -5.675  -9.332  -0.427  0.00  0.00    -0.460 OA
BRANCH  33  34
ATOM     34  C   UNL     1      -6.335 -10.331  -1.036  0.00  0.00    +0.304 C 
ATOM     35  O   UNL     1      -7.083 -11.035  -0.401  0.00  0.00    -0.251 OA
ATOM     36  C   UNL     1      -6.141 -10.573  -2.510  0.00  0.00    +0.136 C 
ENDBRANCH  33  34
ENDBRANCH  32  33
ENDBRANCH  11  32
TORSDOF 8
