REMARK  Name = ZINC02323216
REMARK  7 active torsions:
REMARK  status: ('A' for Active; 'I' for Inactive)
REMARK    1  A    between atoms: C_4  and  C_7
REMARK    2  A    between atoms: C_10  and  C_13
REMARK    3  A    between atoms: N_14  and  N_15
REMARK    4  A    between atoms: C_16  and  C_18
REMARK    5  A    between atoms: C_19  and  C_29
REMARK    6  A    between atoms: C_29  and  S_30
REMARK    7  A    between atoms: S_30  and  C_31
REMARK                            x       y       z     vdW  Elec       q    Type
REMARK                         _______ _______ _______ _____ _____    ______ ____
ROOT
ATOM      1  C   UNL     1       2.042   0.677  -0.014  0.00  0.00    +0.173 A 
ATOM      2  C   UNL     1       1.272   1.805  -0.000  0.00  0.00    +0.089 A 
ATOM      3  N   UNL     1      -0.017   1.398   0.010  0.00  0.00    -0.191 N 
ATOM      4  N   UNL     1       0.002  -0.004   0.002  0.00  0.00    -0.058 NA
ATOM      5  N   UNL     1       1.229  -0.394  -0.012  0.00  0.00    -0.124 NA
ATOM      6  C   UNL     1      -1.151   2.217   0.020  0.00  0.00    +0.240 A 
ATOM      7  C   UNL     1      -2.543   1.756   0.025  0.00  0.00    +0.206 A 
ATOM      8  N   UNL     1      -3.322   2.803   0.035  0.00  0.00    -0.032 NA
ATOM      9  O   UNL     1      -2.499   3.956   0.036  0.00  0.00    -0.239 OA
ATOM     10  N   UNL     1      -1.151   3.520   0.032  0.00  0.00    -0.027 NA
ATOM     11  N   UNL     1      -2.961   0.430   0.019  0.00  0.00    -0.337 N 
ATOM     12  H   UNL     1      -2.305  -0.285   0.011  0.00  0.00    +0.144 HD
ATOM     13  H   UNL     1      -3.908   0.220   0.023  0.00  0.00    +0.144 HD
ENDROOT
BRANCH   1  15
ATOM     14  N   UNL     1       4.161  -0.543  -0.040  0.00  0.00    -0.202 N 
ATOM     15  C   UNL     1       3.516   0.640  -0.028  0.00  0.00    +0.285 C 
ATOM     16  O   UNL     1       4.151   1.678  -0.028  0.00  0.00    -0.267 OA
ATOM     17  H   UNL     1       3.655  -1.371  -0.040  0.00  0.00    +0.178 HD
BRANCH  14  19
ATOM     18  C   UNL     1       6.182  -1.719  -0.065  0.00  0.00    +0.138 C 
ATOM     19  N   UNL     1       5.561  -0.579  -0.053  0.00  0.00    -0.187 NA
BRANCH  18  23
ATOM     20  C   UNL     1      10.427  -1.825  -0.105  0.00  0.00    -0.018 A 
ATOM     21  C   UNL     1       9.700  -3.016  -0.105  0.00  0.00    +0.009 A 
ATOM     22  C   UNL     1       8.324  -2.983  -0.092  0.00  0.00    +0.010 A 
ATOM     23  C   UNL     1       7.655  -1.756  -0.079  0.00  0.00    -0.005 A 
ATOM     24  C   UNL     1       8.385  -0.563  -0.085  0.00  0.00    +0.010 A 
ATOM     25  C   UNL     1       9.761  -0.600  -0.091  0.00  0.00    +0.009 A 
BRANCH  20  29
ATOM     26  C   UNL     1      14.677  -1.932  -0.142  0.00  0.00    +0.000 A 
ATOM     27  C   UNL     1      14.018  -0.716  -0.130  0.00  0.00    +0.001 A 
ATOM     28  C   UNL     1      12.639  -0.675  -0.118  0.00  0.00    +0.008 A 
ATOM     29  C   UNL     1      11.909  -1.863  -0.118  0.00  0.00    -0.018 A 
ATOM     30  C   UNL     1      12.578  -3.086  -0.125  0.00  0.00    +0.008 A 
ATOM     31  C   UNL     1      13.958  -3.114  -0.142  0.00  0.00    +0.001 A 
ENDBRANCH  20  29
ENDBRANCH  18  23
ENDBRANCH  14  19
ENDBRANCH   1  15
BRANCH   2  32
ATOM     32  C   UNL     1       1.764   3.230   0.002  0.00  0.00    +0.132 C 
BRANCH  32  33
ATOM     33  S   UNL     1       1.978   3.793   1.713  0.00  0.00    -0.119 S 
BRANCH  33  34
ATOM     34  C   UNL     1       2.549   5.452   1.547  0.00  0.00    +0.008 A 
ATOM     35  C   UNL     1       2.731   6.003   0.285  0.00  0.00    +0.015 A 
ATOM     36  C   UNL     1       3.173   7.305   0.159  0.00  0.00    +0.001 A 
ATOM     37  C   UNL     1       3.446   8.057   1.288  0.00  0.00    +0.000 A 
ATOM     38  C   UNL     1       3.271   7.509   2.546  0.00  0.00    +0.001 A 
ATOM     39  C   UNL     1       2.823   6.210   2.679  0.00  0.00    +0.015 A 
ENDBRANCH  33  34
ENDBRANCH  32  33
ENDBRANCH   2  32
TORSDOF 7
