REMARK  Name = ZINC39327992
REMARK  16 active torsions:
REMARK  status: ('A' for Active; 'I' for Inactive)
REMARK    1  A    between atoms: C_1  and  C_2
REMARK    2  A    between atoms: C_2  and  C_3
REMARK    3  A    between atoms: C_4  and  C_36
REMARK    4  A    between atoms: C_6  and  C_34
REMARK    5  A    between atoms: C_7  and  S_9
REMARK    6  A    between atoms: S_9  and  C_10
REMARK    7  A    between atoms: C_10  and  C_11
REMARK    8  A    between atoms: C_12  and  C_30
REMARK    9  A    between atoms: C_13  and  C_21
REMARK   10  A    between atoms: C_15  and  C_19
REMARK   11  A    between atoms: C_16  and  N_18
REMARK   12  A    between atoms: C_24  and  C_27
REMARK   13  A    between atoms: C_27  and  C_28
REMARK   14  A    between atoms: C_27  and  C_29
REMARK   15  A    between atoms: C_30  and  O_32
REMARK   16  A    between atoms: O_32  and  C_33
REMARK                            x       y       z     vdW  Elec       q    Type
REMARK                         _______ _______ _______ _____ _____    ______ ____
ROOT
ATOM      1  C   UNL     1       6.294  -1.075  -0.046  0.00  0.00    +0.128 C 
ATOM      2  C   UNL     1       7.100  -0.026  -0.257  0.00  0.00    +0.088 C 
ATOM      3  C   UNL     1       8.596  -0.178  -0.243  0.00  0.00    +0.105 C 
ATOM      4  C   UNL     1       8.973  -1.481   0.410  0.00  0.00    +0.098 C 
ATOM      5  C   UNL     1       8.053  -2.460   0.587  0.00  0.00    +0.198 C 
ATOM      6  O   UNL     1       6.777  -2.304   0.194  0.00  0.00    -0.444 OA
ENDROOT
BRANCH   3   7
ATOM      7  C   UNL     1       9.115  -0.161  -1.658  0.00  0.00    -0.034 A 
ATOM      8  C   UNL     1       8.685  -1.113  -2.563  0.00  0.00    +0.005 A 
ATOM      9  C   UNL     1       9.161  -1.098  -3.861  0.00  0.00    +0.004 A 
ATOM     10  C   UNL     1      10.066  -0.129  -4.253  0.00  0.00    -0.045 A 
ATOM     11  C   UNL     1      10.495   0.824  -3.348  0.00  0.00    +0.004 A 
ATOM     12  C   UNL     1      10.016   0.810  -2.052  0.00  0.00    +0.005 A 
BRANCH  10  13
ATOM     13  C   UNL     1      10.585  -0.113  -5.668  0.00  0.00    +0.013 C 
ATOM     14  C   UNL     1      10.218   1.217  -6.330  0.00  0.00    +0.012 C 
ATOM     15  C   UNL     1      12.107  -0.273  -5.655  0.00  0.00    +0.012 C 
ENDBRANCH  10  13
ENDBRANCH   3   7
BRANCH   5  16
ATOM     16  N   UNL     1       8.432  -3.636   1.185  0.00  0.00    -0.328 N 
ATOM     17  H   UNL     1       9.350  -3.759   1.475  0.00  0.00    +0.145 HD
ATOM     18  H   UNL     1       7.783  -4.344   1.317  0.00  0.00    +0.145 HD
ENDBRANCH   5  16
BRANCH   4  19
ATOM     19  C   UNL     1      10.321  -1.688   0.848  0.00  0.00    +0.101 C 
ATOM     20  N   UNL     1      11.390  -1.853   1.196  0.00  0.00    -0.191 NA
ENDBRANCH   4  19
BRANCH   2  21
ATOM     21  C   UNL     1       6.533   1.249  -0.500  0.00  0.00    +0.339 C 
ATOM     22  O   UNL     1       6.482   2.072   0.394  0.00  0.00    -0.245 OA
BRANCH  21  23
ATOM     23  O   UNL     1       6.048   1.550  -1.722  0.00  0.00    -0.465 OA
ATOM     24  C   UNL     1       5.490   2.854  -1.896  0.00  0.00    +0.280 C 
ENDBRANCH  21  23
ENDBRANCH   2  21
BRANCH   1  25
ATOM     25  C   UNL     1       4.802  -0.868  -0.071  0.00  0.00    +0.150 C 
BRANCH  25  26
ATOM     26  S   UNL     1       4.128  -1.518  -1.625  0.00  0.00    -0.097 S 
BRANCH  26  31
ATOM     27  C   UNL     1       0.623  -0.359  -0.293  0.00  0.00    +0.045 A 
ATOM     28  C   UNL     1      -0.281  -0.704  -1.282  0.00  0.00    -0.028 A 
ATOM     29  C   UNL     1       0.173  -1.326  -2.433  0.00  0.00    +0.026 A 
ATOM     30  C   UNL     1       1.543  -1.585  -2.553  0.00  0.00    +0.084 A 
ATOM     31  C   UNL     1       2.398  -1.205  -1.503  0.00  0.00    +0.115 A 
ATOM     32  N   UNL     1       1.911  -0.608  -0.426  0.00  0.00    -0.244 NA
ATOM     33  C   UNL     1      -1.748  -0.405  -1.109  0.00  0.00    +0.045 C 
BRANCH  27  35
ATOM     34  C   UNL     1       0.141   1.835   0.758  0.00  0.00    +0.010 C 
ATOM     35  C   UNL     1       0.126   0.318   0.958  0.00  0.00    +0.052 C 
ENDBRANCH  27  35
BRANCH  30  36
ATOM     36  C   UNL     1       2.064  -2.227  -3.722  0.00  0.00    +0.102 C 
ATOM     37  N   UNL     1       2.477  -2.736  -4.650  0.00  0.00    -0.191 NA
ENDBRANCH  30  36
ENDBRANCH  26  31
ENDBRANCH  25  26
ENDBRANCH   1  25
TORSDOF 11
