REMARK  Name = ZINC10013317
REMARK  13 active torsions:
REMARK  status: ('A' for Active; 'I' for Inactive)
REMARK    1  A    between atoms: C_1  and  C_2
REMARK    2  A    between atoms: C_2  and  N_74
REMARK    3  A    between atoms: C_3  and  C_4
REMARK    4  A    between atoms: C_3  and  N_74
REMARK    5  A    between atoms: C_4  and  C_5
REMARK    6  A    between atoms: C_5  and  N_6
REMARK    7  A    between atoms: C_7  and  C_9
REMARK    8  A    between atoms: C_10  and  C_30
REMARK    9  A    between atoms: N_16  and  C_19
REMARK   10  A    between atoms: C_19  and  C_20
REMARK   11  A    between atoms: C_27  and  C_29
REMARK   12  A    between atoms: C_31  and  C_32
REMARK   13  A    between atoms: C_31  and  N_74
REMARK                            x       y       z     vdW  Elec       q    Type
REMARK                         _______ _______ _______ _____ _____    ______ ____
ROOT
ATOM      1  C   UNL     1      -7.952   7.770   1.671  0.00  0.00    +0.079 A 
ATOM      2  C   UNL     1      -6.990   6.856   1.991  0.00  0.00    -0.017 A 
ATOM      3  C   UNL     1      -7.312   5.498   2.042  0.00  0.00    +0.076 A 
ATOM      4  C   UNL     1      -8.655   5.172   1.748  0.00  0.00    +0.116 A 
ATOM      5  S   UNL     1      -9.395   6.751   1.419  0.00  0.00    -0.064 S 
ATOM      6  N   UNL     1      -9.090   3.918   1.762  0.00  0.00    -0.230 NA
ATOM      7  C   UNL     1      -8.297   2.922   2.048  0.00  0.00    +0.203 A 
ATOM      8  N   UNL     1      -6.988   3.110   2.347  0.00  0.00    -0.290 N 
ATOM      9  C   UNL     1      -6.444   4.343   2.368  0.00  0.00    +0.263 A 
ATOM     10  O   UNL     1      -5.268   4.502   2.643  0.00  0.00    -0.267 OA
ATOM     11  C   UNL     1      -5.585   7.312   2.288  0.00  0.00    +0.046 C 
ENDROOT
BRANCH   1  13
ATOM     12  N   UNL     1      -8.904   9.970   1.231  0.00  0.00    -0.311 N 
ATOM     13  C   UNL     1      -7.829   9.227   1.562  0.00  0.00    +0.251 C 
ATOM     14  O   UNL     1      -6.758   9.765   1.769  0.00  0.00    -0.270 OA
ATOM     15  H   UNL     1      -9.758   9.542   1.065  0.00  0.00    +0.149 HD
BRANCH  12  16
ATOM     16  C   UNL     1      -8.781  11.426   1.121  0.00  0.00    +0.102 C 
BRANCH  16  17
ATOM     17  C   UNL     1     -10.136  12.024   0.737  0.00  0.00    +0.000 C 
BRANCH  17  18
ATOM     18  C   UNL     1     -10.008  13.545   0.622  0.00  0.00    -0.077 C 
BRANCH  18  19
ATOM     19  N   UNL     1     -11.319  14.105   0.230  0.00  0.00    +0.382 N 
ATOM     20  H   UNL     1     -11.660  13.606  -0.600  0.00  0.00    -0.081 HD
BRANCH  19  22
ATOM     21  C   UNL     1     -13.700  14.170   0.780  0.00  0.00    -0.017 C 
ATOM     22  C   UNL     1     -12.292  13.931   1.328  0.00  0.00    -0.082 C 
ENDBRANCH  19  22
BRANCH  19  23
ATOM     23  C   UNL     1     -11.177  15.539  -0.097  0.00  0.00    -0.043 C 
BRANCH  23  24
ATOM     24  C   UNL     1     -10.569  15.664  -1.470  0.00  0.00    -0.064 A 
ATOM     25  C   UNL     1      -9.209  15.869  -1.607  0.00  0.00    +0.002 A 
ATOM     26  C   UNL     1      -8.650  15.979  -2.867  0.00  0.00    +0.000 A 
ATOM     27  C   UNL     1      -9.452  15.893  -3.989  0.00  0.00    +0.000 A 
ATOM     28  C   UNL     1     -10.813  15.694  -3.852  0.00  0.00    +0.000 A 
ATOM     29  C   UNL     1     -11.371  15.579  -2.592  0.00  0.00    +0.002 A 
ENDBRANCH  23  24
ENDBRANCH  19  23
ENDBRANCH  18  19
ENDBRANCH  17  18
ENDBRANCH  16  17
ENDBRANCH  12  16
ENDBRANCH   1  13
BRANCH   8  30
ATOM     30  C   UNL     1      -6.149   1.951   2.660  0.00  0.00    +0.222 C 
BRANCH  30  31
ATOM     31  C   UNL     1      -5.529   1.423   1.392  0.00  0.00    +0.236 C 
ATOM     32  O   UNL     1      -5.764   1.962   0.332  0.00  0.00    -0.274 OA
ATOM     33  N   UNL     1      -4.713   0.351   1.437  0.00  0.00    -0.297 N 
ATOM     34  C   UNL     1      -4.501  -0.376   2.696  0.00  0.00    +0.108 C 
ATOM     35  C   UNL     1      -4.799  -1.861   2.463  0.00  0.00    +0.019 C 
ATOM     36  C   UNL     1      -3.954  -2.370   1.293  0.00  0.00    +0.003 C 
ATOM     37  C   UNL     1      -4.321  -1.599   0.023  0.00  0.00    +0.022 C 
ATOM     38  C   UNL     1      -4.018  -0.111   0.228  0.00  0.00    +0.073 C 
ATOM     39  C   UNL     1      -4.510   0.684  -0.983  0.00  0.00    +0.028 C 
ENDBRANCH  30  31
ENDBRANCH   8  30
TORSDOF 10
