REMARK  Name = ZINC00931524
REMARK  12 active torsions:
REMARK  status: ('A' for Active; 'I' for Inactive)
REMARK    1  A    between atoms: C_1  and  C_2
REMARK    2  A    between atoms: C_2  and  O_3
REMARK    3  A    between atoms: O_3  and  C_4
REMARK    4  A    between atoms: C_7  and  N_10
REMARK    5  A    between atoms: N_10  and  C_11
REMARK    6  A    between atoms: C_11  and  N_13
REMARK    7  A    between atoms: N_13  and  C_14
REMARK    8  A    between atoms: N_13  and  C_24
REMARK    9  A    between atoms: C_14  and  C_15
REMARK   10  A    between atoms: C_24  and  C_25
REMARK   11  A    between atoms: C_29  and  C_38
REMARK   12  A    between atoms: C_31  and  C_37
REMARK                            x       y       z     vdW  Elec       q    Type
REMARK                         _______ _______ _______ _____ _____    ______ ____
ROOT
ATOM      1  N   UNL     1      -1.546   8.193  -1.269  0.00  0.00    -0.304 N 
ENDROOT
BRANCH   1   2
ATOM      2  C   UNL     1      -0.442   8.457  -1.995  0.00  0.00    +0.138 C 
ATOM      3  S   UNL     1       1.085   8.548  -1.228  0.00  0.00    -0.018 S 
BRANCH   2   4
ATOM      4  N   UNL     1      -0.541   8.650  -3.325  0.00  0.00    -0.297 N 
ATOM      5  H   UNL     1      -1.392   8.519  -3.772  0.00  0.00    +0.154 HD
BRANCH   4   9
ATOM      6  C   UNL     1       2.810   9.809  -5.519  0.00  0.00    +0.121 A 
ATOM      7  C   UNL     1       1.945   8.852  -6.028  0.00  0.00    +0.047 A 
ATOM      8  C   UNL     1       0.835   8.468  -5.302  0.00  0.00    +0.027 A 
ATOM      9  C   UNL     1       0.585   9.039  -4.062  0.00  0.00    +0.033 A 
ATOM     10  C   UNL     1       1.449  10.001  -3.554  0.00  0.00    +0.027 A 
ATOM     11  C   UNL     1       2.562  10.380  -4.279  0.00  0.00    +0.047 A 
BRANCH   6  12
ATOM     12  O   UNL     1       3.903  10.188  -6.234  0.00  0.00    -0.492 OA
BRANCH  12  14
ATOM     13  C   UNL     1       5.918  11.473  -6.593  0.00  0.00    +0.048 C 
ATOM     14  C   UNL     1       4.751  11.178  -5.649  0.00  0.00    +0.225 C 
ENDBRANCH  12  14
ENDBRANCH   6  12
ENDBRANCH   4   9
ENDBRANCH   2   4
ENDBRANCH   1   2
BRANCH   1  15
ATOM     15  C   UNL     1      -2.854   8.115  -1.925  0.00  0.00    +0.142 C 
BRANCH  15  16
ATOM     16  C   UNL     1      -3.494   9.479  -1.935  0.00  0.00    -0.026 A 
ATOM     17  C   UNL     1      -4.307   9.867  -0.886  0.00  0.00    +0.009 A 
ATOM     18  C   UNL     1      -4.891  11.119  -0.887  0.00  0.00    +0.050 A 
ATOM     19  C   UNL     1      -4.673  11.985  -1.946  0.00  0.00    +0.166 A 
ATOM     20  C   UNL     1      -3.857  11.593  -3.005  0.00  0.00    +0.167 A 
ATOM     21  C   UNL     1      -3.270  10.338  -2.994  0.00  0.00    +0.054 A 
ATOM     22  O   UNL     1      -3.801  12.611  -3.913  0.00  0.00    -0.453 OA
ATOM     23  C   UNL     1      -4.912  13.470  -3.597  0.00  0.00    +0.466 C 
ATOM     24  O   UNL     1      -5.126  13.249  -2.190  0.00  0.00    -0.453 OA
ENDBRANCH  15  16
ENDBRANCH   1  15
BRANCH   1  25
ATOM     25  C   UNL     1      -1.439   7.983   0.177  0.00  0.00    +0.147 C 
BRANCH  25  26
ATOM     26  C   UNL     1      -1.211   6.520   0.457  0.00  0.00    +0.035 A 
ATOM     27  C   UNL     1       0.051   6.053   0.623  0.00  0.00    +0.020 A 
ATOM     28  C   UNL     1       0.238   4.626   0.893  0.00  0.00    -0.001 A 
ATOM     29  C   UNL     1       1.516   4.085   1.072  0.00  0.00    +0.013 A 
ATOM     30  C   UNL     1       1.657   2.750   1.323  0.00  0.00    -0.050 A 
ATOM     31  C   UNL     1       0.544   1.924   1.402  0.00  0.00    +0.008 A 
ATOM     32  C   UNL     1      -0.724   2.434   1.224  0.00  0.00    -0.026 A 
ATOM     33  C   UNL     1      -0.893   3.792   0.973  0.00  0.00    +0.052 A 
ATOM     34  N   UNL     1      -2.150   4.330   0.795  0.00  0.00    -0.322 N 
ATOM     35  H   UNL     1      -2.928   3.754   0.851  0.00  0.00    +0.169 HD
ATOM     36  C   UNL     1      -2.312   5.641   0.547  0.00  0.00    +0.254 A 
ATOM     37  O   UNL     1      -3.438   6.082   0.396  0.00  0.00    -0.268 OA
ATOM     38  C   UNL     1      -1.923   1.525   1.306  0.00  0.00    +0.046 C 
ATOM     39  C   UNL     1       3.034   2.168   1.516  0.00  0.00    +0.044 C 
ENDBRANCH  25  26
ENDBRANCH   1  25
TORSDOF 9
