REMARK  Name = ZINC06409156
REMARK  12 active torsions:
REMARK  status: ('A' for Active; 'I' for Inactive)
REMARK    1  A    between atoms: C_1  and  C_2
REMARK    2  A    between atoms: C_9  and  C_14
REMARK    3  A    between atoms: C_14  and  C_16
REMARK    4  A    between atoms: C_14  and  N_64
REMARK    5  A    between atoms: N_20  and  C_21
REMARK    6  A    between atoms: C_21  and  C_22
REMARK    7  A    between atoms: C_22  and  O_23
REMARK    8  A    between atoms: O_23  and  C_24
REMARK    9  A    between atoms: C_25  and  C_26
REMARK   10  A    between atoms: C_25  and  N_64
REMARK   11  A    between atoms: C_33  and  C_34
REMARK   12  A    between atoms: C_33  and  N_64
REMARK                            x       y       z     vdW  Elec       q    Type
REMARK                         _______ _______ _______ _____ _____    ______ ____
ROOT
ATOM      1  C   UNL     1       1.731   3.624   2.758  0.00  0.00    +0.040 C 
ENDROOT
BRANCH   1  10
ATOM      2  C   UNL     1      -5.516   5.305   3.279  0.00  0.00    +0.044 C 
ATOM      3  C   UNL     1      -4.086   5.715   3.038  0.00  0.00    -0.050 A 
ATOM      4  C   UNL     1      -3.788   7.041   2.756  0.00  0.00    +0.005 A 
ATOM      5  C   UNL     1      -2.488   7.438   2.531  0.00  0.00    +0.026 A 
ATOM      6  C   UNL     1      -1.461   6.501   2.588  0.00  0.00    +0.049 A 
ATOM      7  C   UNL     1      -1.767   5.157   2.874  0.00  0.00    -0.001 A 
ATOM      8  C   UNL     1      -3.094   4.778   3.099  0.00  0.00    +0.013 A 
ATOM      9  C   UNL     1      -0.679   4.179   2.932  0.00  0.00    +0.017 A 
ATOM     10  C   UNL     1       0.588   4.606   2.707  0.00  0.00    +0.011 A 
ATOM     11  C   UNL     1       0.842   5.966   2.429  0.00  0.00    +0.251 A 
ATOM     12  O   UNL     1       1.989   6.329   2.234  0.00  0.00    -0.268 OA
ATOM     13  N   UNL     1      -0.151   6.871   2.369  0.00  0.00    -0.322 N 
ATOM     14  H   UNL     1       0.058   7.797   2.172  0.00  0.00    +0.169 HD
ENDBRANCH   1  10
BRANCH   1  15
ATOM     15  C   UNL     1       2.699   4.037   3.837  0.00  0.00    +0.143 A 
ATOM     16  N   UNL     1       3.500   5.074   3.815  0.00  0.00    -0.115 NA
ATOM     17  N   UNL     1       4.165   5.087   4.918  0.00  0.00    -0.023 NA
ATOM     18  N   UNL     1       3.815   4.080   5.640  0.00  0.00    -0.044 NA
ATOM     19  N   UNL     1       2.913   3.408   5.008  0.00  0.00    -0.228 N 
BRANCH  19  20
ATOM     20  C   UNL     1       2.247   2.190   5.476  0.00  0.00    +0.175 C 
BRANCH  20  21
ATOM     21  C   UNL     1       3.106   0.973   5.127  0.00  0.00    +0.183 C 
BRANCH  21  22
ATOM     22  O   UNL     1       2.420  -0.220   5.512  0.00  0.00    -0.381 OA
ATOM     23  C   UNL     1       3.140  -1.421   5.228  0.00  0.00    +0.194 C 
ENDBRANCH  21  22
ENDBRANCH  20  21
ENDBRANCH  19  20
ENDBRANCH   1  15
BRANCH   1  24
ATOM     24  N   UNL     1       2.433   3.634   1.457  0.00  0.00    +0.397 N 
ATOM     25  H   UNL     1       2.840   4.564   1.305  0.00  0.00    -0.079 HD
BRANCH  24  26
ATOM     26  C   UNL     1       1.478   3.342   0.367  0.00  0.00    -0.039 C 
BRANCH  26  27
ATOM     27  C   UNL     1       0.818   4.631  -0.050  0.00  0.00    -0.046 A 
ATOM     28  C   UNL     1      -0.553   4.774   0.064  0.00  0.00    +0.003 A 
ATOM     29  C   UNL     1      -1.159   5.957  -0.315  0.00  0.00    +0.000 A 
ATOM     30  C   UNL     1      -0.396   6.995  -0.817  0.00  0.00    +0.001 A 
ATOM     31  C   UNL     1       0.974   6.852  -0.936  0.00  0.00    +0.020 A 
ATOM     32  C   UNL     1       1.581   5.669  -0.553  0.00  0.00    +0.042 A 
ATOM     33 CL   UNL     1       3.301   5.488  -0.703  0.00  0.00    -0.083 Cl
ENDBRANCH  26  27
ENDBRANCH  24  26
BRANCH  24  34
ATOM     34  C   UNL     1       3.517   2.629   1.461  0.00  0.00    -0.001 C 
BRANCH  34  35
ATOM     35  C   UNL     1       4.743   3.248   2.082  0.00  0.00    +0.089 A 
ATOM     36  C   UNL     1       5.144   3.091   3.356  0.00  0.00    +0.042 A 
ATOM     37  C   UNL     1       6.333   3.842   3.506  0.00  0.00    +0.041 A 
ATOM     38  C   UNL     1       6.587   4.413   2.315  0.00  0.00    +0.195 A 
ATOM     39  O   UNL     1       5.621   4.049   1.456  0.00  0.00    -0.470 OA
ENDBRANCH  34  35
ENDBRANCH  24  34
ENDBRANCH   1  24
TORSDOF 10
