REMARK  Name = ZINC63662076
REMARK  9 active torsions:
REMARK  status: ('A' for Active; 'I' for Inactive)
REMARK    1  A    between atoms: C_1  and  C_2
REMARK    2  A    between atoms: C_2  and  C_3
REMARK    3  A    between atoms: C_3  and  C_4
REMARK    4  A    between atoms: C_4  and  C_5
REMARK    5  A    between atoms: C_4  and  N_23
REMARK    6  A    between atoms: C_15  and  C_22
REMARK    7  A    between atoms: C_17  and  C_19
REMARK    8  A    between atoms: C_19  and  C_20
REMARK    9  A    between atoms: C_19  and  C_21
REMARK                            x       y       z     vdW  Elec       q    Type
REMARK                         _______ _______ _______ _____ _____    ______ ____
ROOT
ATOM      1  C   UNL     1       1.507  -2.574  -2.676  0.00  0.00    +0.236 C 
ATOM      2  O   UNL     1       2.705  -2.749  -2.748  0.00  0.00    -0.274 OA
ATOM      3  N   UNL     1       0.752  -2.612  -3.792  0.00  0.00    -0.297 N 
ATOM      4  C   UNL     1      -0.700  -2.395  -3.721  0.00  0.00    +0.127 C 
ATOM      5  C   UNL     1      -1.072  -1.250  -4.670  0.00  0.00    +0.125 C 
ATOM      6  N   UNL     1      -0.458  -1.508  -5.981  0.00  0.00    -0.312 N 
ATOM      7  C   UNL     1       0.994  -1.724  -6.052  0.00  0.00    +0.125 C 
ATOM      8  C   UNL     1       1.367  -2.864  -5.103  0.00  0.00    +0.127 C 
ATOM      9  C   UNL     1      -1.234  -1.546  -7.128  0.00  0.00    +0.125 A 
ATOM     10  C   UNL     1      -2.567  -1.131  -7.097  0.00  0.00    +0.066 A 
ATOM     11  C   UNL     1      -3.298  -1.189  -8.266  0.00  0.00    +0.044 A 
ATOM     12  N   UNL     1      -2.716  -1.633  -9.372  0.00  0.00    -0.237 NA
ATOM     13  C   UNL     1      -1.456  -2.017  -9.368  0.00  0.00    +0.134 A 
ATOM     14  N   UNL     1      -0.719  -1.974  -8.277  0.00  0.00    -0.217 NA
ATOM     15  C   UNL     1      -4.741  -0.753  -8.286  0.00  0.00    +0.066 C 
ENDROOT
BRANCH  13  16
ATOM     16  C   UNL     1      -0.839  -2.514 -10.650  0.00  0.00    +0.051 C 
ATOM     17  C   UNL     1      -1.611  -3.739 -11.146  0.00  0.00    +0.015 C 
ATOM     18  C   UNL     1      -0.899  -1.410 -11.707  0.00  0.00    +0.015 C 
ENDBRANCH  13  16
BRANCH   1  19
ATOM     19  C   UNL     1       0.863  -2.314  -1.339  0.00  0.00    +0.160 C 
BRANCH  19  20
ATOM     20  N   UNL     1       1.749  -2.782  -0.271  0.00  0.00    -0.288 N 
ATOM     21  C   UNL     1       2.985  -2.259  -0.144  0.00  0.00    +0.298 C 
ATOM     22  O   UNL     1       3.364  -1.400  -0.916  0.00  0.00    -0.253 OA
ATOM     23  N   UNL     1       3.801  -2.689   0.839  0.00  0.00    -0.313 N 
ATOM     24  H   UNL     1       1.447  -3.467   0.345  0.00  0.00    +0.151 HD
ATOM     25  H   UNL     1       3.498  -3.375   1.455  0.00  0.00    +0.146 HD
ATOM     26  H   UNL     1       4.690  -2.313   0.931  0.00  0.00    +0.146 HD
ENDBRANCH  19  20
BRANCH  19  27
ATOM     27  C   UNL     1       0.614  -0.813  -1.176  0.00  0.00    +0.031 C 
BRANCH  27  29
ATOM     28  C   UNL     1      -0.400   0.939   0.288  0.00  0.00    +0.004 C 
ATOM     29  C   UNL     1      -0.152  -0.562   0.125  0.00  0.00    -0.001 C 
ENDBRANCH  27  29
ENDBRANCH  19  27
ENDBRANCH   1  19
TORSDOF 5
