REMARK  Name = ZINC38903841
REMARK  12 active torsions:
REMARK  status: ('A' for Active; 'I' for Inactive)
REMARK    1  A    between atoms: C_1  and  C_2
REMARK    2  A    between atoms: N_7  and  C_9
REMARK    3  A    between atoms: C_12  and  C_15
REMARK    4  A    between atoms: C_15  and  N_16
REMARK    5  A    between atoms: C_17  and  C_19
REMARK    6  A    between atoms: N_24  and  C_26
REMARK    7  A    between atoms: C_26  and  C_27
REMARK    8  A    between atoms: C_29  and  C_32
REMARK    9  A    between atoms: C_35  and  C_38
REMARK   10  A    between atoms: C_38  and  C_39
REMARK   11  A    between atoms: C_38  and  C_40
REMARK   12  A    between atoms: C_38  and  C_41
REMARK                            x       y       z     vdW  Elec       q    Type
REMARK                         _______ _______ _______ _____ _____    ______ ____
ROOT
ATOM      1  C   UNL     1       7.121  -6.179   4.950  0.00  0.00    +0.058 C 
ATOM      2  C   UNL     1       7.400  -4.794   5.540  0.00  0.00    +0.009 C 
ATOM      3  C   UNL     1       7.859  -4.950   6.992  0.00  0.00    -0.018 C 
ATOM      4  C   UNL     1       9.089  -5.859   7.038  0.00  0.00    -0.078 C 
ATOM      5  N   UNL     1       8.751  -7.176   6.485  0.00  0.00    +0.386 N 
ATOM      6  C   UNL     1       8.379  -7.043   5.072  0.00  0.00    -0.065 C 
ATOM      7  H   UNL     1       7.976  -7.566   7.000  0.00  0.00    -0.081 HD
ENDROOT
BRANCH   1   9
ATOM      8  N   UNL     1       5.662  -5.318   3.149  0.00  0.00    -0.311 N 
ATOM      9  C   UNL     1       6.744  -6.042   3.498  0.00  0.00    +0.215 C 
ATOM     10  O   UNL     1       7.413  -6.583   2.643  0.00  0.00    -0.276 OA
ATOM     11  H   UNL     1       5.126  -4.885   3.832  0.00  0.00    +0.149 HD
BRANCH   8  12
ATOM     12  C   UNL     1       5.295  -5.184   1.737  0.00  0.00    +0.139 C 
BRANCH  12  16
ATOM     13  C   UNL     1       1.786  -2.767   1.399  0.00  0.00    +0.030 A 
ATOM     14  C   UNL     1       3.043  -2.177   1.369  0.00  0.00    +0.023 A 
ATOM     15  C   UNL     1       4.175  -2.961   1.479  0.00  0.00    +0.007 A 
ATOM     16  C   UNL     1       4.057  -4.332   1.618  0.00  0.00    -0.030 A 
ATOM     17  C   UNL     1       2.807  -4.923   1.648  0.00  0.00    +0.007 A 
ATOM     18  C   UNL     1       1.671  -4.144   1.545  0.00  0.00    +0.023 A 
BRANCH  13  24
ATOM     19  C   UNL     1      -0.013   1.539   0.045  0.00  0.00    +0.009 C 
ATOM     20  C   UNL     1       0.010   0.010   0.019  0.00  0.00    +0.003 C 
ATOM     21  C   UNL     1      -1.425  -0.522   0.015  0.00  0.00    +0.006 C 
ATOM     22  C   UNL     1      -1.404  -2.052  -0.044  0.00  0.00    +0.019 C 
ATOM     23  C   UNL     1      -0.690  -2.596   1.198  0.00  0.00    +0.105 C 
ATOM     24  N   UNL     1       0.639  -1.977   1.288  0.00  0.00    -0.330 N 
ATOM     25  C   UNL     1       0.740  -0.512   1.261  0.00  0.00    +0.108 C 
ENDBRANCH  13  24
ENDBRANCH  12  16
ENDBRANCH   8  12
ENDBRANCH   1   9
BRANCH   5  26
ATOM     26  C   UNL     1       9.913  -8.067   6.603  0.00  0.00    +0.022 C 
BRANCH  26  27
ATOM     27  C   UNL     1      10.214  -8.311   8.059  0.00  0.00    +0.211 A 
ATOM     28  N   UNL     1       9.727  -9.276   8.786  0.00  0.00    -0.193 NA
ATOM     29  C   UNL     1      10.207  -9.195  10.040  0.00  0.00    +0.202 A 
ATOM     30  N   UNL     1      11.012  -8.164  10.114  0.00  0.00    -0.056 NA
ATOM     31  O   UNL     1      11.032  -7.575   8.822  0.00  0.00    -0.340 OA
BRANCH  29  32
ATOM     32  C   UNL     1       9.879 -10.119  11.154  0.00  0.00    +0.022 A 
ATOM     33  C   UNL     1       9.008 -11.186  10.944  0.00  0.00    +0.012 A 
ATOM     34  C   UNL     1       8.706 -12.042  11.983  0.00  0.00    +0.005 A 
ATOM     35  C   UNL     1       9.266 -11.843  13.232  0.00  0.00    -0.042 A 
ATOM     36  C   UNL     1      10.131 -10.785  13.446  0.00  0.00    +0.005 A 
ATOM     37  C   UNL     1      10.445  -9.926  12.412  0.00  0.00    +0.012 A 
BRANCH  35  38
ATOM     38  C   UNL     1       8.932 -12.780  14.363  0.00  0.00    -0.013 C 
ATOM     39  C   UNL     1       9.356 -14.202  13.989  0.00  0.00    +0.015 C 
ATOM     40  C   UNL     1       9.676 -12.342  15.626  0.00  0.00    +0.015 C 
ATOM     41  C   UNL     1       7.424 -12.749  14.623  0.00  0.00    +0.015 C 
ENDBRANCH  35  38
ENDBRANCH  29  32
ENDBRANCH  26  27
ENDBRANCH   5  26
TORSDOF 8
