REMARK  Name = ZINC46658952
REMARK  7 active torsions:
REMARK  status: ('A' for Active; 'I' for Inactive)
REMARK    1  A    between atoms: C_1  and  C_2
REMARK    2  A    between atoms: C_2  and  C_3
REMARK    3  A    between atoms: C_2  and  C_4
REMARK    4  A    between atoms: C_5  and  C_15
REMARK    5  A    between atoms: N_17  and  N_18
REMARK    6  A    between atoms: C_19  and  C_21
REMARK    7  A    between atoms: C_21  and  C_22
REMARK                            x       y       z     vdW  Elec       q    Type
REMARK                         _______ _______ _______ _____ _____    ______ ____
ROOT
ATOM      1  C   UNL     1      -2.083   0.921   2.288  0.00  0.00    +0.263 C 
ATOM      2  O   UNL     1      -0.975   1.405   2.414  0.00  0.00    -0.269 OA
ATOM      3  N   UNL     1      -3.080   1.296   3.113  0.00  0.00    -0.230 N 
ATOM      4  H   UNL     1      -3.965   0.910   3.013  0.00  0.00    +0.173 HD
ENDROOT
BRANCH   1   6
ATOM      5  C   UNL     1      -1.442  -0.492   0.267  0.00  0.00    +0.061 A 
ATOM      6  C   UNL     1      -2.337  -0.076   1.232  0.00  0.00    +0.079 A 
ATOM      7  C   UNL     1      -3.541  -0.784   1.018  0.00  0.00    +0.148 A 
ATOM      8  N   UNL     1      -3.371  -1.571  -0.008  0.00  0.00    -0.172 NA
ATOM      9  N   UNL     1      -2.071  -1.403  -0.499  0.00  0.00    -0.218 N 
ATOM     10  C   UNL     1      -1.519  -2.071  -1.595  0.00  0.00    +0.154 A 
ATOM     11  C   UNL     1      -2.030  -3.306  -1.978  0.00  0.00    +0.048 A 
ATOM     12  C   UNL     1      -1.474  -3.956  -3.066  0.00  0.00    +0.005 A 
ATOM     13  C   UNL     1      -0.421  -3.347  -3.735  0.00  0.00    +0.020 A 
ATOM     14  C   UNL     1       0.036  -2.119  -3.299  0.00  0.00    +0.113 A 
ATOM     15  N   UNL     1      -0.518  -1.520  -2.262  0.00  0.00    -0.236 NA
BRANCH   5  17
ATOM     16  C   UNL     1      -0.021   1.503  -0.119  0.00  0.00    +0.014 C 
ATOM     17  C   UNL     1      -0.024  -0.011   0.098  0.00  0.00    +0.032 C 
ATOM     18  C   UNL     1       0.782  -0.348   1.354  0.00  0.00    +0.014 C 
ENDBRANCH   5  17
ENDBRANCH   1   6
BRANCH   3  19
ATOM     19  N   UNL     1      -2.840   2.244   4.117  0.00  0.00    -0.234 N 
ATOM     20  C   UNL     1      -3.837   2.619   4.943  0.00  0.00    +0.230 C 
ATOM     21  O   UNL     1      -4.942   2.136   4.817  0.00  0.00    -0.274 OA
ATOM     22  H   UNL     1      -1.956   2.630   4.218  0.00  0.00    +0.173 HD
BRANCH  20  23
ATOM     23  C   UNL     1      -3.578   3.638   6.022  0.00  0.00    +0.104 C 
BRANCH  23  24
ATOM     24  C   UNL     1      -4.866   3.883   6.811  0.00  0.00    -0.020 C 
ATOM     25  C   UNL     1      -5.951   4.404   5.867  0.00  0.00    +0.011 C 
ATOM     26  C   UNL     1      -7.239   4.649   6.657  0.00  0.00    -0.010 C 
ATOM     27  C   UNL     1      -6.976   5.684   7.753  0.00  0.00    +0.007 C 
ATOM     28  C   UNL     1      -5.891   5.163   8.697  0.00  0.00    -0.010 C 
ATOM     29  C   UNL     1      -4.603   4.918   7.907  0.00  0.00    +0.011 C 
ATOM     30  C   UNL     1      -6.356   3.852   9.334  0.00  0.00    +0.007 C 
ATOM     31  C   UNL     1      -6.618   2.817   8.238  0.00  0.00    -0.010 C 
ATOM     32  C   UNL     1      -7.704   3.338   7.294  0.00  0.00    +0.007 C 
ATOM     33  C   UNL     1      -5.331   2.572   7.449  0.00  0.00    +0.011 C 
ENDBRANCH  23  24
ENDBRANCH  20  23
ENDBRANCH   3  19
TORSDOF 5
