REMARK  Name = ZINC34980141
REMARK  9 active torsions:
REMARK  status: ('A' for Active; 'I' for Inactive)
REMARK    1  A    between atoms: C_1  and  C_2
REMARK    2  A    between atoms: C_2  and  C_3
REMARK    3  A    between atoms: C_3  and  C_5
REMARK    4  A    between atoms: C_3  and  C_6
REMARK    5  A    between atoms: C_6  and  C_8
REMARK    6  A    between atoms: C_6  and  N_26
REMARK    7  A    between atoms: C_14  and  C_17
REMARK    8  A    between atoms: C_18  and  C_20
REMARK    9  A    between atoms: N_29  and  C_30
REMARK                            x       y       z     vdW  Elec       q    Type
REMARK                         _______ _______ _______ _____ _____    ______ ____
ROOT
ATOM      1  C   UNL     1      -1.988   0.423  -2.362  0.00  0.00    +0.163 C 
ENDROOT
BRANCH   1   2
ATOM      2  C   UNL     1      -1.796   1.900  -2.130  0.00  0.00    +0.236 C 
ATOM      3  O   UNL     1      -2.749   2.649  -2.172  0.00  0.00    -0.274 OA
ATOM      4  N   UNL     1      -0.566   2.388  -1.874  0.00  0.00    -0.297 N 
ATOM      5  C   UNL     1       0.613   1.513  -1.935  0.00  0.00    +0.127 C 
ATOM      6  C   UNL     1       1.356   1.599  -0.596  0.00  0.00    +0.127 C 
ATOM      7  N   UNL     1       1.542   3.015  -0.252  0.00  0.00    -0.295 N 
ATOM      8  C   UNL     1       0.363   3.890  -0.191  0.00  0.00    +0.090 C 
ATOM      9  C   UNL     1      -0.379   3.806  -1.535  0.00  0.00    +0.130 C 
ATOM     10  C   UNL     1      -0.558   3.433   0.942  0.00  0.00    +0.029 C 
ATOM     11  C   UNL     1       2.772   3.503   0.004  0.00  0.00    +0.219 C 
ATOM     12  O   UNL     1       2.904   4.646   0.387  0.00  0.00    -0.275 OA
BRANCH  11  13
ATOM     13  C   UNL     1       3.985   2.628  -0.186  0.00  0.00    +0.075 C 
ATOM     14  C   UNL     1       3.978   1.513   0.861  0.00  0.00    +0.013 C 
ATOM     15  C   UNL     1       5.209   0.625   0.668  0.00  0.00    +0.001 C 
ATOM     16  C   UNL     1       6.476   1.468   0.827  0.00  0.00    +0.000 C 
ATOM     17  C   UNL     1       6.482   2.583  -0.220  0.00  0.00    +0.001 C 
ATOM     18  C   UNL     1       5.252   3.471  -0.027  0.00  0.00    +0.013 C 
ENDBRANCH  11  13
ENDBRANCH   1   2
BRANCH   1  19
ATOM     19  N   UNL     1      -3.289   0.193  -2.994  0.00  0.00    -0.288 N 
ATOM     20  C   UNL     1      -3.490  -0.910  -3.742  0.00  0.00    +0.300 C 
ATOM     21  O   UNL     1      -2.591  -1.714  -3.892  0.00  0.00    -0.253 OA
ATOM     22  N   UNL     1      -4.688  -1.121  -4.323  0.00  0.00    -0.297 N 
ATOM     23  H   UNL     1      -4.007   0.835  -2.874  0.00  0.00    +0.151 HD
ATOM     24  H   UNL     1      -5.405  -0.480  -4.203  0.00  0.00    +0.151 HD
BRANCH  22  25
ATOM     25  C   UNL     1      -4.906  -2.321  -5.136  0.00  0.00    +0.074 C 
ATOM     26  C   UNL     1      -4.422  -2.063  -6.564  0.00  0.00    +0.022 C 
ATOM     27  C   UNL     1      -4.650  -3.316  -7.413  0.00  0.00    +0.002 C 
ATOM     28  C   UNL     1      -6.142  -3.654  -7.432  0.00  0.00    +0.000 C 
ATOM     29  C   UNL     1      -6.625  -3.912  -6.004  0.00  0.00    +0.002 C 
ATOM     30  C   UNL     1      -6.398  -2.659  -5.155  0.00  0.00    +0.022 C 
ENDBRANCH  22  25
ENDBRANCH   1  19
BRANCH   1  31
ATOM     31  C   UNL     1      -1.933  -0.315  -1.024  0.00  0.00    +0.015 C 
ATOM     32  C   UNL     1      -3.130   0.097  -0.164  0.00  0.00    +0.010 C 
BRANCH  31  34
ATOM     33  C   UNL     1      -0.709  -2.259  -2.008  0.00  0.00    +0.004 C 
ATOM     34  C   UNL     1      -1.978  -1.824  -1.272  0.00  0.00    +0.002 C 
ENDBRANCH  31  34
ENDBRANCH   1  31
TORSDOF 6
