REMARK  Name = ZINC11858175
REMARK  7 active torsions:
REMARK  status: ('A' for Active; 'I' for Inactive)
REMARK    1  A    between atoms: C_1  and  C_2
REMARK    2  A    between atoms: C_5  and  N_9
REMARK    3  A    between atoms: C_6  and  C_8
REMARK    4  A    between atoms: N_9  and  S_10
REMARK    5  A    between atoms: S_10  and  C_13
REMARK    6  A    between atoms: C_16  and  N_19
REMARK    7  A    between atoms: C_22  and  C_28
REMARK                            x       y       z     vdW  Elec       q    Type
REMARK                         _______ _______ _______ _____ _____    ______ ____
ROOT
ATOM      1  C   UNL     1       2.361  -2.663   2.421  0.00  0.00    +0.109 A 
ATOM      2  C   UNL     1       2.988  -1.591   3.030  0.00  0.00    +0.030 A 
ATOM      3  C   UNL     1       2.877  -1.409   4.394  0.00  0.00    +0.027 A 
ATOM      4  C   UNL     1       2.144  -2.309   5.157  0.00  0.00    +0.059 A 
ATOM      5  C   UNL     1       1.521  -3.388   4.543  0.00  0.00    +0.027 A 
ATOM      6  C   UNL     1       1.631  -3.562   3.178  0.00  0.00    +0.030 A 
ENDROOT
BRANCH   4   7
ATOM      7  N   UNL     1       2.034  -2.130   6.540  0.00  0.00    -0.144 N 
ATOM      8  C   UNL     1       1.037  -2.579   7.317  0.00  0.00    +0.243 C 
ATOM      9  O   UNL     1       0.131  -3.233   6.847  0.00  0.00    -0.273 OA
ATOM     10  C   UNL     1       1.072  -2.259   8.781  0.00  0.00    +0.097 C 
ATOM     11  C   UNL     1       2.519  -1.855   9.168  0.00  0.00    +0.201 C 
ATOM     12  S   UNL     1       3.119  -1.310   7.517  0.00  0.00    +0.053 S 
ATOM     13  O   UNL     1       4.394  -1.869   7.230  0.00  0.00    -0.155 OA
ATOM     14  O   UNL     1       2.855   0.071   7.310  0.00  0.00    -0.155 OA
ATOM     15  C   UNL     1       0.119  -1.098   9.071  0.00  0.00    +0.019 C 
ENDBRANCH   4   7
BRANCH   1  16
ATOM     16  S   UNL     1       2.499  -2.889   0.679  0.00  0.00    +0.072 S 
ATOM     17  O   UNL     1       2.282  -4.271   0.430  0.00  0.00    -0.150 OA
ATOM     18  O   UNL     1       3.687  -2.220   0.276  0.00  0.00    -0.150 OA
BRANCH  16  19
ATOM     19  N   UNL     1       1.238  -2.077  -0.021  0.00  0.00    -0.216 N 
ATOM     20  H   UNL     1       0.587  -2.559  -0.556  0.00  0.00    +0.174 HD
BRANCH  19  25
ATOM     21  C   UNL     1       0.718   3.523   0.701  0.00  0.00    +0.044 C 
ATOM     22  C   UNL     1       0.856   2.035   0.509  0.00  0.00    -0.050 A 
ATOM     23  C   UNL     1       2.112   1.467   0.401  0.00  0.00    +0.005 A 
ATOM     24  C   UNL     1       2.242   0.104   0.225  0.00  0.00    +0.025 A 
ATOM     25  C   UNL     1       1.109  -0.698   0.157  0.00  0.00    +0.051 A 
ATOM     26  C   UNL     1      -0.151  -0.124   0.266  0.00  0.00    -0.028 A 
ATOM     27  C   UNL     1      -0.274   1.240   0.442  0.00  0.00    +0.008 A 
ATOM     28  C   UNL     1      -1.382  -0.989   0.193  0.00  0.00    +0.046 C 
ENDBRANCH  19  25
ENDBRANCH  16  19
ENDBRANCH   1  16
TORSDOF 4
