REMARK  Name = ZINC66952543
REMARK  5 active torsions:
REMARK  status: ('A' for Active; 'I' for Inactive)
REMARK    1  A    between atoms: C_10  and  C_11
REMARK    2  A    between atoms: C_10  and  O_28
REMARK    3  A    between atoms: C_11  and  N_12
REMARK    4  A    between atoms: N_15  and  C_16
REMARK    5  A    between atoms: C_18  and  C_24
REMARK                            x       y       z     vdW  Elec       q    Type
REMARK                         _______ _______ _______ _____ _____    ______ ____
ROOT
ATOM      1  N   UNL     1       4.747   1.474  -0.614  0.00  0.00    -0.296 N 
ATOM      2  C   UNL     1       5.427   2.341  -1.390  0.00  0.00    +0.304 C 
ATOM      3  O   UNL     1       5.996   1.946  -2.389  0.00  0.00    -0.253 OA
ATOM      4  N   UNL     1       5.475   3.647  -1.058  0.00  0.00    -0.265 N 
ATOM      5  H   UNL     1       4.293   1.789   0.183  0.00  0.00    +0.150 HD
ATOM      6  H   UNL     1       5.079   3.951  -0.226  0.00  0.00    +0.157 HD
ENDROOT
BRANCH   4   7
ATOM      7  C   UNL     1       6.098   4.565  -1.915  0.00  0.00    +0.100 A 
ATOM      8  C   UNL     1       5.393   5.616  -2.434  0.00  0.00    +0.042 A 
ATOM      9  C   UNL     1       6.040   6.520  -3.288  0.00  0.00    +0.073 A 
ATOM     10  C   UNL     1       7.347   6.348  -3.591  0.00  0.00    +0.098 A 
ATOM     11  N   UNL     1       8.050   5.304  -3.076  0.00  0.00    -0.327 N 
ATOM     12  H   UNL     1       8.987   5.198  -3.305  0.00  0.00    +0.168 HD
ATOM     13  C   UNL     1       7.463   4.420  -2.248  0.00  0.00    +0.270 A 
ATOM     14  O   UNL     1       8.108   3.491  -1.789  0.00  0.00    -0.266 OA
BRANCH   9  15
ATOM     15  C   UNL     1       5.279   7.683  -3.870  0.00  0.00    +0.419 C 
ATOM     16  F   UNL     1       6.131   8.438  -4.684  0.00  0.00    -0.166 F 
ATOM     17  F   UNL     1       4.208   7.205  -4.633  0.00  0.00    -0.166 F 
ATOM     18  F   UNL     1       4.792   8.487  -2.834  0.00  0.00    -0.166 F 
ENDBRANCH   9  15
ENDBRANCH   4   7
BRANCH   1  19
ATOM     19  C   UNL     1       4.695   0.055  -0.974  0.00  0.00    +0.145 C 
BRANCH  19  29
ATOM     20  C   UNL     1       3.616  -4.792  -1.186  0.00  0.00    +0.000 A 
ATOM     21  C   UNL     1       3.591  -3.782  -2.131  0.00  0.00    +0.000 A 
ATOM     22  C   UNL     1       3.642  -2.465  -1.727  0.00  0.00    +0.007 A 
ATOM     23  C   UNL     1       3.722  -2.142  -0.378  0.00  0.00    -0.011 A 
ATOM     24  C   UNL     1       3.752  -3.147   0.562  0.00  0.00    -0.041 A 
ATOM     25  C   UNL     1       3.696  -4.474   0.154  0.00  0.00    +0.004 A 
ATOM     26  C   UNL     1       3.853  -2.873   2.040  0.00  0.00    +0.035 C 
ATOM     27  C   UNL     1       3.475  -1.424   2.344  0.00  0.00    +0.008 C 
ATOM     28  C   UNL     1       4.285  -0.508   1.420  0.00  0.00    +0.041 C 
ATOM     29  C   UNL     1       3.767  -0.683  -0.007  0.00  0.00    +0.107 C 
BRANCH  29  30
ATOM     30  O   UNL     1       2.453  -0.131  -0.102  0.00  0.00    -0.382 OA
ATOM     31  H   UNL     1       2.064  -0.191  -0.985  0.00  0.00    +0.211 HD
ENDBRANCH  29  30
ENDBRANCH  19  29
ENDBRANCH   1  19
TORSDOF 5
