REMARK  Name = ZINC63590572
REMARK  7 active torsions:
REMARK  status: ('A' for Active; 'I' for Inactive)
REMARK    1  A    between atoms: C_1  and  C_2
REMARK    2  A    between atoms: C_2  and  C_3
REMARK    3  A    between atoms: C_3  and  C_4
REMARK    4  A    between atoms: C_4  and  C_5
REMARK    5  A    between atoms: C_4  and  N_23
REMARK    6  A    between atoms: N_10  and  S_13
REMARK    7  A    between atoms: S_13  and  C_16
REMARK                            x       y       z     vdW  Elec       q    Type
REMARK                         _______ _______ _______ _____ _____    ______ ____
ROOT
ATOM      1  C   UNL     1       1.334  -2.514  -2.561  0.00  0.00    +0.236 C 
ATOM      2  O   UNL     1       2.492  -2.873  -2.600  0.00  0.00    -0.274 OA
ATOM      3  N   UNL     1       0.579  -2.552  -3.677  0.00  0.00    -0.297 N 
ATOM      4  C   UNL     1      -0.824  -2.115  -3.646  0.00  0.00    +0.125 C 
ATOM      5  C   UNL     1      -1.023  -1.030  -4.711  0.00  0.00    +0.128 C 
ATOM      6  N   UNL     1      -0.458  -1.508  -5.981  0.00  0.00    -0.174 NA
ATOM      7  C   UNL     1       0.945  -1.944  -6.011  0.00  0.00    +0.128 C 
ATOM      8  C   UNL     1       1.146  -3.025  -4.948  0.00  0.00    +0.125 C 
ENDROOT
BRANCH   6   9
ATOM      9  S   UNL     1      -1.385  -1.554  -7.352  0.00  0.00    +0.064 S 
ATOM     10  O   UNL     1      -0.801  -2.529  -8.205  0.00  0.00    -0.153 OA
ATOM     11  O   UNL     1      -2.738  -1.628  -6.924  0.00  0.00    -0.153 OA
BRANCH   9  12
ATOM     12  C   UNL     1      -1.197   0.001  -8.160  0.00  0.00    +0.140 A 
ATOM     13  C   UNL     1      -0.598   0.065  -9.404  0.00  0.00    +0.031 A 
ATOM     14  C   UNL     1      -0.451   1.284 -10.039  0.00  0.00    +0.002 A 
ATOM     15  C   UNL     1      -0.903   2.440  -9.430  0.00  0.00    +0.003 A 
ATOM     16  C   UNL     1      -1.502   2.378  -8.187  0.00  0.00    +0.040 A 
ATOM     17  C   UNL     1      -1.655   1.157  -7.552  0.00  0.00    +0.150 A 
ATOM     18  F   UNL     1      -2.245   1.095  -6.339  0.00  0.00    -0.203 F 
ENDBRANCH   9  12
ENDBRANCH   6   9
BRANCH   1  19
ATOM     19  C   UNL     1       0.739  -2.027  -1.265  0.00  0.00    +0.160 C 
BRANCH  19  20
ATOM     20  N   UNL     1       1.548  -2.511  -0.144  0.00  0.00    -0.288 N 
ATOM     21  C   UNL     1       2.849  -2.168  -0.055  0.00  0.00    +0.298 C 
ATOM     22  O   UNL     1       3.350  -1.458  -0.904  0.00  0.00    -0.253 OA
ATOM     23  N   UNL     1       3.594  -2.613   0.977  0.00  0.00    -0.313 N 
ATOM     24  H   UNL     1       1.149  -3.078   0.534  0.00  0.00    +0.151 HD
ATOM     25  H   UNL     1       3.194  -3.180   1.655  0.00  0.00    +0.146 HD
ATOM     26  H   UNL     1       4.529  -2.366   1.041  0.00  0.00    +0.146 HD
ENDBRANCH  19  20
BRANCH  19  27
ATOM     27  C   UNL     1       0.718  -0.497  -1.257  0.00  0.00    +0.031 C 
BRANCH  27  29
ATOM     28  C   UNL     1      -0.019   1.526   0.010  0.00  0.00    +0.004 C 
ATOM     29  C   UNL     1       0.002  -0.004   0.002  0.00  0.00    -0.001 C 
ENDBRANCH  27  29
ENDBRANCH  19  27
ENDBRANCH   1  19
TORSDOF 6
