REMARK  Name = ZINC56168788
REMARK  7 active torsions:
REMARK  status: ('A' for Active; 'I' for Inactive)
REMARK    1  A    between atoms: C_1  and  C_2
REMARK    2  A    between atoms: C_2  and  C_4
REMARK    3  A    between atoms: C_2  and  N_10
REMARK    4  A    between atoms: C_13  and  N_16
REMARK    5  A    between atoms: C_17  and  C_19
REMARK    6  A    between atoms: C_22  and  S_24
REMARK    7  A    between atoms: S_24  and  N_27
REMARK                            x       y       z     vdW  Elec       q    Type
REMARK                         _______ _______ _______ _____ _____    ______ ____
ROOT
ATOM      1  N   UNL     1       3.621  -0.637   3.031  0.00  0.00    -0.308 N 
ATOM      2  C   UNL     1       4.744  -1.236   3.476  0.00  0.00    +0.280 C 
ATOM      3  O   UNL     1       5.228  -2.162   2.851  0.00  0.00    -0.267 OA
ATOM      4  H   UNL     1       3.235   0.100   3.529  0.00  0.00    +0.149 HD
ENDROOT
BRANCH   1   8
ATOM      5  N   UNL     1       0.713  -0.491   1.192  0.00  0.00    +0.385 N 
ATOM      6  C   UNL     1       0.818  -1.972   1.156  0.00  0.00    -0.076 C 
ATOM      7  C   UNL     1       2.014  -2.265   2.096  0.00  0.00    +0.002 C 
ATOM      8  C   UNL     1       2.984  -1.100   1.796  0.00  0.00    +0.055 C 
ATOM      9  C   UNL     1       2.103   0.013   1.197  0.00  0.00    -0.056 C 
ATOM     10  H   UNL     1       0.233  -0.196   2.029  0.00  0.00    -0.081 HD
BRANCH   5  12
ATOM     11  C   UNL     1      -0.019   1.526   0.010  0.00  0.00    -0.008 C 
ATOM     12  C   UNL     1       0.002  -0.004   0.002  0.00  0.00    -0.041 C 
BRANCH  12  13
ATOM     13  C   UNL     1      -1.412  -0.526   0.013  0.00  0.00    -0.061 A 
ATOM     14  C   UNL     1      -2.123  -0.571   1.197  0.00  0.00    +0.002 A 
ATOM     15  C   UNL     1      -3.420  -1.049   1.207  0.00  0.00    +0.000 A 
ATOM     16  C   UNL     1      -4.006  -1.482   0.032  0.00  0.00    +0.000 A 
ATOM     17  C   UNL     1      -3.295  -1.436  -1.153  0.00  0.00    +0.000 A 
ATOM     18  C   UNL     1      -2.000  -0.954  -1.163  0.00  0.00    +0.002 A 
ENDBRANCH  12  13
ENDBRANCH   5  12
ENDBRANCH   1   8
BRANCH   2  19
ATOM     19  C   UNL     1       5.381  -0.773   4.713  0.00  0.00    +0.192 A 
ATOM     20  C   UNL     1       6.518  -1.285   5.269  0.00  0.00    +0.057 A 
ATOM     21  C   UNL     1       6.764  -0.545   6.437  0.00  0.00    +0.072 A 
ATOM     22  C   UNL     1       5.779   0.374   6.540  0.00  0.00    +0.258 A 
ATOM     23  O   UNL     1       4.951   0.237   5.497  0.00  0.00    -0.432 OA
BRANCH  22  24
ATOM     24  S   UNL     1       5.615   1.561   7.831  0.00  0.00    +0.089 S 
ATOM     25  O   UNL     1       4.240   1.919   7.882  0.00  0.00    -0.150 OA
ATOM     26  O   UNL     1       6.308   1.037   8.956  0.00  0.00    -0.150 OA
BRANCH  24  27
ATOM     27  N   UNL     1       6.439   2.917   7.358  0.00  0.00    -0.201 NA
ATOM     28  H   UNL     1       6.892   2.935   6.500  0.00  0.00    +0.144 HD
ATOM     29  H   UNL     1       6.469   3.694   7.938  0.00  0.00    +0.144 HD
ENDBRANCH  24  27
ENDBRANCH  22  24
ENDBRANCH   2  19
TORSDOF 6
