REMARK  Name = ZINC38701933
REMARK  8 active torsions:
REMARK  status: ('A' for Active; 'I' for Inactive)
REMARK    1  A    between atoms: C_1  and  C_2
REMARK    2  A    between atoms: C_5  and  O_37
REMARK    3  A    between atoms: C_6  and  C_8
REMARK    4  A    between atoms: N_16  and  C_29
REMARK    5  A    between atoms: C_17  and  C_19
REMARK    6  A    between atoms: C_22  and  O_25
REMARK    7  A    between atoms: O_25  and  C_26
REMARK    8  A    between atoms: C_26  and  C_27
REMARK                            x       y       z     vdW  Elec       q    Type
REMARK                         _______ _______ _______ _____ _____    ______ ____
ROOT
ATOM      1  C   UNL     1       0.052  -2.841   2.467  0.00  0.00    +0.102 A 
ATOM      2  C   UNL     1       0.174  -4.227   2.613  0.00  0.00    +0.035 A 
ATOM      3  C   UNL     1       0.140  -4.467   3.974  0.00  0.00    +0.126 A 
ATOM      4  N   UNL     1       0.002  -3.246   4.571  0.00  0.00    -0.272 N 
ATOM      5  H   UNL     1      -0.052  -3.097   5.528  0.00  0.00    +0.189 HD
ATOM      6  N   UNL     1      -0.041  -2.324   3.676  0.00  0.00    -0.173 NA
ATOM      7  C   UNL     1       0.264  -5.912   4.196  0.00  0.00    +0.266 C 
ATOM      8  O   UNL     1       0.268  -6.448   5.288  0.00  0.00    -0.268 OA
ATOM      9  N   UNL     1       0.373  -6.559   3.022  0.00  0.00    -0.280 N 
ATOM     10  C   UNL     1       0.327  -5.565   1.942  0.00  0.00    +0.142 C 
ENDROOT
BRANCH   1  16
ATOM     11  C   UNL     1       1.983  -1.974  -2.054  0.00  0.00    +0.044 C 
ATOM     12  C   UNL     1       0.962  -1.670  -0.988  0.00  0.00    -0.050 A 
ATOM     13  C   UNL     1       0.011  -0.689  -1.204  0.00  0.00    +0.007 A 
ATOM     14  C   UNL     1      -0.929  -0.403  -0.233  0.00  0.00    +0.046 A 
ATOM     15  C   UNL     1      -0.922  -1.099   0.966  0.00  0.00    +0.126 A 
ATOM     16  C   UNL     1       0.037  -2.091   1.187  0.00  0.00    +0.044 A 
ATOM     17  C   UNL     1       0.976  -2.375   0.198  0.00  0.00    +0.017 A 
BRANCH  15  18
ATOM     18  O   UNL     1      -1.845  -0.819   1.922  0.00  0.00    -0.506 OA
ATOM     19  H   UNL     1      -2.685  -1.284   1.807  0.00  0.00    +0.292 HD
ENDBRANCH  15  18
ENDBRANCH   1  16
BRANCH   9  20
ATOM     20  C   UNL     1       0.514  -8.007   2.850  0.00  0.00    +0.100 C 
ATOM     21  C   UNL     1      -0.689  -8.725   3.484  0.00  0.00    +0.047 C 
ATOM     22  C   UNL     1      -0.401 -10.241   3.594  0.00  0.00    +0.168 C 
ATOM     23  S   UNL     1       1.432 -10.295   3.736  0.00  0.00    -0.029 S 
ATOM     24  O   UNL     1       1.963 -10.985   2.614  0.00  0.00    -0.174 OA
ATOM     25  O   UNL     1       1.782 -10.718   5.047  0.00  0.00    -0.174 OA
ATOM     26  C   UNL     1       1.804  -8.498   3.567  0.00  0.00    +0.188 C 
ENDBRANCH   9  20
BRANCH  10  27
ATOM     27  C   UNL     1      -0.853  -5.831   1.043  0.00  0.00    -0.022 A 
ATOM     28  C   UNL     1      -2.081  -6.150   1.592  0.00  0.00    +0.009 A 
ATOM     29  C   UNL     1      -3.164  -6.395   0.770  0.00  0.00    +0.046 A 
ATOM     30  C   UNL     1      -3.018  -6.320  -0.608  0.00  0.00    +0.121 A 
ATOM     31  C   UNL     1      -1.785  -5.999  -1.156  0.00  0.00    +0.046 A 
ATOM     32  C   UNL     1      -0.707  -5.750  -0.330  0.00  0.00    +0.009 A 
BRANCH  30  33
ATOM     33  O   UNL     1      -4.082  -6.561  -1.419  0.00  0.00    -0.488 OA
BRANCH  33  34
ATOM     34  C   UNL     1      -3.859  -6.466  -2.827  0.00  0.00    +0.256 C 
BRANCH  34  35
ATOM     35  C   UNL     1      -5.141  -6.764  -3.560  0.00  0.00    +0.006 C 
ATOM     36  C   UNL     1      -5.518  -6.002  -4.557  0.00  0.00    +0.007 C 
ENDBRANCH  34  35
ENDBRANCH  33  34
ENDBRANCH  30  33
ENDBRANCH  10  27
TORSDOF 7
