REMARK  Name = ZINC39654506
REMARK  12 active torsions:
REMARK  status: ('A' for Active; 'I' for Inactive)
REMARK    1  A    between atoms: C_1  and  C_2
REMARK    2  A    between atoms: C_2  and  C_3
REMARK    3  A    between atoms: C_6  and  C_9
REMARK    4  A    between atoms: C_9  and  C_10
REMARK    5  A    between atoms: C_10  and  N_11
REMARK    6  A    between atoms: C_12  and  C_14
REMARK    7  A    between atoms: C_25  and  C_27
REMARK    8  A    between atoms: C_29  and  C_36
REMARK    9  A    between atoms: N_31  and  C_32
REMARK   10  A    between atoms: C_32  and  C_33
REMARK   11  A    between atoms: C_32  and  C_34
REMARK   12  A    between atoms: C_32  and  C_35
REMARK                            x       y       z     vdW  Elec       q    Type
REMARK                         _______ _______ _______ _____ _____    ______ ____
ROOT
ATOM      1  C   UNL     1       4.973  -0.226  -8.818  0.00  0.00    +0.100 C 
ATOM      2  C   UNL     1       4.040  -1.103  -9.682  0.00  0.00    +0.121 C 
ATOM      3  N   UNL     1       3.585  -0.207 -10.771  0.00  0.00    -0.295 N 
ATOM      4  C   UNL     1       4.787   0.589 -11.120  0.00  0.00    +0.115 C 
ATOM      5  C   UNL     1       5.464   0.881  -9.766  0.00  0.00    -0.004 C 
ATOM      6  C   UNL     1       6.982   0.819  -9.911  0.00  0.00    -0.010 C 
ATOM      7  C   UNL     1       7.452   1.965 -10.811  0.00  0.00    -0.082 C 
ATOM      8  N   UNL     1       7.048   3.249 -10.224  0.00  0.00    +0.379 N 
ATOM      9  C   UNL     1       5.584   3.338 -10.175  0.00  0.00    -0.082 C 
ATOM     10  C   UNL     1       5.035   2.250  -9.247  0.00  0.00    -0.010 C 
ATOM     11  C   UNL     1       2.357  -0.132 -11.320  0.00  0.00    +0.265 C 
ATOM     12  O   UNL     1       2.136   0.669 -12.208  0.00  0.00    -0.268 OA
ATOM     13  H   UNL     1       7.420   3.321  -9.289  0.00  0.00    -0.086 HD
ATOM     14  H   UNL     1       7.411   4.003 -10.787  0.00  0.00    -0.086 HD
ENDROOT
BRANCH  11  15
ATOM     15  C   UNL     1       1.283  -1.020 -10.846  0.00  0.00    +0.124 A 
ATOM     16  C   UNL     1       1.419  -2.113 -10.008  0.00  0.00    +0.057 A 
ATOM     17  C   UNL     1       0.128  -2.623  -9.853  0.00  0.00    +0.061 A 
ATOM     18  N   UNL     1      -0.686  -1.874 -10.553  0.00  0.00    -0.175 NA
ATOM     19  N   UNL     1      -0.047  -0.926 -11.140  0.00  0.00    -0.254 N 
ATOM     20  C   UNL     1      -0.259  -3.823  -9.028  0.00  0.00    +0.067 C 
BRANCH  19  21
ATOM     21  C   UNL     1      -0.653   0.096 -11.997  0.00  0.00    +0.056 C 
ATOM     22  C   UNL     1      -0.120  -0.053 -13.423  0.00  0.00    +0.036 C 
ATOM     23  C   UNL     1      -2.173  -0.077 -12.000  0.00  0.00    +0.036 C 
ATOM     24  C   UNL     1      -0.299   1.485 -11.462  0.00  0.00    +0.036 C 
ENDBRANCH  19  21
ENDBRANCH  11  15
BRANCH   1  26
ATOM     25  N   UNL     1       4.872   0.814  -6.576  0.00  0.00    -0.315 N 
ATOM     26  C   UNL     1       4.211   0.372  -7.664  0.00  0.00    +0.218 C 
ATOM     27  O   UNL     1       3.002   0.456  -7.714  0.00  0.00    -0.275 OA
ATOM     28  H   UNL     1       5.831   0.681  -6.504  0.00  0.00    +0.149 HD
BRANCH  25  29
ATOM     29  C   UNL     1       4.144   1.494  -5.502  0.00  0.00    +0.109 C 
BRANCH  29  30
ATOM     30  C   UNL     1       5.122   1.890  -4.394  0.00  0.00    +0.054 C 
BRANCH  30  34
ATOM     31  C   UNL     1       3.002   3.873  -1.261  0.00  0.00    -0.048 A 
ATOM     32  C   UNL     1       3.158   2.500  -1.228  0.00  0.00    +0.004 A 
ATOM     33  C   UNL     1       3.844   1.858  -2.242  0.00  0.00    +0.004 A 
ATOM     34  C   UNL     1       4.373   2.589  -3.289  0.00  0.00    -0.046 A 
ATOM     35  C   UNL     1       4.216   3.962  -3.322  0.00  0.00    +0.004 A 
ATOM     36  C   UNL     1       3.526   4.604  -2.310  0.00  0.00    +0.004 A 
BRANCH  31  38
ATOM     37  C   UNL     1       0.767   4.646  -0.512  0.00  0.00    +0.009 C 
ATOM     38  C   UNL     1       2.253   4.573  -0.155  0.00  0.00    +0.032 C 
ENDBRANCH  31  38
ENDBRANCH  30  34
ENDBRANCH  29  30
ENDBRANCH  25  29
ENDBRANCH   1  26
TORSDOF 7
