REMARK  Name = ZINC32124433
REMARK  11 active torsions:
REMARK  status: ('A' for Active; 'I' for Inactive)
REMARK    1  A    between atoms: C_1  and  O_2
REMARK    2  A    between atoms: O_2  and  C_3
REMARK    3  A    between atoms: C_5  and  C_11
REMARK    4  A    between atoms: C_7  and  O_9
REMARK    5  A    between atoms: O_9  and  C_10
REMARK    6  A    between atoms: N_24  and  C_25
REMARK    7  A    between atoms: C_25  and  C_27
REMARK    8  A    between atoms: C_25  and  C_34
REMARK    9  A    between atoms: C_27  and  C_28
REMARK   10  A    between atoms: C_34  and  O_36
REMARK   11  A    between atoms: O_36  and  C_37
REMARK                            x       y       z     vdW  Elec       q    Type
REMARK                         _______ _______ _______ _____ _____    ______ ____
ROOT
ATOM      1  C   UNL     1      -2.534  -4.173   0.014  0.00  0.00    +0.156 C 
ATOM      2  C   UNL     1      -2.688  -4.686   1.427  0.00  0.00    +0.062 A 
ATOM      3  C   UNL     1      -3.825  -5.233   1.905  0.00  0.00    +0.040 A 
ATOM      4  N   UNL     1      -3.589  -5.569   3.204  0.00  0.00    -0.349 N 
ATOM      5  H   UNL     1      -4.218  -5.981   3.817  0.00  0.00    +0.166 HD
ATOM      6  C   UNL     1      -2.311  -5.219   3.478  0.00  0.00    +0.171 A 
ATOM      7  N   UNL     1      -1.780  -4.691   2.405  0.00  0.00    -0.348 N 
ATOM      8  C   UNL     1      -5.091  -5.420   1.111  0.00  0.00    +0.074 C 
ATOM      9  C   UNL     1      -5.035  -4.518  -0.129  0.00  0.00    +0.116 C 
ATOM     10  N   UNL     1      -3.706  -4.634  -0.751  0.00  0.00    -0.273 N 
ATOM     11  C   UNL     1      -3.564  -5.150  -1.988  0.00  0.00    +0.304 C 
ATOM     12  O   UNL     1      -2.453  -5.328  -2.448  0.00  0.00    -0.253 OA
ATOM     13  N   UNL     1      -4.653  -5.470  -2.714  0.00  0.00    -0.286 N 
ATOM     14  H   UNL     1      -5.539  -5.260  -2.378  0.00  0.00    +0.151 HD
ATOM     15  H   UNL     1      -0.872  -4.357   2.333  0.00  0.00    +0.167 HD
ENDROOT
BRANCH   1  18
ATOM     16  C   UNL     1      -1.378  -0.623  -0.580  0.00  0.00    +0.124 A 
ATOM     17  C   UNL     1      -1.426  -2.010  -0.582  0.00  0.00    +0.051 A 
ATOM     18  C   UNL     1      -2.484  -2.667   0.018  0.00  0.00    -0.014 A 
ATOM     19  C   UNL     1      -3.496  -1.945   0.621  0.00  0.00    +0.051 A 
ATOM     20  C   UNL     1      -3.452  -0.558   0.625  0.00  0.00    +0.124 A 
ATOM     21  C   UNL     1      -2.389   0.103   0.029  0.00  0.00    +0.091 A 
BRANCH  16  23
ATOM     22  C   UNL     1      -0.351   1.450  -1.125  0.00  0.00    +0.277 C 
ATOM     23  O   UNL     1      -0.338   0.022  -1.170  0.00  0.00    -0.495 OA
ENDBRANCH  16  23
BRANCH  20  24
ATOM     24  O   UNL     1      -4.448   0.152   1.218  0.00  0.00    -0.495 OA
ATOM     25  C   UNL     1      -4.338   1.577   1.185  0.00  0.00    +0.277 C 
ENDBRANCH  20  24
ENDBRANCH   1  18
BRANCH  13  26
ATOM     26  C   UNL     1      -4.500  -6.134  -4.011  0.00  0.00    +0.187 C 
BRANCH  26  27
ATOM     27  C   UNL     1      -4.268  -5.098  -5.081  0.00  0.00    +0.328 C 
ATOM     28  O   UNL     1      -4.235  -3.926  -4.790  0.00  0.00    -0.249 OA
BRANCH  27  29
ATOM     29  O   UNL     1      -4.099  -5.478  -6.357  0.00  0.00    -0.467 OA
ATOM     30  C   UNL     1      -3.884  -4.444  -7.319  0.00  0.00    +0.280 C 
ENDBRANCH  27  29
ENDBRANCH  26  27
BRANCH  26  31
ATOM     31  C   UNL     1      -5.770  -6.924  -4.332  0.00  0.00    +0.069 C 
BRANCH  31  32
ATOM     32  C   UNL     1      -5.935  -8.038  -3.331  0.00  0.00    -0.045 A 
ATOM     33  C   UNL     1      -5.373  -9.277  -3.577  0.00  0.00    +0.004 A 
ATOM     34  C   UNL     1      -5.525 -10.299  -2.658  0.00  0.00    +0.000 A 
ATOM     35  C   UNL     1      -6.238 -10.082  -1.494  0.00  0.00    +0.000 A 
ATOM     36  C   UNL     1      -6.799  -8.843  -1.248  0.00  0.00    +0.000 A 
ATOM     37  C   UNL     1      -6.644  -7.820  -2.165  0.00  0.00    +0.004 A 
ENDBRANCH  31  32
ENDBRANCH  26  31
ENDBRANCH  13  26
TORSDOF 8
