REMARK  Name = ZINC24831537
REMARK  6 active torsions:
REMARK  status: ('A' for Active; 'I' for Inactive)
REMARK    1  A    between atoms: C_1  and  C_2
REMARK    2  A    between atoms: C_2  and  C_4
REMARK    3  A    between atoms: C_2  and  N_11
REMARK    4  A    between atoms: N_11  and  C_12
REMARK    5  A    between atoms: C_12  and  C_13
REMARK    6  A    between atoms: C_26  and  C_28
REMARK                            x       y       z     vdW  Elec       q    Type
REMARK                         _______ _______ _______ _____ _____    ______ ____
ROOT
ATOM      1  C   UNL     1      -0.718   1.572   1.248  0.00  0.00    +0.203 C 
ATOM      2  O   UNL     1      -1.715   2.256   1.150  0.00  0.00    -0.277 OA
ATOM      3  N   UNL     1      -0.242   1.246   2.466  0.00  0.00    -0.259 N 
ATOM      4  C   UNL     1       0.909   0.456   2.594  0.00  0.00    +0.058 A 
ATOM      5  C   UNL     1       0.875  -0.896   2.293  0.00  0.00    +0.025 A 
ATOM      6  C   UNL     1       2.014  -1.664   2.447  0.00  0.00    +0.002 A 
ATOM      7  C   UNL     1       3.187  -1.089   2.903  0.00  0.00    +0.002 A 
ATOM      8  C   UNL     1       3.231   0.262   3.197  0.00  0.00    +0.025 A 
ATOM      9  C   UNL     1       2.097   1.040   3.035  0.00  0.00    +0.055 A 
ATOM     10  N   UNL     1       2.133   2.418   3.273  0.00  0.00    -0.284 N 
ATOM     11  C   UNL     1       1.178   3.009   4.024  0.00  0.00    +0.219 C 
ATOM     12  O   UNL     1       1.173   4.215   4.154  0.00  0.00    -0.275 OA
ATOM     13  C   UNL     1       0.119   2.180   4.702  0.00  0.00    +0.128 C 
ATOM     14  C   UNL     1      -0.913   1.716   3.679  0.00  0.00    +0.194 C 
ATOM     15  H   UNL     1       2.943   3.030   2.847  0.00  0.00    +0.155 HD
ENDROOT
BRANCH  14  16
ATOM     16  C   UNL     1      -1.738   0.575   4.278  0.00  0.00    +0.409 C 
ATOM     17  F   UNL     1      -0.894  -0.494   4.596  0.00  0.00    -0.169 F 
ATOM     18  F   UNL     1      -2.380   1.023   5.437  0.00  0.00    -0.169 F 
ATOM     19  F   UNL     1      -2.695   0.154   3.348  0.00  0.00    -0.169 F 
ENDBRANCH  14  16
BRANCH   1  20
ATOM     20  C   UNL     1      -0.013   1.086   0.008  0.00  0.00    +0.016 C 
BRANCH  20  21
ATOM     21  N   UNL     1      -0.723   1.572  -1.182  0.00  0.00    +0.389 N 
ATOM     22  H   UNL     1      -0.738   2.672  -1.159  0.00  0.00    -0.084 HD
ATOM     23  H   UNL     1      -1.755   1.191  -1.157  0.00  0.00    -0.084 HD
BRANCH  21  25
ATOM     24  C   UNL     1       1.067   2.084  -2.772  0.00  0.00    -0.009 C 
ATOM     25  C   UNL     1      -0.062   1.117  -2.413  0.00  0.00    -0.043 C 
BRANCH  25  26
ATOM     26  C   UNL     1      -1.066   1.077  -3.536  0.00  0.00    -0.062 A 
ATOM     27  C   UNL     1      -2.013   2.077  -3.653  0.00  0.00    +0.003 A 
ATOM     28  C   UNL     1      -2.930   2.043  -4.687  0.00  0.00    +0.020 A 
ATOM     29  C   UNL     1      -2.907   1.002  -5.598  0.00  0.00    +0.041 A 
ATOM     30  C   UNL     1      -1.963  -0.002  -5.477  0.00  0.00    +0.020 A 
ATOM     31  C   UNL     1      -1.043   0.036  -4.446  0.00  0.00    +0.003 A 
ATOM     32 CL   UNL     1      -4.064   0.955  -6.892  0.00  0.00    -0.084 Cl
ENDBRANCH  25  26
ENDBRANCH  21  25
ENDBRANCH  20  21
ENDBRANCH   1  20
TORSDOF 5
