REMARK  Name = ZINC13635926
REMARK  6 active torsions:
REMARK  status: ('A' for Active; 'I' for Inactive)
REMARK    1  A    between atoms: C_1  and  C_2
REMARK    2  A    between atoms: C_2  and  C_3
REMARK    3  A    between atoms: C_2  and  C_4
REMARK    4  A    between atoms: C_11  and  N_24
REMARK    5  A    between atoms: C_12  and  C_22
REMARK    6  A    between atoms: C_13  and  C_15
REMARK                            x       y       z     vdW  Elec       q    Type
REMARK                         _______ _______ _______ _____ _____    ______ ____
ROOT
ATOM      1  C   UNL     1      -1.536  -0.583   0.079  0.00  0.00    +0.046 A 
ATOM      2  C   UNL     1      -2.040  -1.414  -0.845  0.00  0.00    +0.046 A 
ATOM      3  C   UNL     1      -3.396  -1.651  -0.529  0.00  0.00    +0.244 A 
ATOM      4  N   UNL     1      -3.681  -0.982   0.550  0.00  0.00    -0.135 NA
ATOM      5  N   UNL     1      -2.523  -0.301   0.960  0.00  0.00    -0.278 N 
ATOM      6  H   UNL     1      -2.446   0.273   1.738  0.00  0.00    +0.189 HD
ATOM      7  O   UNL     1      -4.183  -2.458  -1.290  0.00  0.00    -0.422 OA
ATOM      8  C   UNL     1      -3.718  -2.813  -2.504  0.00  0.00    +0.200 C 
ATOM      9  C   UNL     1      -2.443  -2.648  -2.913  0.00  0.00    +0.094 C 
ATOM     10  C   UNL     1      -1.372  -2.040  -2.043  0.00  0.00    +0.078 C 
ENDROOT
BRANCH  10  11
ATOM     11  C   UNL     1      -0.402  -3.129  -1.583  0.00  0.00    +0.024 C 
ATOM     12  C   UNL     1       0.400  -3.635  -2.784  0.00  0.00    +0.009 C 
ATOM     13  C   UNL     1       1.171  -4.891  -2.359  0.00  0.00    +0.005 C 
ATOM     14  C   UNL     1       0.162  -6.008  -2.085  0.00  0.00    +0.027 C 
ATOM     15  C   UNL     1      -0.928  -5.510  -1.182  0.00  0.00    -0.031 C 
ATOM     16  C   UNL     1      -1.177  -4.259  -0.970  0.00  0.00    -0.027 C 
ENDBRANCH  10  11
BRANCH   1  18
ATOM     17  C   UNL     1      -0.139   1.466   0.064  0.00  0.00    +0.014 C 
ATOM     18  C   UNL     1      -0.122  -0.063   0.131  0.00  0.00    +0.031 C 
ATOM     19  C   UNL     1       0.538  -0.509   1.437  0.00  0.00    +0.014 C 
ENDBRANCH   1  18
BRANCH   8  20
ATOM     20  N   UNL     1      -4.603  -3.383  -3.385  0.00  0.00    -0.328 N 
ATOM     21  H   UNL     1      -5.527  -3.518  -3.125  0.00  0.00    +0.145 HD
ATOM     22  H   UNL     1      -4.303  -3.651  -4.268  0.00  0.00    +0.145 HD
ENDBRANCH   8  20
BRANCH   9  23
ATOM     23  C   UNL     1      -2.090  -3.069  -4.236  0.00  0.00    +0.100 C 
ATOM     24  N   UNL     1      -1.810  -3.403  -5.285  0.00  0.00    -0.191 NA
ENDBRANCH   9  23
TORSDOF 4
