REMARK  Name = ZINC13110255
REMARK  5 active torsions:
REMARK  status: ('A' for Active; 'I' for Inactive)
REMARK    1  A    between atoms: C_3  and  C_6
REMARK    2  A    between atoms: C_9  and  C_24
REMARK    3  A    between atoms: C_12  and  C_14
REMARK    4  A    between atoms: C_14  and  N_52
REMARK    5  A    between atoms: C_19  and  C_21
REMARK                            x       y       z     vdW  Elec       q    Type
REMARK                         _______ _______ _______ _____ _____    ______ ____
ROOT
ATOM      1  C   UNL     1      -0.817   2.177  -0.864  0.00  0.00    +0.172 C 
ATOM      2  C   UNL     1      -1.090   0.667  -1.008  0.00  0.00    +0.090 C 
ATOM      3  C   UNL     1       0.271   0.032  -0.833  0.00  0.00    +0.069 C 
ATOM      4  N   UNL     1       1.151   0.949  -0.631  0.00  0.00    -0.181 NA
ATOM      5  N   UNL     1       0.634   2.243  -0.627  0.00  0.00    -0.184 N 
ATOM      6  C   UNL     1       1.347   3.372  -0.437  0.00  0.00    +0.219 C 
ATOM      7  O   UNL     1       0.791   4.450  -0.454  0.00  0.00    -0.276 OA
ENDROOT
BRANCH   3   8
ATOM      8  C   UNL     1       0.547  -1.416  -0.886  0.00  0.00    -0.002 A 
ATOM      9  C   UNL     1      -0.493  -2.321  -1.108  0.00  0.00    +0.011 A 
ATOM     10  C   UNL     1      -0.227  -3.674  -1.162  0.00  0.00    +0.020 A 
ATOM     11  C   UNL     1       1.067  -4.135  -0.987  0.00  0.00    +0.041 A 
ATOM     12  C   UNL     1       2.102  -3.243  -0.761  0.00  0.00    +0.020 A 
ATOM     13  C   UNL     1       1.850  -1.888  -0.710  0.00  0.00    +0.011 A 
ATOM     14 CL   UNL     1       1.392  -5.839  -1.050  0.00  0.00    -0.084 Cl
ENDBRANCH   3   8
BRANCH   1  17
ATOM     15  C   UNL     1      -2.243   4.112  -3.657  0.00  0.00    +0.041 A 
ATOM     16  C   UNL     1      -2.317   3.596  -2.343  0.00  0.00    +0.046 A 
ATOM     17  C   UNL     1      -1.181   2.906  -2.131  0.00  0.00    +0.128 A 
ATOM     18  O   UNL     1      -0.426   2.982  -3.239  0.00  0.00    -0.466 OA
ATOM     19  C   UNL     1      -1.067   3.708  -4.169  0.00  0.00    +0.195 A 
ENDBRANCH   1  17
BRANCH   6  20
ATOM     20  C   UNL     1       2.834   3.294  -0.205  0.00  0.00    +0.022 C 
BRANCH  20  26
ATOM     21  C   UNL     1       2.817   5.283   1.174  0.00  0.00    -0.077 C 
ATOM     22  C   UNL     1       3.507   6.629   1.408  0.00  0.00    -0.019 C 
ATOM     23  C   UNL     1       3.290   7.527   0.186  0.00  0.00    -0.003 C 
ATOM     24  C   UNL     1       3.834   6.822  -1.059  0.00  0.00    -0.006 C 
ATOM     25  C   UNL     1       3.135   5.470  -1.221  0.00  0.00    +0.020 C 
ATOM     26  N   UNL     1       3.403   4.645  -0.024  0.00  0.00    +0.393 N 
ATOM     27  H   UNL     1       4.418   4.565   0.105  0.00  0.00    -0.080 HD
BRANCH  25  28
ATOM     28  C   UNL     1       3.682   4.764  -2.434  0.00  0.00    +0.197 C 
ATOM     29  O   UNL     1       4.627   4.013  -2.324  0.00  0.00    -0.278 OA
ATOM     30  N   UNL     1       3.120   4.967  -3.643  0.00  0.00    -0.331 N 
ATOM     31  H   UNL     1       2.364   5.568  -3.731  0.00  0.00    +0.145 HD
ATOM     32  H   UNL     1       3.472   4.513  -4.424  0.00  0.00    +0.145 HD
ENDBRANCH  25  28
ENDBRANCH  20  26
ENDBRANCH   6  20
TORSDOF 5
