REMARK  Name = ZINC19756364
REMARK  8 active torsions:
REMARK  status: ('A' for Active; 'I' for Inactive)
REMARK    1  A    between atoms: C_1  and  C_2
REMARK    2  A    between atoms: C_5  and  C_25
REMARK    3  A    between atoms: C_6  and  N_8
REMARK    4  A    between atoms: C_9  and  C_11
REMARK    5  A    between atoms: C_11  and  N_12
REMARK    6  A    between atoms: C_14  and  C_23
REMARK    7  A    between atoms: C_14  and  C_24
REMARK    8  A    between atoms: C_19  and  N_22
REMARK                            x       y       z     vdW  Elec       q    Type
REMARK                         _______ _______ _______ _____ _____    ______ ____
ROOT
ATOM      1  N   UNL     1       0.039  -0.080   0.027  0.00  0.00    -0.314 N 
ATOM      2  C   UNL     1       0.087   1.380   0.168  0.00  0.00    +0.153 C 
ATOM      3  C   UNL     1       1.556   1.823   0.166  0.00  0.00    +0.121 C 
ATOM      4  O   UNL     1       2.191   1.249   1.314  0.00  0.00    -0.483 OA
ATOM      5  C   UNL     1       1.933  -0.067   1.560  0.00  0.00    +0.142 A 
ATOM      6  C   UNL     1       0.878  -0.726   0.940  0.00  0.00    +0.074 A 
ATOM      7  C   UNL     1       0.642  -2.066   1.226  0.00  0.00    +0.049 A 
ATOM      8  C   UNL     1       1.455  -2.741   2.124  0.00  0.00    +0.027 A 
ATOM      9  C   UNL     1       2.510  -2.079   2.738  0.00  0.00    +0.026 A 
ATOM     10  C   UNL     1       2.746  -0.747   2.455  0.00  0.00    +0.049 A 
ATOM     11  C   UNL     1       2.244   1.329  -1.108  0.00  0.00    +0.057 C 
ATOM     12  C   UNL     1       1.637   3.349   0.240  0.00  0.00    +0.057 C 
ENDROOT
BRANCH   8  13
ATOM     13  N   UNL     1       1.214  -4.090   2.410  0.00  0.00    -0.358 N 
ATOM     14  H   UNL     1       1.859  -4.625   3.122  0.00  0.00    +0.142 HD
ATOM     15  H   UNL     1       0.379  -4.614   1.923  0.00  0.00    +0.142 HD
ENDBRANCH   8  13
BRANCH   1  16
ATOM     16  C   UNL     1      -1.340  -0.574   0.139  0.00  0.00    +0.201 C 
BRANCH  16  18
ATOM     17  N   UNL     1      -3.009  -0.924   1.931  0.00  0.00    -0.284 N 
ATOM     18  C   UNL     1      -1.814  -0.422   1.561  0.00  0.00    +0.235 C 
ATOM     19  O   UNL     1      -1.121   0.153   2.374  0.00  0.00    -0.274 OA
ATOM     20  H   UNL     1      -3.603  -1.513   1.216  0.00  0.00    +0.155 HD
BRANCH  17  26
ATOM     21  C   UNL     1      -2.139  -0.298   6.729  0.00  0.00    +0.044 C 
ATOM     22  C   UNL     1      -3.095  -0.389   5.567  0.00  0.00    -0.049 A 
ATOM     23  C   UNL     1      -4.454  -0.247   5.779  0.00  0.00    +0.004 A 
ATOM     24  C   UNL     1      -5.335  -0.330   4.716  0.00  0.00    +0.005 A 
ATOM     25  C   UNL     1      -4.859  -0.555   3.439  0.00  0.00    -0.029 A 
ATOM     26  C   UNL     1      -3.494  -0.697   3.223  0.00  0.00    +0.037 A 
ATOM     27  C   UNL     1      -2.613  -0.618   4.293  0.00  0.00    +0.027 A 
ATOM     28  C   UNL     1      -5.819  -0.645   2.281  0.00  0.00    +0.045 C 
ENDBRANCH  17  26
ENDBRANCH  16  18
ENDBRANCH   1  16
TORSDOF 4
