REMARK  Name = ZINC64175268
REMARK  6 active torsions:
REMARK  status: ('A' for Active; 'I' for Inactive)
REMARK    1  A    between atoms: C_1  and  C_2
REMARK    2  A    between atoms: C_5  and  C_19
REMARK    3  A    between atoms: C_7  and  C_12
REMARK    4  A    between atoms: N_21  and  C_22
REMARK    5  A    between atoms: C_22  and  C_23
REMARK    6  A    between atoms: C_23  and  C_24
REMARK                            x       y       z     vdW  Elec       q    Type
REMARK                         _______ _______ _______ _____ _____    ______ ____
ROOT
ATOM      1  C   UNL     1      -0.019   1.526   0.010  0.00  0.00    +0.032 C 
ATOM      2  C   UNL     1       0.002  -0.004   0.002  0.00  0.00    +0.126 C 
ATOM      3  C   UNL     1      -1.404  -0.560   0.074  0.00  0.00    +0.048 A 
ATOM      4  C   UNL     1      -2.409  -0.698  -0.879  0.00  0.00    +0.049 A 
ATOM      5  C   UNL     1      -3.621  -1.270  -0.483  0.00  0.00    +0.042 A 
ATOM      6  C   UNL     1      -3.768  -1.675   0.841  0.00  0.00    +0.078 A 
ATOM      7  N   UNL     1      -2.785  -1.522   1.715  0.00  0.00    -0.211 NA
ATOM      8  C   UNL     1      -1.621  -0.980   1.382  0.00  0.00    +0.245 A 
ATOM      9  O   UNL     1      -0.520  -0.729   2.142  0.00  0.00    -0.386 OA
ATOM     10  N   UNL     1       0.632  -0.528   1.240  0.00  0.00    -0.146 NA
ATOM     11  H   UNL     1       1.284   0.139   1.625  0.00  0.00    +0.168 HD
ENDROOT
BRANCH   6  12
ATOM     12  C   UNL     1      -5.045  -2.288   1.279  0.00  0.00    +0.036 A 
ATOM     13  C   UNL     1      -6.087  -2.461   0.369  0.00  0.00    +0.013 A 
ATOM     14  C   UNL     1      -7.273  -3.031   0.782  0.00  0.00    +0.001 A 
ATOM     15  C   UNL     1      -7.432  -3.432   2.097  0.00  0.00    +0.003 A 
ATOM     16  C   UNL     1      -6.404  -3.263   3.006  0.00  0.00    +0.039 A 
ATOM     17  C   UNL     1      -5.207  -2.699   2.603  0.00  0.00    +0.133 A 
ATOM     18  F   UNL     1      -4.201  -2.540   3.490  0.00  0.00    -0.205 F 
ENDBRANCH   6  12
BRANCH   4  19
ATOM     19  C   UNL     1      -2.200  -0.249  -2.276  0.00  0.00    +0.245 C 
ATOM     20  O   UNL     1      -1.139   0.247  -2.602  0.00  0.00    -0.270 OA
ATOM     21  N   UNL     1      -3.185  -0.391  -3.184  0.00  0.00    -0.311 N 
ATOM     22  H   UNL     1      -4.031  -0.787  -2.924  0.00  0.00    +0.149 HD
BRANCH  21  23
ATOM     23  C   UNL     1      -2.978   0.052  -4.565  0.00  0.00    +0.109 C 
BRANCH  23  24
ATOM     24  C   UNL     1      -4.242  -0.221  -5.383  0.00  0.00    +0.052 C 
BRANCH  24  25
ATOM     25  C   UNL     1      -4.029   0.235  -6.804  0.00  0.00    -0.040 C 
ATOM     26  C   UNL     1      -3.629  -0.523  -7.850  0.00  0.00    -0.001 A 
ATOM     27  C   UNL     1      -3.285  -1.944  -7.974  0.00  0.00    +0.010 A 
ATOM     28  C   UNL     1      -2.910  -2.426  -9.181  0.00  0.00    +0.001 A 
ATOM     29  C   UNL     1      -2.843  -1.603 -10.314  0.00  0.00    +0.002 A 
ATOM     30  C   UNL     1      -3.143  -0.288 -10.279  0.00  0.00    +0.026 A 
ATOM     31  C   UNL     1      -3.550   0.325  -9.061  0.00  0.00    +0.043 A 
ATOM     32  N   UNL     1      -3.887   1.558  -8.775  0.00  0.00    -0.380 N 
ATOM     33  C   UNL     1      -4.225   1.632  -7.349  0.00  0.00    +0.144 C 
ATOM     34  H   UNL     1      -3.913   2.298  -9.402  0.00  0.00    +0.160 HD
ENDBRANCH  24  25
ENDBRANCH  23  24
ENDBRANCH  21  23
ENDBRANCH   4  19
TORSDOF 5
