REMARK  Name = ZINC16531365
REMARK  6 active torsions:
REMARK  status: ('A' for Active; 'I' for Inactive)
REMARK    1  A    between atoms: C_1  and  O_2
REMARK    2  A    between atoms: O_2  and  C_3
REMARK    3  A    between atoms: C_8  and  C_9
REMARK    4  A    between atoms: C_9  and  C_10
REMARK    5  A    between atoms: N_20  and  S_22
REMARK    6  A    between atoms: S_22  and  C_25
REMARK                            x       y       z     vdW  Elec       q    Type
REMARK                         _______ _______ _______ _____ _____    ______ ____
ROOT
ATOM      1  C   UNL     1      -2.124   3.883   3.095  0.00  0.00    +0.114 A 
ATOM      2  N   UNL     1      -1.596   4.835   3.890  0.00  0.00    -0.310 N 
ATOM      3  H   UNL     1      -1.148   4.589   4.715  0.00  0.00    +0.170 HD
ATOM      4  C   UNL     1      -1.690   6.131   3.529  0.00  0.00    +0.256 A 
ATOM      5  O   UNL     1      -1.214   7.007   4.231  0.00  0.00    -0.267 OA
ATOM      6  C   UNL     1      -2.355   6.458   2.324  0.00  0.00    +0.054 A 
ATOM      7  C   UNL     1      -2.855   5.456   1.562  0.00  0.00    +0.054 A 
ATOM      8  N   UNL     1      -2.728   4.186   1.981  0.00  0.00    -0.238 NA
ATOM      9  C   UNL     1      -3.545   5.694   0.245  0.00  0.00    +0.073 C 
ATOM     10  C   UNL     1      -4.042   7.136   0.144  0.00  0.00    +0.116 C 
ATOM     11  N   UNL     1      -2.943   8.023   0.560  0.00  0.00    -0.172 NA
ATOM     12  C   UNL     1      -2.477   7.910   1.947  0.00  0.00    +0.151 C 
ENDROOT
BRANCH  11  13
ATOM     13  S   UNL     1      -2.261   9.104  -0.493  0.00  0.00    +0.061 S 
ATOM     14  O   UNL     1      -0.952   9.371  -0.010  0.00  0.00    -0.153 OA
ATOM     15  O   UNL     1      -2.504   8.604  -1.801  0.00  0.00    -0.153 OA
BRANCH  13  16
ATOM     16  C   UNL     1      -3.166  10.609  -0.353  0.00  0.00    +0.106 A 
ATOM     17  C   UNL     1      -2.763  11.569   0.573  0.00  0.00    +0.029 A 
ATOM     18  C   UNL     1      -3.440  12.742   0.706  0.00  0.00    +0.010 A 
ATOM     19  C   UNL     1      -4.562  12.993  -0.101  0.00  0.00    -0.018 A 
ATOM     20  C   UNL     1      -5.286  14.193   0.007  0.00  0.00    +0.008 A 
ATOM     21  C   UNL     1      -6.368  14.401  -0.792  0.00  0.00    +0.001 A 
ATOM     22  C   UNL     1      -6.772  13.441  -1.718  0.00  0.00    +0.001 A 
ATOM     23  C   UNL     1      -6.095  12.268  -1.851  0.00  0.00    +0.008 A 
ATOM     24  C   UNL     1      -4.973  12.017  -1.043  0.00  0.00    -0.016 A 
ATOM     25  C   UNL     1      -4.245  10.819  -1.156  0.00  0.00    +0.037 A 
ENDBRANCH  13  16
ENDBRANCH  11  13
BRANCH   1  26
ATOM     26  C   UNL     1      -2.018   2.437   3.507  0.00  0.00    +0.113 C 
BRANCH  26  32
ATOM     27  C   UNL     1      -1.975   1.163   1.348  0.00  0.00    +0.124 A 
ATOM     28  C   UNL     1      -2.588   0.359   0.398  0.00  0.00    +0.046 A 
ATOM     29  C   UNL     1      -3.902  -0.029   0.567  0.00  0.00    +0.004 A 
ATOM     30  C   UNL     1      -4.607   0.382   1.683  0.00  0.00    +0.001 A 
ATOM     31  C   UNL     1      -3.999   1.182   2.632  0.00  0.00    +0.007 A 
ATOM     32  C   UNL     1      -2.683   1.569   2.470  0.00  0.00    +0.002 A 
BRANCH  27  34
ATOM     33  C   UNL     1      -0.013   1.086   0.008  0.00  0.00    +0.277 C 
ATOM     34  O   UNL     1      -0.682   1.547   1.184  0.00  0.00    -0.495 OA
ENDBRANCH  27  34
ENDBRANCH  26  32
ENDBRANCH   1  26
TORSDOF 5
