REMARK  Name = ZINC20728544
REMARK  4 active torsions:
REMARK  status: ('A' for Active; 'I' for Inactive)
REMARK    1  A    between atoms: C_8  and  C_10
REMARK    2  A    between atoms: N_13  and  C_16
REMARK    3  A    between atoms: C_16  and  C_18
REMARK    4  A    between atoms: C_16  and  C_29
REMARK                            x       y       z     vdW  Elec       q    Type
REMARK                         _______ _______ _______ _____ _____    ______ ____
ROOT
ATOM      1  C   UNL     1       8.458   3.875   0.624  0.00  0.00    +0.072 C 
ATOM      2  C   UNL     1       7.445   4.710   1.413  0.00  0.00    -0.006 C 
ATOM      3  C   UNL     1       6.101   4.697   0.682  0.00  0.00    -0.076 C 
ATOM      4  N   UNL     1       5.626   3.314   0.553  0.00  0.00    +0.392 N 
ATOM      5  C   UNL     1       6.559   2.504  -0.241  0.00  0.00    -0.076 C 
ATOM      6  C   UNL     1       7.917   2.452   0.462  0.00  0.00    -0.006 C 
ATOM      7  H   UNL     1       5.581   2.879   1.562  0.00  0.00    -0.080 HD
ENDROOT
BRANCH   1  15
ATOM      8  C   UNL     1      13.311   3.418   4.115  0.00  0.00    +0.002 A 
ATOM      9  C   UNL     1      13.952   4.010   3.036  0.00  0.00    +0.004 A 
ATOM     10  C   UNL     1      13.245   4.343   1.899  0.00  0.00    +0.048 A 
ATOM     11  C   UNL     1      11.884   4.085   1.832  0.00  0.00    +0.155 A 
ATOM     12  C   UNL     1      11.232   3.486   2.921  0.00  0.00    +0.110 A 
ATOM     13  C   UNL     1      11.961   3.155   4.065  0.00  0.00    +0.031 A 
ATOM     14  N   UNL     1       9.924   3.365   2.570  0.00  0.00    -0.213 NA
ATOM     15  C   UNL     1       9.767   3.835   1.369  0.00  0.00    +0.200 A 
ATOM     16  O   UNL     1      10.937   4.285   0.889  0.00  0.00    -0.439 OA
ENDBRANCH   1  15
BRANCH   4  17
ATOM     17  C   UNL     1       4.274   3.272  -0.020  0.00  0.00    +0.080 C 
BRANCH  17  18
ATOM     18  C   UNL     1       3.793   1.845  -0.069  0.00  0.00    -0.025 A 
ATOM     19  C   UNL     1       3.718   1.065  -1.159  0.00  0.00    +0.086 A 
ATOM     20  N   UNL     1       3.234  -0.169  -0.817  0.00  0.00    -0.360 N 
ATOM     21  H   UNL     1       3.106  -0.943  -1.588  0.00  0.00    +0.165 HD
ATOM     22  C   UNL     1       2.980  -0.214   0.536  0.00  0.00    +0.049 A 
ATOM     23  C   UNL     1       3.318   1.046   1.063  0.00  0.00    +0.002 A 
ATOM     24  C   UNL     1       3.163   1.295   2.428  0.00  0.00    +0.013 A 
ATOM     25  C   UNL     1       2.681   0.313   3.247  0.00  0.00    +0.039 A 
ATOM     26  C   UNL     1       2.345  -0.934   2.732  0.00  0.00    +0.125 A 
ATOM     27  C   UNL     1       2.491  -1.200   1.386  0.00  0.00    +0.064 A 
ATOM     28  F   UNL     1       1.870  -1.893   3.556  0.00  0.00    -0.205 F 
ENDBRANCH  17  18
BRANCH  17  29
ATOM     29  C   UNL     1       4.302   3.841  -1.415  0.00  0.00    +0.347 C 
ATOM     30  O   UNL     1       5.342   4.240  -1.884  0.00  0.00    -0.248 OA
ATOM     31  O   UNL     1       3.172   3.905  -2.137  0.00  0.00    -0.248 OA
ENDBRANCH  17  29
ENDBRANCH   4  17
TORSDOF 4
