REMARK  Name = ZINC37341705
REMARK  7 active torsions:
REMARK  status: ('A' for Active; 'I' for Inactive)
REMARK    1  A    between atoms: C_1  and  O_2
REMARK    2  A    between atoms: O_2  and  C_3
REMARK    3  A    between atoms: C_3  and  C_5
REMARK    4  A    between atoms: C_5  and  C_7
REMARK    5  A    between atoms: C_5  and  C_15
REMARK    6  A    between atoms: C_18  and  N_22
REMARK    7  A    between atoms: C_23  and  C_25
REMARK                            x       y       z     vdW  Elec       q    Type
REMARK                         _______ _______ _______ _____ _____    ______ ____
ROOT
ATOM      1  C   UNL     1      -0.764  -2.670  -1.133  0.00  0.00    +0.032 C 
ATOM      2  C   UNL     1      -0.728  -4.215  -1.172  0.00  0.00    +0.035 C 
ATOM      3  C   UNL     1      -1.937  -4.572  -0.277  0.00  0.00    +0.097 C 
ATOM      4  C   UNL     1      -2.116  -3.372   0.623  0.00  0.00    -0.009 C 
ATOM      5  C   UNL     1      -1.477  -2.332   0.155  0.00  0.00    -0.025 C 
ENDROOT
BRANCH   3   6
ATOM      6  N   UNL     1      -3.134  -4.782  -1.096  0.00  0.00    -0.305 N 
ATOM      7  C   UNL     1      -4.134  -5.561  -0.640  0.00  0.00    +0.245 C 
ATOM      8  O   UNL     1      -4.044  -6.090   0.450  0.00  0.00    -0.270 OA
ATOM      9  H   UNL     1      -3.206  -4.359  -1.966  0.00  0.00    +0.150 HD
BRANCH   7  10
ATOM     10  C   UNL     1      -5.341  -5.772  -1.466  0.00  0.00    +0.038 A 
ATOM     11  C   UNL     1      -5.444  -5.170  -2.722  0.00  0.00    +0.016 A 
ATOM     12  C   UNL     1      -6.572  -5.370  -3.489  0.00  0.00    +0.040 A 
ATOM     13  C   UNL     1      -7.603  -6.168  -3.017  0.00  0.00    +0.142 A 
ATOM     14  C   UNL     1      -7.506  -6.768  -1.770  0.00  0.00    +0.077 A 
ATOM     15  C   UNL     1      -6.379  -6.579  -0.996  0.00  0.00    +0.036 A 
ATOM     16 CL   UNL     1      -8.801  -7.765  -1.185  0.00  0.00    -0.081 Cl
ATOM     17  F   UNL     1      -8.705  -6.361  -3.773  0.00  0.00    -0.204 F 
ENDBRANCH   7  10
ENDBRANCH   3   6
BRANCH   1  18
ATOM     18  C   UNL     1       0.657  -2.104  -1.120  0.00  0.00    +0.136 C 
BRANCH  18  19
ATOM     19  C   UNL     1       1.374  -2.514  -2.380  0.00  0.00    -0.015 A 
ATOM     20  C   UNL     1       0.878  -2.131  -3.613  0.00  0.00    +0.009 A 
ATOM     21  C   UNL     1       1.534  -2.507  -4.769  0.00  0.00    +0.039 A 
ATOM     22  C   UNL     1       2.689  -3.268  -4.695  0.00  0.00    +0.125 A 
ATOM     23  C   UNL     1       3.185  -3.651  -3.461  0.00  0.00    +0.058 A 
ATOM     24  C   UNL     1       2.530  -3.270  -2.304  0.00  0.00    +0.048 A 
ATOM     25 CL   UNL     1       3.156  -3.745  -0.755  0.00  0.00    -0.083 Cl
ATOM     26  F   UNL     1       3.330  -3.636  -5.825  0.00  0.00    -0.205 F 
ENDBRANCH  18  19
BRANCH  18  27
ATOM     27  C   UNL     1       0.598  -0.600  -1.043  0.00  0.00    +0.315 C 
ATOM     28  O   UNL     1       1.088   0.070  -1.921  0.00  0.00    -0.250 OA
BRANCH  27  30
ATOM     29  C   UNL     1      -0.017   1.425   0.010  0.00  0.00    +0.280 C 
ATOM     30  O   UNL     1       0.002  -0.004   0.002  0.00  0.00    -0.467 OA
ENDBRANCH  27  30
ENDBRANCH  18  27
ENDBRANCH   1  18
TORSDOF 6
