REMARK  Name = ZINC20982383
REMARK  8 active torsions:
REMARK  status: ('A' for Active; 'I' for Inactive)
REMARK    1  A    between atoms: C_1  and  C_2
REMARK    2  A    between atoms: C_2  and  C_4
REMARK    3  A    between atoms: C_2  and  O_16
REMARK    4  A    between atoms: O_16  and  C_17
REMARK    5  A    between atoms: C_17  and  C_19
REMARK    6  A    between atoms: C_19  and  C_20
REMARK    7  A    between atoms: C_20  and  C_22
REMARK    8  A    between atoms: C_20  and  N_29
REMARK                            x       y       z     vdW  Elec       q    Type
REMARK                         _______ _______ _______ _____ _____    ______ ____
ROOT
ATOM      1  C   UNL     1       2.029  -0.829  -1.609  0.00  0.00    +0.310 C 
ATOM      2  O   UNL     1       2.390  -0.504  -0.502  0.00  0.00    -0.251 OA
ENDROOT
BRANCH   1   3
ATOM      3  O   UNL     1       0.734  -0.730  -1.948  0.00  0.00    -0.452 OA
BRANCH   3   5
ATOM      4  C   UNL     1      -0.269   1.300  -1.050  0.00  0.00    +0.062 C 
ATOM      5  C   UNL     1      -0.176  -0.223  -0.936  0.00  0.00    +0.259 C 
BRANCH   5   6
ATOM      6  C   UNL     1      -1.542  -0.827  -1.142  0.00  0.00    +0.260 C 
ATOM      7  O   UNL     1      -1.771  -1.486  -2.134  0.00  0.00    -0.271 OA
ATOM      8  N   UNL     1      -2.509  -0.634  -0.223  0.00  0.00    -0.268 N 
ATOM      9  C   UNL     1      -2.269   0.226   0.944  0.00  0.00    +0.114 C 
ATOM     10  C   UNL     1      -2.819  -0.491   2.180  0.00  0.00    +0.024 C 
ATOM     11  C   UNL     1      -4.330  -0.662   2.024  0.00  0.00    +0.038 C 
ATOM     12  C   UNL     1      -4.654  -1.291   0.695  0.00  0.00    -0.026 A 
ATOM     13  C   UNL     1      -3.757  -1.256  -0.362  0.00  0.00    +0.040 A 
ATOM     14  C   UNL     1      -4.091  -1.841  -1.577  0.00  0.00    +0.024 A 
ATOM     15  C   UNL     1      -5.315  -2.461  -1.733  0.00  0.00    +0.002 A 
ATOM     16  C   UNL     1      -6.208  -2.498  -0.678  0.00  0.00    +0.000 A 
ATOM     17  C   UNL     1      -5.879  -1.915   0.530  0.00  0.00    +0.005 A 
ENDBRANCH   5   6
ENDBRANCH   3   5
ENDBRANCH   1   3
BRANCH   1  18
ATOM     18  C   UNL     1       3.032  -1.346  -2.607  0.00  0.00    +0.147 C 
BRANCH  18  19
ATOM     19  C   UNL     1       4.424  -1.359  -1.972  0.00  0.00    +0.115 C 
BRANCH  19  20
ATOM     20  C   UNL     1       5.405  -1.990  -2.925  0.00  0.00    -0.027 A 
ATOM     21  C   UNL     1       5.907  -1.257  -3.985  0.00  0.00    +0.007 A 
ATOM     22  C   UNL     1       6.812  -1.834  -4.857  0.00  0.00    +0.020 A 
ATOM     23  C   UNL     1       7.207  -3.147  -4.675  0.00  0.00    +0.041 A 
ATOM     24  C   UNL     1       6.700  -3.881  -3.618  0.00  0.00    +0.020 A 
ATOM     25  C   UNL     1       5.800  -3.302  -2.743  0.00  0.00    +0.007 A 
ATOM     26 CL   UNL     1       8.338  -3.874  -5.774  0.00  0.00    -0.084 Cl
ENDBRANCH  19  20
BRANCH  19  27
ATOM     27  N   UNL     1       4.840   0.015  -1.680  0.00  0.00    -0.292 N 
ATOM     28  C   UNL     1       5.748   0.253  -0.713  0.00  0.00    +0.298 C 
ATOM     29  O   UNL     1       6.286  -0.676  -0.142  0.00  0.00    -0.253 OA
ATOM     30  N   UNL     1       6.059   1.521  -0.379  0.00  0.00    -0.313 N 
ATOM     31  H   UNL     1       4.412   0.852  -2.251  0.00  0.00    +0.151 HD
ATOM     32  H   UNL     1       6.800   1.715   0.411  0.00  0.00    +0.146 HD
ATOM     33  H   UNL     1       5.572   2.361  -0.895  0.00  0.00    +0.146 HD
ENDBRANCH  19  27
ENDBRANCH  18  19
ENDBRANCH   1  18
TORSDOF 7
