REMARK  Name = ZINC58622189
REMARK  9 active torsions:
REMARK  status: ('A' for Active; 'I' for Inactive)
REMARK    1  A    between atoms: C_1  and  C_2
REMARK    2  A    between atoms: C_12  and  C_14
REMARK    3  A    between atoms: C_14  and  S_15
REMARK    4  A    between atoms: S_15  and  C_18
REMARK    5  A    between atoms: C_18  and  C_19
REMARK    6  A    between atoms: C_21  and  C_24
REMARK    7  A    between atoms: C_24  and  C_25
REMARK    8  A    between atoms: C_24  and  C_26
REMARK    9  A    between atoms: C_24  and  C_27
REMARK                            x       y       z     vdW  Elec       q    Type
REMARK                         _______ _______ _______ _____ _____    ______ ____
ROOT
ATOM      1  C   UNL     1       1.581  -0.170   3.446  0.00  0.00    +0.262 C 
ENDROOT
BRANCH   1  13
ATOM      2  C   UNL     1       1.774  -2.233   2.397  0.00  0.00    +0.028 C 
ATOM      3  C   UNL     1       1.569  -1.648   0.998  0.00  0.00    +0.079 C 
ATOM      4  C   UNL     1       0.719  -2.607   0.153  0.00  0.00    +0.027 C 
ATOM      5  C   UNL     1       0.586  -2.037  -1.258  0.00  0.00    +0.039 C 
ATOM      6  C   UNL     1       0.116  -0.607  -1.207  0.00  0.00    -0.026 A 
ATOM      7  C   UNL     1      -0.472  -0.054  -2.333  0.00  0.00    +0.005 A 
ATOM      8  C   UNL     1      -0.911   1.256  -2.318  0.00  0.00    +0.000 A 
ATOM      9  C   UNL     1      -0.763   2.025  -1.178  0.00  0.00    +0.002 A 
ATOM     10  C   UNL     1      -0.178   1.482  -0.052  0.00  0.00    +0.024 A 
ATOM     11  C   UNL     1       0.262   0.163  -0.064  0.00  0.00    +0.040 A 
ATOM     12  N   UNL     1       0.845  -0.373   1.093  0.00  0.00    -0.267 N 
ATOM     13  C   UNL     1       0.745   0.272   2.272  0.00  0.00    +0.241 C 
ATOM     14  O   UNL     1      -0.019   1.206   2.389  0.00  0.00    -0.273 OA
ENDBRANCH   1  13
BRANCH   1  15
ATOM     15  S   UNL     1       1.463   1.064   4.770  0.00  0.00    -0.014 S 
ATOM     16  O   UNL     1       2.055   2.272   4.313  0.00  0.00    -0.173 OA
ATOM     17  O   UNL     1       0.124   1.087   5.245  0.00  0.00    -0.173 OA
BRANCH  15  18
ATOM     18  C   UNL     1       2.519   0.362   6.067  0.00  0.00    +0.264 C 
BRANCH  18  19
ATOM     19  C   UNL     1       2.530   1.283   7.260  0.00  0.00    +0.248 A 
ATOM     20  N   UNL     1       1.705   1.236   8.269  0.00  0.00    -0.194 NA
ATOM     21  C   UNL     1       2.000   2.199   9.149  0.00  0.00    +0.177 A 
ATOM     22  N   UNL     1       3.021   2.875   8.707  0.00  0.00    -0.061 NA
ATOM     23  O   UNL     1       3.390   2.287   7.469  0.00  0.00    -0.336 OA
BRANCH  21  24
ATOM     24  C   UNL     1       1.268   2.461  10.440  0.00  0.00    +0.025 C 
ATOM     25  C   UNL     1       1.348   1.220  11.332  0.00  0.00    +0.019 C 
ATOM     26  C   UNL     1       1.912   3.648  11.159  0.00  0.00    +0.019 C 
ATOM     27  C   UNL     1      -0.198   2.779  10.140  0.00  0.00    +0.019 C 
ENDBRANCH  21  24
ENDBRANCH  18  19
ENDBRANCH  15  18
ENDBRANCH   1  15
TORSDOF 5
