REMARK  Name = ZINC19808256
REMARK  9 active torsions:
REMARK  status: ('A' for Active; 'I' for Inactive)
REMARK    1  A    between atoms: C_1  and  C_2
REMARK    2  A    between atoms: C_3  and  C_30
REMARK    3  A    between atoms: C_4  and  C_10
REMARK    4  A    between atoms: N_12  and  C_21
REMARK    5  A    between atoms: C_14  and  C_15
REMARK    6  A    between atoms: C_24  and  O_28
REMARK    7  A    between atoms: O_28  and  C_29
REMARK    8  A    between atoms: C_30  and  O_32
REMARK    9  A    between atoms: O_32  and  C_33
REMARK                            x       y       z     vdW  Elec       q    Type
REMARK                         _______ _______ _______ _____ _____    ______ ____
ROOT
ATOM      1  C   UNL     1      -4.237   4.687   0.415  0.00  0.00    +0.023 A 
ATOM      2  C   UNL     1      -3.472   3.587   0.589  0.00  0.00    +0.121 A 
ATOM      3  N   UNL     1      -2.170   3.974   0.543  0.00  0.00    -0.239 N 
ATOM      4  N   UNL     1      -2.136   5.357   0.325  0.00  0.00    -0.166 NA
ATOM      5  C   UNL     1      -3.377   5.791   0.247  0.00  0.00    +0.098 A 
ENDROOT
BRANCH   1   9
ATOM      6  C   UNL     1      -7.585   1.386   0.956  0.00  0.00    +0.061 C 
ATOM      7  C   UNL     1      -7.064   2.789   1.126  0.00  0.00    +0.021 C 
ATOM      8  C   UNL     1      -6.244   3.312   0.188  0.00  0.00    +0.078 C 
ATOM      9  C   UNL     1      -5.743   4.726   0.398  0.00  0.00    +0.147 C 
ATOM     10  N   UNL     1      -6.194   5.419   1.616  0.00  0.00    -0.288 N 
ATOM     11  C   UNL     1      -7.014   4.764   2.461  0.00  0.00    +0.304 C 
ATOM     12  O   UNL     1      -7.391   5.328   3.470  0.00  0.00    -0.252 OA
ATOM     13  N   UNL     1      -7.427   3.513   2.226  0.00  0.00    -0.273 N 
ATOM     14  H   UNL     1      -5.861   6.448   1.819  0.00  0.00    +0.151 HD
ATOM     15  H   UNL     1      -8.095   3.070   2.979  0.00  0.00    +0.156 HD
BRANCH   8  16
ATOM     16  C   UNL     1      -5.867   2.564  -0.952  0.00  0.00    +0.338 C 
ATOM     17  O   UNL     1      -6.183   1.392  -1.043  0.00  0.00    -0.245 OA
BRANCH  16  18
ATOM     18  O   UNL     1      -5.158   3.150  -1.939  0.00  0.00    -0.465 OA
ATOM     19  C   UNL     1      -4.910   2.370  -3.111  0.00  0.00    +0.280 C 
ENDBRANCH  16  18
ENDBRANCH   8  16
ENDBRANCH   1   9
BRANCH   3  20
ATOM     20  C   UNL     1      -1.056   3.134   0.682  0.00  0.00    +0.067 A 
ATOM     21  C   UNL     1       0.226   3.663   0.608  0.00  0.00    +0.031 A 
ATOM     22  C   UNL     1       1.323   2.836   0.746  0.00  0.00    +0.049 A 
ATOM     23  C   UNL     1       1.145   1.476   0.959  0.00  0.00    +0.134 A 
ATOM     24  C   UNL     1      -0.136   0.947   1.033  0.00  0.00    +0.061 A 
ATOM     25  C   UNL     1      -1.234   1.773   0.889  0.00  0.00    +0.046 A 
ATOM     26 BR   UNL     1      -0.378  -0.906   1.322  0.00  0.00    -0.046 Br
BRANCH  23  27
ATOM     27  O   UNL     1       2.226   0.663   1.095  0.00  0.00    -0.494 OA
ATOM     28  C   UNL     1       3.514   1.275   1.008  0.00  0.00    +0.277 C 
ENDBRANCH  23  27
ENDBRANCH   3  20
BRANCH   5  29
ATOM     29  C   UNL     1      -3.797   7.196   0.022  0.00  0.00    +0.002 A 
ATOM     30  C   UNL     1      -4.792   7.488  -0.909  0.00  0.00    +0.010 A 
ATOM     31  C   UNL     1      -5.183   8.796  -1.110  0.00  0.00    +0.001 A 
ATOM     32  C   UNL     1      -4.580   9.818  -0.399  0.00  0.00    +0.000 A 
ATOM     33  C   UNL     1      -3.588   9.534   0.523  0.00  0.00    +0.001 A 
ATOM     34  C   UNL     1      -3.194   8.229   0.736  0.00  0.00    +0.010 A 
ENDBRANCH   5  29
TORSDOF 6
