REMARK  Name = ZINC08987146
REMARK  12 active torsions:
REMARK  status: ('A' for Active; 'I' for Inactive)
REMARK    1  A    between atoms: C_1  and  C_2
REMARK    2  A    between atoms: C_2  and  C_4
REMARK    3  A    between atoms: C_2  and  N_66
REMARK    4  A    between atoms: C_8  and  N_10
REMARK    5  A    between atoms: C_11  and  C_13
REMARK    6  A    between atoms: C_14  and  C_15
REMARK    7  A    between atoms: C_14  and  N_66
REMARK    8  A    between atoms: C_21  and  C_22
REMARK    9  A    between atoms: C_21  and  N_66
REMARK   10  A    between atoms: N_24  and  C_25
REMARK   11  A    between atoms: C_25  and  C_27
REMARK   12  A    between atoms: C_25  and  C_28
REMARK                            x       y       z     vdW  Elec       q    Type
REMARK                         _______ _______ _______ _____ _____    ______ ____
ROOT
ATOM      1  N   UNL     1      -6.864   0.791   0.369  0.00  0.00    +0.392 N 
ATOM      2  H   UNL     1      -6.946  -0.195   0.095  0.00  0.00    -0.080 HD
ENDROOT
BRANCH   1   4
ATOM      3  C   UNL     1      -6.196   1.283  -1.934  0.00  0.00    -0.008 C 
ATOM      4  C   UNL     1      -5.822   1.435  -0.458  0.00  0.00    -0.040 C 
BRANCH   4   5
ATOM      5  C   UNL     1      -4.503   0.754  -0.201  0.00  0.00    -0.059 A 
ATOM      6  C   UNL     1      -4.454  -0.618  -0.036  0.00  0.00    +0.002 A 
ATOM      7  C   UNL     1      -3.246  -1.246   0.201  0.00  0.00    +0.002 A 
ATOM      8  C   UNL     1      -2.082  -0.506   0.266  0.00  0.00    +0.023 A 
ATOM      9  C   UNL     1      -2.128   0.873   0.106  0.00  0.00    +0.034 A 
ATOM     10  C   UNL     1      -3.343   1.501  -0.131  0.00  0.00    +0.025 A 
BRANCH   9  11
ATOM     11  N   UNL     1      -0.951   1.627   0.179  0.00  0.00    -0.286 N 
ATOM     12  C   UNL     1       0.035   1.258   1.020  0.00  0.00    +0.214 C 
ATOM     13  O   UNL     1      -0.132   0.327   1.780  0.00  0.00    -0.276 OA
ATOM     14  C   UNL     1       1.348   1.997   1.012  0.00  0.00    +0.109 C 
ATOM     15  H   UNL     1      -0.845   2.415  -0.377  0.00  0.00    +0.155 HD
ENDBRANCH   9  11
ENDBRANCH   4   5
ENDBRANCH   1   4
BRANCH   1  16
ATOM     16  C   UNL     1      -6.492   0.863   1.797  0.00  0.00    -0.042 C 
BRANCH  16  17
ATOM     17  C   UNL     1      -7.359  -0.095   2.573  0.00  0.00    -0.064 A 
ATOM     18  C   UNL     1      -8.567   0.332   3.092  0.00  0.00    +0.002 A 
ATOM     19  C   UNL     1      -9.364  -0.549   3.799  0.00  0.00    +0.000 A 
ATOM     20  C   UNL     1      -8.949  -1.853   3.996  0.00  0.00    +0.000 A 
ATOM     21  C   UNL     1      -7.739  -2.277   3.481  0.00  0.00    +0.000 A 
ATOM     22  C   UNL     1      -6.943  -1.399   2.769  0.00  0.00    +0.002 A 
ENDBRANCH  16  17
ENDBRANCH   1  16
BRANCH   1  23
ATOM     23  C   UNL     1      -8.165   1.459   0.152  0.00  0.00    +0.020 C 
BRANCH  23  24
ATOM     24  C   UNL     1      -8.096   2.902   0.580  0.00  0.00    +0.197 C 
ATOM     25  O   UNL     1      -7.040   3.380   0.936  0.00  0.00    -0.278 OA
ATOM     26  N   UNL     1      -9.209   3.663   0.567  0.00  0.00    -0.307 N 
ATOM     27  H   UNL     1     -10.067   3.264   0.353  0.00  0.00    +0.149 HD
BRANCH  26  28
ATOM     28  C   UNL     1      -9.122   5.093   0.874  0.00  0.00    +0.136 C 
ATOM     29  C   UNL     1      -8.815   5.872  -0.406  0.00  0.00    +0.036 C 
BRANCH  28  30
ATOM     30  C   UNL     1     -10.435   5.564   1.446  0.00  0.00    +0.126 A 
ATOM     31  C   UNL     1     -10.563   6.428   2.462  0.00  0.00    +0.055 A 
ATOM     32  C   UNL     1     -12.005   6.595   2.678  0.00  0.00    +0.020 A 
ATOM     33  C   UNL     1     -12.777   7.342   3.566  0.00  0.00    +0.011 A 
ATOM     34  C   UNL     1     -14.142   7.273   3.501  0.00  0.00    +0.001 A 
ATOM     35  C   UNL     1     -14.760   6.463   2.559  0.00  0.00    +0.004 A 
ATOM     36  C   UNL     1     -14.012   5.717   1.674  0.00  0.00    +0.047 A 
ATOM     37  C   UNL     1     -12.625   5.774   1.722  0.00  0.00    +0.135 A 
ATOM     38  O   UNL     1     -11.647   5.182   1.007  0.00  0.00    -0.458 OA
ENDBRANCH  28  30
ENDBRANCH  26  28
ENDBRANCH  23  24
ENDBRANCH   1  23
TORSDOF 9
