REMARK  Name = ZINC45994518
REMARK  9 active torsions:
REMARK  status: ('A' for Active; 'I' for Inactive)
REMARK    1  A    between atoms: C_1  and  C_2
REMARK    2  A    between atoms: C_2  and  O_3
REMARK    3  A    between atoms: O_3  and  C_4
REMARK    4  A    between atoms: N_15  and  C_29
REMARK    5  A    between atoms: N_16  and  C_17
REMARK    6  A    between atoms: C_17  and  C_18
REMARK    7  A    between atoms: N_20  and  C_21
REMARK    8  A    between atoms: C_25  and  C_28
REMARK    9  A    between atoms: C_26  and  C_27
REMARK                            x       y       z     vdW  Elec       q    Type
REMARK                         _______ _______ _______ _____ _____    ______ ____
ROOT
ATOM      1  C   UNL     1       0.821  -1.982  -1.686  0.00  0.00    +0.163 A 
ATOM      2  C   UNL     1       0.061  -2.795  -0.863  0.00  0.00    +0.049 A 
ATOM      3  C   UNL     1      -0.185  -4.106  -1.227  0.00  0.00    +0.004 A 
ATOM      4  C   UNL     1       0.327  -4.601  -2.410  0.00  0.00    +0.008 A 
ATOM      5  C   UNL     1       1.089  -3.793  -3.240  0.00  0.00    +0.003 A 
ATOM      6  C   UNL     1       1.334  -2.479  -2.886  0.00  0.00    +0.175 A 
ATOM      7  O   UNL     1       2.067  -1.635  -3.663  0.00  0.00    -0.434 OA
ATOM      8  C   UNL     1       2.301  -1.989  -4.942  0.00  0.00    +0.226 A 
ATOM      9  C   UNL     1       2.107  -3.262  -5.405  0.00  0.00    +0.085 A 
ATOM     10  C   UNL     1       2.439  -3.290  -6.761  0.00  0.00    +0.279 A 
ATOM     11  O   UNL     1       2.383  -4.262  -7.494  0.00  0.00    -0.265 OA
ATOM     12  N   UNL     1       2.831  -2.047  -7.115  0.00  0.00    -0.214 N 
ATOM     13  N   UNL     1       2.748  -1.226  -5.979  0.00  0.00    -0.236 N 
ATOM     14  C   UNL     1       1.625  -4.386  -4.522  0.00  0.00    +0.085 C 
ENDROOT
BRANCH  12  15
ATOM     15  C   UNL     1       3.248  -1.648  -8.389  0.00  0.00    +0.067 A 
ATOM     16  C   UNL     1       2.721  -0.499  -8.965  0.00  0.00    +0.028 A 
ATOM     17  C   UNL     1       3.135  -0.107 -10.223  0.00  0.00    +0.002 A 
ATOM     18  C   UNL     1       4.073  -0.857 -10.909  0.00  0.00    +0.000 A 
ATOM     19  C   UNL     1       4.599  -2.001 -10.338  0.00  0.00    +0.002 A 
ATOM     20  C   UNL     1       4.194  -2.396  -9.078  0.00  0.00    +0.028 A 
ENDBRANCH  12  15
BRANCH   1  21
ATOM     21  O   UNL     1       1.064  -0.693  -1.328  0.00  0.00    -0.489 OA
BRANCH  21  23
ATOM     22  C   UNL     1       0.886   1.216   0.143  0.00  0.00    +0.048 C 
ATOM     23  C   UNL     1       0.509  -0.249  -0.088  0.00  0.00    +0.226 C 
ENDBRANCH  21  23
ENDBRANCH   1  21
BRANCH  13  24
ATOM     24  C   UNL     1       3.082   0.199  -5.920  0.00  0.00    +0.241 C 
BRANCH  24  25
ATOM     25  C   UNL     1       1.832   1.017  -6.113  0.00  0.00    +0.239 C 
ATOM     26  O   UNL     1       0.766   0.464  -6.284  0.00  0.00    -0.273 OA
ATOM     27  N   UNL     1       1.897   2.363  -6.096  0.00  0.00    -0.284 N 
ATOM     28  H   UNL     1       2.759   2.806  -6.038  0.00  0.00    +0.155 HD
BRANCH  27  29
ATOM     29  C   UNL     1       0.724   3.122  -6.163  0.00  0.00    +0.037 A 
ATOM     30  C   UNL     1      -0.396   2.616  -6.812  0.00  0.00    +0.023 A 
ATOM     31  C   UNL     1      -1.553   3.368  -6.876  0.00  0.00    +0.002 A 
ATOM     32  C   UNL     1      -1.597   4.622  -6.295  0.00  0.00    +0.004 A 
ATOM     33  C   UNL     1      -0.485   5.128  -5.649  0.00  0.00    -0.046 A 
ATOM     34  C   UNL     1       0.674   4.379  -5.576  0.00  0.00    -0.026 A 
ATOM     35  C   UNL     1       1.884   4.928  -4.865  0.00  0.00    +0.046 C 
ATOM     36  C   UNL     1      -0.538   6.496  -5.019  0.00  0.00    +0.044 C 
ENDBRANCH  27  29
ENDBRANCH  24  25
ENDBRANCH  13  24
TORSDOF 6
