REMARK  Name = ZINC12758895
REMARK  8 active torsions:
REMARK  status: ('A' for Active; 'I' for Inactive)
REMARK    1  A    between atoms: C_1  and  N_2
REMARK    2  A    between atoms: N_2  and  C_3
REMARK    3  A    between atoms: N_2  and  S_4
REMARK    4  A    between atoms: S_4  and  C_7
REMARK    5  A    between atoms: C_11  and  N_13
REMARK    6  A    between atoms: C_14  and  C_16
REMARK    7  A    between atoms: C_16  and  N_56
REMARK    8  A    between atoms: C_24  and  C_26
REMARK                            x       y       z     vdW  Elec       q    Type
REMARK                         _______ _______ _______ _____ _____    ______ ____
ROOT
ATOM      1  C   UNL     1      -4.888   0.923   0.245  0.00  0.00    +0.020 C 
ENDROOT
BRANCH   1  10
ATOM      2  C   UNL     1      -5.943   2.797   1.359  0.00  0.00    -0.072 C 
ATOM      3  C   UNL     1      -7.318   3.461   1.548  0.00  0.00    +0.024 C 
ATOM      4  C   UNL     1      -7.801   3.896   0.203  0.00  0.00    -0.010 A 
ATOM      5  C   UNL     1      -7.298   3.517  -1.004  0.00  0.00    -0.047 A 
ATOM      6  C   UNL     1      -7.912   4.057  -2.132  0.00  0.00    +0.010 A 
ATOM      7  C   UNL     1      -8.954   4.909  -1.992  0.00  0.00    +0.045 A 
ATOM      8  S   UNL     1      -9.124   4.996  -0.215  0.00  0.00    -0.101 S 
ATOM      9  C   UNL     1      -6.120   2.548  -1.059  0.00  0.00    -0.005 C 
ATOM     10  N   UNL     1      -6.050   1.833   0.238  0.00  0.00    +0.393 N 
ATOM     11  H   UNL     1      -6.907   1.280   0.357  0.00  0.00    -0.080 HD
BRANCH   9  12
ATOM     12  C   UNL     1      -6.344   1.541  -2.157  0.00  0.00    -0.057 A 
ATOM     13  C   UNL     1      -7.188   0.466  -1.947  0.00  0.00    +0.002 A 
ATOM     14  C   UNL     1      -7.396  -0.456  -2.956  0.00  0.00    +0.000 A 
ATOM     15  C   UNL     1      -6.755  -0.308  -4.171  0.00  0.00    +0.000 A 
ATOM     16  C   UNL     1      -5.908   0.765  -4.380  0.00  0.00    +0.000 A 
ATOM     17  C   UNL     1      -5.702   1.689  -3.372  0.00  0.00    +0.002 A 
ENDBRANCH   9  12
ENDBRANCH   1  10
BRANCH   1  19
ATOM     18  N   UNL     1      -2.422   1.043   0.101  0.00  0.00    -0.287 N 
ATOM     19  C   UNL     1      -3.601   1.696   0.118  0.00  0.00    +0.201 C 
ATOM     20  O   UNL     1      -3.625   2.905   0.030  0.00  0.00    -0.278 OA
ATOM     21  H   UNL     1      -2.404   0.073   0.097  0.00  0.00    +0.155 HD
BRANCH  18  26
ATOM     22  C   UNL     1       1.065   1.979  -0.595  0.00  0.00    +0.107 A 
ATOM     23  C   UNL     1       1.146   3.193   0.063  0.00  0.00    +0.028 A 
ATOM     24  C   UNL     1       0.047   3.693   0.736  0.00  0.00    +0.004 A 
ATOM     25  C   UNL     1      -1.136   2.980   0.754  0.00  0.00    +0.023 A 
ATOM     26  C   UNL     1      -1.223   1.764   0.090  0.00  0.00    +0.035 A 
ATOM     27  C   UNL     1      -0.115   1.262  -0.581  0.00  0.00    +0.051 A 
BRANCH  22  28
ATOM     28  S   UNL     1       2.469   1.347  -1.452  0.00  0.00    +0.060 S 
ATOM     29  O   UNL     1       3.612   1.946  -0.857  0.00  0.00    -0.153 OA
ATOM     30  O   UNL     1       2.299  -0.062  -1.527  0.00  0.00    -0.153 OA
BRANCH  28  32
ATOM     31  C   UNL     1       3.026   3.190  -3.351  0.00  0.00    +0.131 C 
ATOM     32  N   UNL     1       2.391   1.916  -3.005  0.00  0.00    -0.183 NA
ATOM     33  C   UNL     1       1.688   1.145  -4.034  0.00  0.00    +0.131 C 
ENDBRANCH  28  32
ENDBRANCH  22  28
ENDBRANCH  18  26
ENDBRANCH   1  19
TORSDOF 6
