REMARK  Name = ZINC59514449
REMARK  4 active torsions:
REMARK  status: ('A' for Active; 'I' for Inactive)
REMARK    1  A    between atoms: C_5  and  N_7
REMARK    2  A    between atoms: N_8  and  C_9
REMARK    3  A    between atoms: C_12  and  O_23
REMARK    4  A    between atoms: C_13  and  C_15
REMARK                            x       y       z     vdW  Elec       q    Type
REMARK                         _______ _______ _______ _____ _____    ______ ____
ROOT
ATOM      1  C   UNL     1      -1.101  -2.100  -0.449  0.00  0.00    +0.087 A 
ATOM      2  C   UNL     1      -1.072  -0.702  -0.355  0.00  0.00    +0.033 A 
ATOM      3  C   UNL     1      -2.213  -0.004  -0.027  0.00  0.00    +0.048 A 
ATOM      4  C   UNL     1      -3.402  -0.679   0.213  0.00  0.00    +0.124 A 
ATOM      5  C   UNL     1      -3.445  -2.082   0.122  0.00  0.00    +0.020 A 
ATOM      6  C   UNL     1      -2.290  -2.789  -0.216  0.00  0.00    +0.041 A 
ENDROOT
BRANCH   5   7
ATOM      7  C   UNL     1      -4.701  -2.799   0.375  0.00  0.00    +0.032 C 
ATOM      8  C   UNL     1      -4.687  -3.974   1.053  0.00  0.00    +0.080 C 
ATOM      9  C   UNL     1      -3.567  -4.656   1.732  0.00  0.00    +0.258 C 
ATOM     10  O   UNL     1      -2.446  -4.181   1.749  0.00  0.00    -0.269 OA
ATOM     11  N   UNL     1      -3.842  -5.807   2.321  0.00  0.00    -0.243 N 
ATOM     12  C   UNL     1      -5.086  -6.329   2.299  0.00  0.00    +0.283 C 
ATOM     13  O   UNL     1      -5.477  -7.369   2.794  0.00  0.00    -0.262 OA
ATOM     14  S   UNL     1      -6.020  -5.120   1.376  0.00  0.00    -0.026 S 
ATOM     15  H   UNL     1      -3.134  -6.287   2.778  0.00  0.00    +0.159 HD
ENDBRANCH   5   7
BRANCH   1  17
ATOM     16  N   UNL     1      -0.045  -4.011  -1.172  0.00  0.00    -0.148 NA
ATOM     17  N   UNL     1       0.034  -2.786  -0.775  0.00  0.00    -0.149 NA
BRANCH  16  22
ATOM     18  C   UNL     1      -3.205  -4.040  -3.000  0.00  0.00    +0.002 A 
ATOM     19  C   UNL     1      -3.515  -5.389  -2.954  0.00  0.00    +0.002 A 
ATOM     20  C   UNL     1      -2.671  -6.279  -2.315  0.00  0.00    +0.022 A 
ATOM     21  C   UNL     1      -1.510  -5.827  -1.718  0.00  0.00    +0.068 A 
ATOM     22  C   UNL     1      -1.191  -4.466  -1.761  0.00  0.00    +0.104 A 
ATOM     23  C   UNL     1      -2.050  -3.574  -2.409  0.00  0.00    +0.031 A 
ATOM     24 CL   UNL     1      -0.452  -6.945  -0.916  0.00  0.00    -0.081 Cl
ENDBRANCH  16  22
ENDBRANCH   1  17
BRANCH   4  25
ATOM     25  O   UNL     1      -4.522   0.014   0.537  0.00  0.00    -0.506 OA
ATOM     26  H   UNL     1      -5.055   0.278  -0.226  0.00  0.00    +0.292 HD
ENDBRANCH   4  25
TORSDOF 4
