REMARK  Name = ZINC16026354
REMARK  5 active torsions:
REMARK  status: ('A' for Active; 'I' for Inactive)
REMARK    1  A    between atoms: C_1  and  O_2
REMARK    2  A    between atoms: O_2  and  C_3
REMARK    3  A    between atoms: C_7  and  N_9
REMARK    4  A    between atoms: C_14  and  C_31
REMARK    5  A    between atoms: C_31  and  C_32
REMARK                            x       y       z     vdW  Elec       q    Type
REMARK                         _______ _______ _______ _____ _____    ______ ____
ROOT
ATOM      1  N   UNL     1       2.042  -4.134   2.465  0.00  0.00    -0.210 N 
ATOM      2  C   UNL     1       1.139  -4.889   1.829  0.00  0.00    +0.232 C 
ATOM      3  O   UNL     1       0.166  -4.470   1.238  0.00  0.00    -0.274 OA
ATOM      4  C   UNL     1       1.519  -6.346   1.962  0.00  0.00    +0.108 C 
ATOM      5  C   UNL     1       1.925  -6.895   0.578  0.00  0.00    +0.072 C 
ATOM      6  N   UNL     1       3.374  -6.582   0.452  0.00  0.00    -0.295 NA
ATOM      7  C   UNL     1       3.911  -6.815   1.806  0.00  0.00    +0.136 C 
ATOM      8  C   UNL     1       2.832  -6.300   2.792  0.00  0.00    +0.123 C 
ATOM      9  C   UNL     1       3.036  -4.822   3.037  0.00  0.00    +0.233 C 
ATOM     10  O   UNL     1       3.957  -4.336   3.658  0.00  0.00    -0.274 OA
ATOM     11  C   UNL     1       5.225  -6.117   2.006  0.00  0.00    +0.003 A 
ATOM     12  C   UNL     1       5.619  -4.799   1.942  0.00  0.00    +0.008 A 
ATOM     13  C   UNL     1       6.938  -4.458   2.182  0.00  0.00    +0.000 A 
ATOM     14  C   UNL     1       7.860  -5.443   2.485  0.00  0.00    +0.002 A 
ATOM     15  C   UNL     1       7.470  -6.765   2.552  0.00  0.00    +0.023 A 
ATOM     16  C   UNL     1       6.144  -7.117   2.312  0.00  0.00    +0.039 A 
ATOM     17  N   UNL     1       5.516  -8.364   2.322  0.00  0.00    -0.283 N 
ATOM     18  C   UNL     1       4.202  -8.273   2.035  0.00  0.00    +0.243 C 
ATOM     19  O   UNL     1       3.410  -9.189   1.974  0.00  0.00    -0.273 OA
ATOM     20  H   UNL     1       3.817  -7.188  -0.222  0.00  0.00    +0.124 HD
ATOM     21  H   UNL     1       5.972  -9.199   2.513  0.00  0.00    +0.155 HD
ENDROOT
BRANCH   1  26
ATOM     22  C   UNL     1       1.631  -0.721   3.785  0.00  0.00    +0.122 A 
ATOM     23  C   UNL     1       1.788   0.028   2.626  0.00  0.00    +0.046 A 
ATOM     24  C   UNL     1       2.027  -0.604   1.421  0.00  0.00    +0.005 A 
ATOM     25  C   UNL     1       2.112  -1.982   1.365  0.00  0.00    +0.024 A 
ATOM     26  C   UNL     1       1.956  -2.736   2.521  0.00  0.00    +0.047 A 
ATOM     27  C   UNL     1       1.721  -2.103   3.733  0.00  0.00    +0.069 A 
BRANCH  22  29
ATOM     28  C   UNL     1       1.316   1.329   4.948  0.00  0.00    +0.277 C 
ATOM     29  O   UNL     1       1.396  -0.098   4.970  0.00  0.00    -0.495 OA
ENDBRANCH  22  29
ENDBRANCH   1  26
BRANCH   5  30
ATOM     30  C   UNL     1       1.698  -8.407   0.517  0.00  0.00    +0.056 C 
BRANCH  30  31
ATOM     31  C   UNL     1       0.326  -8.687  -0.039  0.00  0.00    -0.021 A 
ATOM     32  C   UNL     1      -0.795  -8.900   0.668  0.00  0.00    +0.087 A 
ATOM     33  N   UNL     1      -1.847  -9.120  -0.179  0.00  0.00    -0.360 N 
ATOM     34  H   UNL     1      -2.759  -9.298   0.100  0.00  0.00    +0.165 HD
ATOM     35  C   UNL     1      -1.418  -9.053  -1.485  0.00  0.00    +0.047 A 
ATOM     36  C   UNL     1      -0.039  -8.772  -1.455  0.00  0.00    +0.003 A 
ATOM     37  C   UNL     1       0.671  -8.639  -2.650  0.00  0.00    +0.010 A 
ATOM     38  C   UNL     1       0.021  -8.780  -3.844  0.00  0.00    +0.001 A 
ATOM     39  C   UNL     1      -1.339  -9.053  -3.879  0.00  0.00    +0.002 A 
ATOM     40  C   UNL     1      -2.057  -9.197  -2.712  0.00  0.00    +0.026 A 
ENDBRANCH  30  31
ENDBRANCH   5  30
TORSDOF 4
