REMARK  Name = ZINC63515487
REMARK  11 active torsions:
REMARK  status: ('A' for Active; 'I' for Inactive)
REMARK    1  A    between atoms: C_1  and  C_2
REMARK    2  A    between atoms: C_4  and  O_31
REMARK    3  A    between atoms: C_5  and  S_9
REMARK    4  A    between atoms: S_9  and  N_12
REMARK    5  A    between atoms: N_12  and  C_13
REMARK    6  A    between atoms: C_13  and  C_14
REMARK    7  A    between atoms: C_14  and  C_15
REMARK    8  A    between atoms: C_18  and  O_26
REMARK    9  A    between atoms: C_23  and  C_25
REMARK   10  A    between atoms: O_26  and  C_27
REMARK   11  A    between atoms: O_31  and  C_32
REMARK                            x       y       z     vdW  Elec       q    Type
REMARK                         _______ _______ _______ _____ _____    ______ ____
ROOT
ATOM      1  C   UNL     1      -2.850  -5.321  -2.460  0.00  0.00    +0.050 C 
ENDROOT
BRANCH   1   2
ATOM      2  C   UNL     1      -2.888  -5.001  -3.932  0.00  0.00    -0.037 C 
ATOM      3  C   UNL     1      -2.013  -4.232  -4.620  0.00  0.00    +0.003 A 
ATOM      4  C   UNL     1      -0.812  -3.491  -4.221  0.00  0.00    +0.056 A 
ATOM      5  C   UNL     1      -0.120  -2.791  -5.152  0.00  0.00    +0.131 A 
ATOM      6  C   UNL     1      -0.512  -2.746  -6.501  0.00  0.00    +0.048 A 
ATOM      7  C   UNL     1      -1.602  -3.395  -6.964  0.00  0.00    +0.029 A 
ATOM      8  C   UNL     1      -2.425  -4.184  -6.042  0.00  0.00    +0.043 A 
ATOM      9  N   UNL     1      -3.510  -4.894  -6.225  0.00  0.00    -0.378 N 
ATOM     10  C   UNL     1      -3.908  -5.481  -4.941  0.00  0.00    +0.103 C 
ATOM     11  C   UNL     1      -3.887  -7.008  -5.025  0.00  0.00    +0.035 C 
ATOM     12  H   UNL     1      -3.971  -5.016  -7.070  0.00  0.00    +0.160 HD
BRANCH   5  13
ATOM     13  O   UNL     1       0.991  -2.109  -4.768  0.00  0.00    -0.406 OA
BRANCH  13  14
ATOM     14  C   UNL     1       1.690  -1.384  -5.782  0.00  0.00    +0.575 C 
ATOM     15  F   UNL     1       0.837  -0.428  -6.344  0.00  0.00    -0.133 F 
ATOM     16  F   UNL     1       2.799  -0.745  -5.218  0.00  0.00    -0.133 F 
ATOM     17  F   UNL     1       2.118  -2.270  -6.777  0.00  0.00    -0.133 F 
ENDBRANCH  13  14
ENDBRANCH   5  13
ENDBRANCH   1   2
BRANCH   1  18
ATOM     18  C   UNL     1      -1.647  -4.625  -1.818  0.00  0.00    +0.110 C 
BRANCH  18  19
ATOM     19  N   UNL     1      -1.601  -4.949  -0.390  0.00  0.00    -0.190 NA
ATOM     20  H   UNL     1      -1.181  -5.771  -0.092  0.00  0.00    +0.148 HD
BRANCH  19  21
ATOM     21  S   UNL     1      -2.267  -3.911   0.716  0.00  0.00    +0.062 S 
ATOM     22  O   UNL     1      -1.790  -2.613   0.393  0.00  0.00    -0.153 OA
ATOM     23  O   UNL     1      -2.070  -4.499   1.994  0.00  0.00    -0.153 OA
BRANCH  21  28
ATOM     24  C   UNL     1      -8.226  -3.853  -0.254  0.00  0.00    +0.045 C 
ATOM     25  C   UNL     1      -6.739  -3.866  -0.014  0.00  0.00    -0.029 A 
ATOM     26  C   UNL     1      -5.886  -3.287  -0.934  0.00  0.00    +0.052 A 
ATOM     27  C   UNL     1      -4.517  -3.299  -0.713  0.00  0.00    +0.147 A 
ATOM     28  C   UNL     1      -4.006  -3.893   0.432  0.00  0.00    +0.148 A 
ATOM     29  C   UNL     1      -4.862  -4.471   1.350  0.00  0.00    +0.052 A 
ATOM     30  C   UNL     1      -6.228  -4.453   1.130  0.00  0.00    +0.046 A 
ATOM     31 CL   UNL     1      -7.302  -5.174   2.288  0.00  0.00    -0.083 Cl
BRANCH  27  32
ATOM     32  O   UNL     1      -3.676  -2.731  -1.617  0.00  0.00    -0.493 OA
ATOM     33  C   UNL     1      -4.266  -2.193  -2.803  0.00  0.00    +0.277 C 
ENDBRANCH  27  32
ENDBRANCH  21  28
ENDBRANCH  19  21
ENDBRANCH  18  19
ENDBRANCH   1  18
TORSDOF 8
