REMARK  Name = ZINC28625943
REMARK  9 active torsions:
REMARK  status: ('A' for Active; 'I' for Inactive)
REMARK    1  A    between atoms: C_1  and  C_2
REMARK    2  A    between atoms: C_2  and  C_4
REMARK    3  A    between atoms: C_2  and  N_7
REMARK    4  A    between atoms: C_4  and  O_5
REMARK    5  A    between atoms: O_5  and  C_6
REMARK    6  A    between atoms: C_8  and  C_10
REMARK    7  A    between atoms: C_10  and  S_11
REMARK    8  A    between atoms: S_11  and  C_12
REMARK    9  A    between atoms: N_22  and  C_23
REMARK                            x       y       z     vdW  Elec       q    Type
REMARK                         _______ _______ _______ _____ _____    ______ ____
ROOT
ATOM      1  C   UNL     1      -1.324   0.680   2.037  0.00  0.00    +0.173 A 
ATOM      2  N   UNL     1      -1.977   1.042   3.113  0.00  0.00    -0.223 NA
ATOM      3  C   UNL     1      -2.102   2.339   3.461  0.00  0.00    +0.079 A 
ATOM      4  C   UNL     1      -2.799   2.726   4.609  0.00  0.00    +0.028 A 
ATOM      5  C   UNL     1      -2.901   4.051   4.924  0.00  0.00    +0.002 A 
ATOM      6  C   UNL     1      -2.321   5.024   4.119  0.00  0.00    +0.001 A 
ATOM      7  C   UNL     1      -1.632   4.677   2.990  0.00  0.00    +0.015 A 
ATOM      8  C   UNL     1      -1.513   3.331   2.644  0.00  0.00    +0.065 A 
ATOM      9  C   UNL     1      -0.781   2.900   1.446  0.00  0.00    +0.263 A 
ATOM     10  O   UNL     1      -0.249   3.706   0.706  0.00  0.00    -0.267 OA
ATOM     11  N   UNL     1      -0.725   1.571   1.192  0.00  0.00    -0.284 N 
ENDROOT
BRANCH  11  12
ATOM     12  C   UNL     1      -0.013   1.086   0.008  0.00  0.00    +0.093 C 
ATOM     13  C   UNL     1      -0.731   1.559  -1.273  0.00  0.00    +0.025 C 
ATOM     14  C   UNL     1       0.027   2.847  -1.679  0.00  0.00    +0.002 C 
ATOM     15  C   UNL     1       1.498   2.499  -1.343  0.00  0.00    +0.002 C 
ATOM     16  C   UNL     1       1.404   1.684  -0.036  0.00  0.00    +0.025 C 
ENDBRANCH  11  12
BRANCH   1  17
ATOM     17  S   UNL     1      -1.213  -1.038   1.660  0.00  0.00    -0.078 S 
BRANCH  17  18
ATOM     18  C   UNL     1      -2.142  -1.726   3.053  0.00  0.00    +0.173 C 
BRANCH  18  20
ATOM     19  N   UNL     1      -2.823  -3.959   3.870  0.00  0.00    -0.310 N 
ATOM     20  C   UNL     1      -2.181  -3.228   2.938  0.00  0.00    +0.224 C 
ATOM     21  O   UNL     1      -1.633  -3.779   2.007  0.00  0.00    -0.275 OA
ATOM     22  H   UNL     1      -3.320  -3.458   4.715  0.00  0.00    +0.149 HD
BRANCH  19  24
ATOM     23  C   UNL     1      -1.593  -6.010   4.380  0.00  0.00    +0.030 C 
ATOM     24  C   UNL     1      -2.861  -5.419   3.759  0.00  0.00    +0.095 C 
BRANCH  24  25
ATOM     25  C   UNL     1      -4.088  -5.955   4.497  0.00  0.00    +0.181 C 
BRANCH  25  26
ATOM     26  O   UNL     1      -3.959  -5.686   5.895  0.00  0.00    -0.381 OA
ATOM     27  C   UNL     1      -5.060  -6.149   6.680  0.00  0.00    +0.194 C 
ENDBRANCH  25  26
ENDBRANCH  24  25
ENDBRANCH  19  24
ENDBRANCH  18  20
ENDBRANCH  17  18
ENDBRANCH   1  17
TORSDOF 7
