REMARK  Name = ZINC13134525
REMARK  11 active torsions:
REMARK  status: ('A' for Active; 'I' for Inactive)
REMARK    1  A    between atoms: C_1  and  C_2
REMARK    2  A    between atoms: C_2  and  O_3
REMARK    3  A    between atoms: O_3  and  C_4
REMARK    4  A    between atoms: C_4  and  C_6
REMARK    5  A    between atoms: C_7  and  C_28
REMARK    6  A    between atoms: C_10  and  N_11
REMARK    7  A    between atoms: C_12  and  C_14
REMARK    8  A    between atoms: C_14  and  S_15
REMARK    9  A    between atoms: S_15  and  C_16
REMARK   10  A    between atoms: C_19  and  C_22
REMARK   11  A    between atoms: N_20  and  N_21
REMARK                            x       y       z     vdW  Elec       q    Type
REMARK                         _______ _______ _______ _____ _____    ______ ____
ROOT
ATOM      1  N   UNL     1      -0.288   1.272  -2.443  0.00  0.00    -0.279 N 
ATOM      2  C   UNL     1      -0.742   1.585  -1.213  0.00  0.00    +0.228 C 
ATOM      3  O   UNL     1      -1.736   2.268  -1.088  0.00  0.00    -0.275 OA
ATOM      4  H   UNL     1       0.507   0.726  -2.543  0.00  0.00    +0.155 HD
ENDROOT
BRANCH   1   9
ATOM      5  C   UNL     1      -0.647   1.516  -4.902  0.00  0.00    +0.095 A 
ATOM      6  C   UNL     1      -1.528   2.119  -5.883  0.00  0.00    +0.005 A 
ATOM      7  C   UNL     1      -2.575   2.838  -5.403  0.00  0.00    +0.056 A 
ATOM      8  S   UNL     1      -2.389   2.704  -3.637  0.00  0.00    -0.080 S 
ATOM      9  C   UNL     1      -0.959   1.731  -3.566  0.00  0.00    +0.086 A 
BRANCH   6  10
ATOM     10  C   UNL     1      -1.297   1.959  -7.338  0.00  0.00    -0.017 A 
ATOM     11  C   UNL     1      -0.039   2.221  -7.880  0.00  0.00    +0.008 A 
ATOM     12  C   UNL     1       0.172   2.064  -9.235  0.00  0.00    +0.001 A 
ATOM     13  C   UNL     1      -0.865   1.661 -10.057  0.00  0.00    +0.000 A 
ATOM     14  C   UNL     1      -2.117   1.406  -9.526  0.00  0.00    +0.001 A 
ATOM     15  C   UNL     1      -2.338   1.552  -8.172  0.00  0.00    +0.008 A 
ENDBRANCH   6  10
BRANCH   5  16
ATOM     16  C   UNL     1       0.514   0.719  -5.300  0.00  0.00    +0.342 C 
ATOM     17  O   UNL     1       0.400  -0.481  -5.464  0.00  0.00    -0.245 OA
BRANCH  16  18
ATOM     18  O   UNL     1       1.710   1.315  -5.484  0.00  0.00    -0.461 OA
BRANCH  18  20
ATOM     19  C   UNL     1       4.081   1.310  -6.039  0.00  0.00    +0.048 C 
ATOM     20  C   UNL     1       2.817   0.463  -5.878  0.00  0.00    +0.229 C 
ENDBRANCH  18  20
ENDBRANCH  16  18
ENDBRANCH   5  16
ENDBRANCH   1   9
BRANCH   2  21
ATOM     21  C   UNL     1      -0.013   1.086   0.008  0.00  0.00    +0.173 C 
BRANCH  21  22
ATOM     22  S   UNL     1      -0.860   1.669   1.497  0.00  0.00    -0.075 S 
BRANCH  22  23
ATOM     23  C   UNL     1       0.174   0.961   2.735  0.00  0.00    +0.209 A 
ATOM     24  N   UNL     1       1.244   0.227   2.533  0.00  0.00    -0.121 NA
ATOM     25  N   UNL     1       1.753  -0.123   3.660  0.00  0.00    -0.132 NA
ATOM     26  C   UNL     1       1.046   0.363   4.640  0.00  0.00    +0.154 A 
ATOM     27  N   UNL     1       0.018   1.076   4.087  0.00  0.00    -0.228 N 
BRANCH  26  28
ATOM     28  C   UNL     1       1.315   0.180   6.112  0.00  0.00    +0.059 C 
ATOM     29  C   UNL     1       2.694   0.749   6.453  0.00  0.00    +0.011 C 
ATOM     30  C   UNL     1       2.967   0.563   7.947  0.00  0.00    +0.001 C 
ATOM     31  C   UNL     1       2.931  -0.928   8.290  0.00  0.00    +0.000 C 
ATOM     32  C   UNL     1       1.552  -1.497   7.949  0.00  0.00    +0.001 C 
ATOM     33  C   UNL     1       1.279  -1.310   6.455  0.00  0.00    +0.011 C 
ENDBRANCH  26  28
BRANCH  27  34
ATOM     34  N   UNL     1      -0.962   1.758   4.749  0.00  0.00    -0.295 N 
ATOM     35  H   UNL     1      -1.758   1.164   4.929  0.00  0.00    +0.163 HD
ATOM     36  H   UNL     1      -0.609   2.159   5.605  0.00  0.00    +0.163 HD
ENDBRANCH  27  34
ENDBRANCH  22  23
ENDBRANCH  21  22
ENDBRANCH   2  21
TORSDOF 10
