REMARK  Name = ZINC43071346
REMARK  6 active torsions:
REMARK  status: ('A' for Active; 'I' for Inactive)
REMARK    1  A    between atoms: C_1  and  C_2
REMARK    2  A    between atoms: C_5  and  C_11
REMARK    3  A    between atoms: C_6  and  C_10
REMARK    4  A    between atoms: C_7  and  O_8
REMARK    5  A    between atoms: O_8  and  C_9
REMARK    6  A    between atoms: C_11  and  N_12
REMARK                            x       y       z     vdW  Elec       q    Type
REMARK                         _______ _______ _______ _____ _____    ______ ____
ROOT
ATOM      1  N   UNL     1      -1.318  -4.749  -0.026  0.00  0.00    -0.299 N 
ATOM      2  C   UNL     1      -1.749  -5.029   1.352  0.00  0.00    +0.203 C 
ATOM      3  C   UNL     1      -2.506  -6.332   1.380  0.00  0.00    +0.235 C 
ATOM      4  O   UNL     1      -2.495  -7.011   2.385  0.00  0.00    -0.274 OA
ATOM      5  N   UNL     1      -3.196  -6.749   0.300  0.00  0.00    -0.279 N 
ATOM      6  C   UNL     1      -3.173  -6.005  -0.886  0.00  0.00    +0.111 A 
ATOM      7  C   UNL     1      -2.220  -4.988  -1.053  0.00  0.00    +0.150 A 
ATOM      8  N   UNL     1      -2.202  -4.287  -2.176  0.00  0.00    -0.198 NA
ATOM      9  C   UNL     1      -3.084  -4.540  -3.135  0.00  0.00    +0.216 A 
ATOM     10  N   UNL     1      -4.002  -5.486  -3.011  0.00  0.00    -0.201 NA
ATOM     11  C   UNL     1      -4.074  -6.241  -1.910  0.00  0.00    +0.157 A 
ATOM     12 CL   UNL     1      -5.281  -7.479  -1.758  0.00  0.00    -0.060 Cl
ATOM     13  N   UNL     1      -3.043  -3.792  -4.301  0.00  0.00    -0.327 N 
ATOM     14  H   UNL     1      -3.712  -7.570   0.344  0.00  0.00    +0.155 HD
ATOM     15  H   UNL     1      -2.377  -3.095  -4.407  0.00  0.00    +0.145 HD
ATOM     16  H   UNL     1      -3.681  -3.965  -5.011  0.00  0.00    +0.145 HD
ENDROOT
BRANCH   1  17
ATOM     17  C   UNL     1       0.023  -4.229  -0.305  0.00  0.00    +0.160 C 
BRANCH  17  22
ATOM     18  C   UNL     1      -0.086   1.472   0.332  0.00  0.00    +0.049 C 
ATOM     19  C   UNL     1      -0.019  -0.023   0.158  0.00  0.00    +0.007 A 
ATOM     20  C   UNL     1      -1.157  -0.794   0.277  0.00  0.00    +0.089 A 
ATOM     21  N   UNL     1      -1.106  -2.103   0.126  0.00  0.00    -0.362 N 
ATOM     22  C   UNL     1       0.023  -2.730  -0.143  0.00  0.00    +0.040 A 
ATOM     23  C   UNL     1       1.205  -2.031  -0.278  0.00  0.00    +0.012 A 
ATOM     24  C   UNL     1       1.193  -0.646  -0.131  0.00  0.00    +0.129 A 
ATOM     25  C   UNL     1       2.490  -2.755  -0.586  0.00  0.00    +0.049 C 
ATOM     26  H   UNL     1      -1.922  -2.620   0.215  0.00  0.00    +0.165 HD
BRANCH  24  27
ATOM     27  O   UNL     1       2.334   0.078  -0.262  0.00  0.00    -0.494 OA
ATOM     28  C   UNL     1       3.107   0.288   0.922  0.00  0.00    +0.277 C 
ENDBRANCH  24  27
ENDBRANCH  17  22
ENDBRANCH   1  17
TORSDOF 3
