REMARK  Name = ZINC49180745
REMARK  12 active torsions:
REMARK  status: ('A' for Active; 'I' for Inactive)
REMARK    1  A    between atoms: C_1  and  C_2
REMARK    2  A    between atoms: C_2  and  C_34
REMARK    3  A    between atoms: C_3  and  C_4
REMARK    4  A    between atoms: C_4  and  C_5
REMARK    5  A    between atoms: C_5  and  C_6
REMARK    6  A    between atoms: C_6  and  C_33
REMARK    7  A    between atoms: C_16  and  C_24
REMARK    8  A    between atoms: C_16  and  O_32
REMARK    9  A    between atoms: C_17  and  O_22
REMARK   10  A    between atoms: O_22  and  C_23
REMARK   11  A    between atoms: C_27  and  O_30
REMARK   12  A    between atoms: O_30  and  C_31
REMARK                            x       y       z     vdW  Elec       q    Type
REMARK                         _______ _______ _______ _____ _____    ______ ____
ROOT
ATOM      1  C   UNL     1       1.327   0.391   4.584  0.00  0.00    +0.127 C 
ATOM      2  C   UNL     1       0.737  -0.063   5.893  0.00  0.00    +0.021 C 
ATOM      3  C   UNL     1       1.272  -1.095   6.543  0.00  0.00    +0.011 C 
ATOM      4  C   UNL     1       2.453  -1.755   5.948  0.00  0.00    +0.017 A 
ATOM      5  C   UNL     1       2.863  -3.019   6.361  0.00  0.00    +0.013 A 
ATOM      6  C   UNL     1       3.975  -3.597   5.783  0.00  0.00    +0.024 A 
ATOM      7  C   UNL     1       4.686  -2.922   4.797  0.00  0.00    +0.043 A 
ATOM      8  C   UNL     1       4.269  -1.667   4.368  0.00  0.00    +0.055 A 
ATOM      9  C   UNL     1       3.160  -1.078   4.944  0.00  0.00    +0.137 A 
ATOM     10  O   UNL     1       2.735   0.152   4.558  0.00  0.00    -0.481 OA
ATOM     11  C   UNL     1       5.011  -0.960   3.263  0.00  0.00    +0.155 C 
ATOM     12  C   UNL     1       6.499  -1.303   3.341  0.00  0.00    +0.244 C 
ATOM     13  C   UNL     1       6.670  -2.793   3.480  0.00  0.00    +0.250 C 
ATOM     14  O   UNL     1       7.588  -3.348   2.913  0.00  0.00    -0.272 OA
ATOM     15  N   UNL     1       5.815  -3.514   4.225  0.00  0.00    -0.283 N 
ATOM     16  C   UNL     1       1.066   1.888   4.405  0.00  0.00    +0.060 C 
ATOM     17  H   UNL     1       5.984  -4.458   4.368  0.00  0.00    +0.155 HD
ENDROOT
BRANCH  11  18
ATOM     18  C   UNL     1       4.464  -1.400   1.930  0.00  0.00    -0.008 A 
ATOM     19  C   UNL     1       3.933  -2.669   1.786  0.00  0.00    +0.010 A 
ATOM     20  C   UNL     1       3.431  -3.075   0.565  0.00  0.00    +0.046 A 
ATOM     21  C   UNL     1       3.460  -2.208  -0.518  0.00  0.00    +0.120 A 
ATOM     22  C   UNL     1       3.993  -0.936  -0.371  0.00  0.00    +0.046 A 
ATOM     23  C   UNL     1       4.488  -0.533   0.854  0.00  0.00    +0.010 A 
BRANCH  21  24
ATOM     24  O   UNL     1       2.967  -2.605  -1.721  0.00  0.00    -0.495 OA
ATOM     25  C   UNL     1       3.030  -1.661  -2.791  0.00  0.00    +0.277 C 
ENDBRANCH  21  24
ENDBRANCH  11  18
BRANCH  12  26
ATOM     26  O   UNL     1       7.078  -0.652   4.473  0.00  0.00    -0.367 OA
ATOM     27  C   UNL     1       8.458  -0.318   4.308  0.00  0.00    +0.195 C 
ENDBRANCH  12  26
BRANCH  11  28
ATOM     28  O   UNL     1       4.840   0.452   3.404  0.00  0.00    -0.376 OA
ATOM     29  H   UNL     1       5.292   0.972   2.725  0.00  0.00    +0.211 HD
ENDBRANCH  11  28
BRANCH   1  30
ATOM     30  C   UNL     1       0.664  -0.377   3.438  0.00  0.00    +0.056 C 
BRANCH  30  31
ATOM     31  C   UNL     1       1.240   0.100   2.104  0.00  0.00    +0.031 C 
BRANCH  31  34
ATOM     32  C   UNL     1      -0.018   1.503   0.010  0.00  0.00    +0.038 C 
ATOM     33  C   UNL     1       0.002  -0.004   0.002  0.00  0.00    -0.080 C 
ATOM     34  C   UNL     1       0.588  -0.657   0.976  0.00  0.00    -0.028 C 
ATOM     35  C   UNL     1      -0.651  -0.760  -1.126  0.00  0.00    +0.038 C 
ENDBRANCH  31  34
ENDBRANCH  30  31
ENDBRANCH   1  30
TORSDOF 7
