REMARK  Name = ZINC40780455
REMARK  2 active torsions:
REMARK  status: ('A' for Active; 'I' for Inactive)
REMARK    1  A    between atoms: C_12  and  N_23
REMARK    2  A    between atoms: C_13  and  N_17
REMARK                            x       y       z     vdW  Elec       q    Type
REMARK                         _______ _______ _______ _____ _____    ______ ____
ROOT
ATOM      1  C   UNL     1      -0.066   1.310  -0.016  0.00  0.00    +0.000 A 
ATOM      2  C   UNL     1       1.120   2.021  -0.048  0.00  0.00    +0.000 A 
ATOM      3  C   UNL     1       2.322   1.345  -0.070  0.00  0.00    +0.005 A 
ATOM      4  C   UNL     1       2.350  -0.043  -0.057  0.00  0.00    -0.027 A 
ATOM      5  C   UNL     1       1.171  -0.752  -0.015  0.00  0.00    -0.041 A 
ATOM      6  C   UNL     1      -0.039  -0.069  -0.001  0.00  0.00    +0.004 A 
ATOM      7  C   UNL     1       1.124  -2.257   0.033  0.00  0.00    +0.054 C 
ATOM      8  C   UNL     1       2.436  -2.858  -0.466  0.00  0.00    +0.111 C 
ATOM      9  N   UNL     1       3.542  -2.148   0.198  0.00  0.00    -0.309 N 
ATOM     10  C   UNL     1       3.698  -0.720  -0.097  0.00  0.00    +0.142 C 
ATOM     11  C   UNL     1       4.403  -2.805   1.068  0.00  0.00    +0.148 A 
ATOM     12  C   UNL     1       5.527  -3.476   0.582  0.00  0.00    +0.106 A 
ATOM     13  C   UNL     1       6.360  -4.119   1.499  0.00  0.00    +0.150 A 
ATOM     14  N   UNL     1       6.053  -4.068   2.794  0.00  0.00    -0.219 NA
ATOM     15  C   UNL     1       4.982  -3.423   3.211  0.00  0.00    +0.225 A 
ATOM     16  N   UNL     1       4.173  -2.799   2.379  0.00  0.00    -0.219 NA
ENDROOT
BRANCH  13  17
ATOM     17  N   UNL     1       7.492  -4.802   1.068  0.00  0.00    -0.277 N 
ATOM     18  C   UNL     1       8.312  -5.437   1.990  0.00  0.00    +0.163 A 
ATOM     19  N   UNL     1       8.175  -5.504   3.297  0.00  0.00    -0.233 NA
ATOM     20  C   UNL     1       9.050  -6.154   4.042  0.00  0.00    +0.120 A 
ATOM     21  C   UNL     1      10.088  -6.744   3.400  0.00  0.00    +0.068 A 
ATOM     22  S   UNL     1       9.719  -6.315   1.707  0.00  0.00    -0.061 S 
ATOM     23  H   UNL     1       7.708  -4.834   0.123  0.00  0.00    +0.156 HD
ENDBRANCH  13  17
BRANCH  12  24
ATOM     24  N   UNL     1       5.812  -3.504  -0.793  0.00  0.00    -0.353 N 
ATOM     25  H   UNL     1       5.277  -2.981  -1.410  0.00  0.00    +0.143 HD
ATOM     26  H   UNL     1       6.544  -4.046  -1.126  0.00  0.00    +0.143 HD
ENDBRANCH  12  24
TORSDOF 2
