REMARK  Name = ZINC39639227
REMARK  10 active torsions:
REMARK  status: ('A' for Active; 'I' for Inactive)
REMARK    1  A    between atoms: C_1  and  C_2
REMARK    2  A    between atoms: C_5  and  C_8
REMARK    3  A    between atoms: C_8  and  C_10
REMARK    4  A    between atoms: C_8  and  N_11
REMARK    5  A    between atoms: C_12  and  C_14
REMARK    6  A    between atoms: C_25  and  C_27
REMARK    7  A    between atoms: C_29  and  O_35
REMARK    8  A    between atoms: C_31  and  O_33
REMARK    9  A    between atoms: O_33  and  C_34
REMARK   10  A    between atoms: O_35  and  C_36
REMARK                            x       y       z     vdW  Elec       q    Type
REMARK                         _______ _______ _______ _____ _____    ______ ____
ROOT
ATOM      1  C   UNL     1       2.703  -6.264   1.435  0.00  0.00    +0.100 C 
ATOM      2  C   UNL     1       3.966  -5.454   1.804  0.00  0.00    +0.121 C 
ATOM      3  N   UNL     1       4.984  -6.477   2.138  0.00  0.00    -0.296 N 
ATOM      4  C   UNL     1       4.764  -7.554   1.143  0.00  0.00    +0.115 C 
ATOM      5  C   UNL     1       3.231  -7.642   1.001  0.00  0.00    -0.004 C 
ATOM      6  C   UNL     1       2.851  -7.920  -0.450  0.00  0.00    -0.010 C 
ATOM      7  C   UNL     1       3.336  -9.319  -0.841  0.00  0.00    -0.082 C 
ATOM      8  N   UNL     1       2.725 -10.316   0.045  0.00  0.00    +0.379 N 
ATOM      9  C   UNL     1       3.170 -10.098   1.427  0.00  0.00    -0.082 C 
ATOM     10  C   UNL     1       2.678  -8.732   1.914  0.00  0.00    -0.010 C 
ATOM     11  C   UNL     1       5.902  -6.439   3.124  0.00  0.00    +0.247 C 
ATOM     12  O   UNL     1       5.887  -5.532   3.933  0.00  0.00    -0.270 OA
ATOM     13  H   UNL     1       1.720 -10.234  -0.000  0.00  0.00    -0.086 HD
ATOM     14  H   UNL     1       2.998 -11.241  -0.252  0.00  0.00    -0.086 HD
ENDROOT
BRANCH  11  15
ATOM     15  C   UNL     1       6.928  -7.499   3.220  0.00  0.00    +0.044 A 
ATOM     16  C   UNL     1       7.251  -8.265   2.100  0.00  0.00    +0.059 A 
ATOM     17  C   UNL     1       8.213  -9.257   2.195  0.00  0.00    +0.124 A 
ATOM     18  C   UNL     1       8.855  -9.490   3.402  0.00  0.00    +0.091 A 
ATOM     19  C   UNL     1       8.537  -8.731   4.519  0.00  0.00    +0.124 A 
ATOM     20  C   UNL     1       7.580  -7.733   4.431  0.00  0.00    +0.059 A 
BRANCH  19  21
ATOM     21  O   UNL     1       9.169  -8.963   5.699  0.00  0.00    -0.495 OA
ATOM     22  C   UNL     1      10.149 -10.003   5.717  0.00  0.00    +0.277 C 
ENDBRANCH  19  21
BRANCH  17  23
ATOM     23  O   UNL     1       8.528 -10.003   1.103  0.00  0.00    -0.495 OA
ATOM     24  C   UNL     1       9.529 -11.009   1.272  0.00  0.00    +0.277 C 
ENDBRANCH  17  23
ENDBRANCH  11  15
BRANCH   1  26
ATOM     25  N   UNL     1       0.633  -5.749   0.183  0.00  0.00    -0.308 N 
ATOM     26  C   UNL     1       1.968  -5.602   0.299  0.00  0.00    +0.219 C 
ATOM     27  O   UNL     1       2.577  -4.937  -0.512  0.00  0.00    -0.275 OA
ATOM     28  H   UNL     1       0.146  -6.281   0.832  0.00  0.00    +0.149 HD
BRANCH  25  29
ATOM     29  C   UNL     1      -0.082  -5.105  -0.921  0.00  0.00    +0.100 C 
ATOM     30  C   UNL     1      -0.024  -6.003  -2.159  0.00  0.00    +0.033 C 
BRANCH  29  35
ATOM     31  C   UNL     1      -5.597  -4.259   0.584  0.00  0.00    +0.044 C 
ATOM     32  C   UNL     1      -4.159  -4.479   0.191  0.00  0.00    -0.050 A 
ATOM     33  C   UNL     1      -3.480  -3.509  -0.522  0.00  0.00    +0.004 A 
ATOM     34  C   UNL     1      -2.161  -3.712  -0.882  0.00  0.00    +0.006 A 
ATOM     35  C   UNL     1      -1.520  -4.884  -0.528  0.00  0.00    -0.027 A 
ATOM     36  C   UNL     1      -2.198  -5.854   0.186  0.00  0.00    +0.006 A 
ATOM     37  C   UNL     1      -3.516  -5.650   0.550  0.00  0.00    +0.004 A 
ENDBRANCH  29  35
ENDBRANCH  25  29
ENDBRANCH   1  26
TORSDOF 6
