REMARK  Name = ZINC06197879
REMARK  14 active torsions:
REMARK  status: ('A' for Active; 'I' for Inactive)
REMARK    1  A    between atoms: C_1  and  C_2
REMARK    2  A    between atoms: C_2  and  C_3
REMARK    3  A    between atoms: C_10  and  C_15
REMARK    4  A    between atoms: C_15  and  C_17
REMARK    5  A    between atoms: C_15  and  N_75
REMARK    6  A    between atoms: N_21  and  C_22
REMARK    7  A    between atoms: C_22  and  C_23
REMARK    8  A    between atoms: C_22  and  C_24
REMARK    9  A    between atoms: C_22  and  C_25
REMARK   10  A    between atoms: C_26  and  C_27
REMARK   11  A    between atoms: C_26  and  N_75
REMARK   12  A    between atoms: C_27  and  C_28
REMARK   13  A    between atoms: C_34  and  C_35
REMARK   14  A    between atoms: C_34  and  N_75
REMARK                            x       y       z     vdW  Elec       q    Type
REMARK                         _______ _______ _______ _____ _____    ______ ____
ROOT
ATOM      1  C   UNL     1       4.213   1.629   0.518  0.00  0.00    +0.039 C 
ENDROOT
BRANCH   1   9
ATOM      2  C   UNL     1      -0.943   4.431   2.482  0.00  0.00    -0.047 A 
ATOM      3  C   UNL     1      -0.705   5.649   1.860  0.00  0.00    +0.005 A 
ATOM      4  C   UNL     1       0.430   5.842   1.103  0.00  0.00    +0.026 A 
ATOM      5  C   UNL     1       1.351   4.808   0.963  0.00  0.00    +0.049 A 
ATOM      6  C   UNL     1       1.109   3.576   1.600  0.00  0.00    -0.001 A 
ATOM      7  C   UNL     1      -0.050   3.404   2.364  0.00  0.00    +0.013 A 
ATOM      8  C   UNL     1       2.084   2.495   1.448  0.00  0.00    +0.017 A 
ATOM      9  C   UNL     1       3.189   2.721   0.695  0.00  0.00    +0.011 A 
ATOM     10  C   UNL     1       3.385   3.975   0.078  0.00  0.00    +0.251 A 
ATOM     11  O   UNL     1       4.385   4.156  -0.594  0.00  0.00    -0.268 OA
ATOM     12  N   UNL     1       2.495   4.974   0.212  0.00  0.00    -0.322 N 
ATOM     13  H   UNL     1       2.665   5.849  -0.241  0.00  0.00    +0.169 HD
BRANCH   2  15
ATOM     14  C   UNL     1      -1.922   4.648   4.750  0.00  0.00    +0.009 C 
ATOM     15  C   UNL     1      -2.194   4.242   3.300  0.00  0.00    +0.032 C 
ENDBRANCH   2  15
ENDBRANCH   1   9
BRANCH   1  16
ATOM     16  C   UNL     1       4.293   1.247  -0.937  0.00  0.00    +0.143 A 
ATOM     17  N   UNL     1       4.739   1.992  -1.919  0.00  0.00    -0.115 NA
ATOM     18  N   UNL     1       4.646   1.312  -3.009  0.00  0.00    -0.023 NA
ATOM     19  N   UNL     1       4.153   0.152  -2.748  0.00  0.00    -0.043 NA
ATOM     20  N   UNL     1       3.927   0.071  -1.481  0.00  0.00    -0.225 N 
BRANCH  20  21
ATOM     21  C   UNL     1       3.373  -1.082  -0.767  0.00  0.00    +0.059 C 
ATOM     22  C   UNL     1       2.107  -0.659  -0.019  0.00  0.00    +0.036 C 
ATOM     23  C   UNL     1       3.027  -2.184  -1.771  0.00  0.00    +0.036 C 
ATOM     24  C   UNL     1       4.405  -1.608   0.232  0.00  0.00    +0.036 C 
ENDBRANCH  20  21
ENDBRANCH   1  16
BRANCH   1  25
ATOM     25  N   UNL     1       5.532   2.133   0.956  0.00  0.00    +0.392 N 
ATOM     26  H   UNL     1       5.780   2.953   0.390  0.00  0.00    -0.080 HD
BRANCH  25  27
ATOM     27  C   UNL     1       5.474   2.531   2.378  0.00  0.00    -0.072 C 
BRANCH  27  28
ATOM     28  C   UNL     1       6.774   3.251   2.742  0.00  0.00    +0.016 C 
BRANCH  28  29
ATOM     29  C   UNL     1       6.723   3.683   4.185  0.00  0.00    -0.049 A 
ATOM     30  C   UNL     1       6.218   4.926   4.516  0.00  0.00    +0.003 A 
ATOM     31  C   UNL     1       6.166   5.321   5.840  0.00  0.00    +0.000 A 
ATOM     32  C   UNL     1       6.628   4.475   6.832  0.00  0.00    +0.000 A 
ATOM     33  C   UNL     1       7.137   3.234   6.500  0.00  0.00    +0.000 A 
ATOM     34  C   UNL     1       7.184   2.837   5.176  0.00  0.00    +0.003 A 
ENDBRANCH  28  29
ENDBRANCH  27  28
ENDBRANCH  25  27
BRANCH  25  35
ATOM     35  C   UNL     1       6.560   1.088   0.765  0.00  0.00    -0.042 C 
BRANCH  35  36
ATOM     36  C   UNL     1       7.261   1.342  -0.545  0.00  0.00    -0.064 A 
ATOM     37  C   UNL     1       6.879   0.649  -1.679  0.00  0.00    +0.002 A 
ATOM     38  C   UNL     1       7.519   0.886  -2.881  0.00  0.00    +0.000 A 
ATOM     39  C   UNL     1       8.548   1.807  -2.947  0.00  0.00    +0.000 A 
ATOM     40  C   UNL     1       8.934   2.495  -1.812  0.00  0.00    +0.000 A 
ATOM     41  C   UNL     1       8.290   2.263  -0.611  0.00  0.00    +0.002 A 
ENDBRANCH  35  36
ENDBRANCH  25  35
ENDBRANCH   1  25
TORSDOF 10
