REMARK  Name = ZINC36028880
REMARK  11 active torsions:
REMARK  status: ('A' for Active; 'I' for Inactive)
REMARK    1  A    between atoms: C_1  and  C_2
REMARK    2  A    between atoms: C_2  and  C_3
REMARK    3  A    between atoms: C_3  and  N_4
REMARK    4  A    between atoms: C_14  and  C_24
REMARK    5  A    between atoms: N_18  and  C_19
REMARK    6  A    between atoms: C_19  and  C_21
REMARK    7  A    between atoms: C_19  and  C_22
REMARK    8  A    between atoms: C_22  and  C_23
REMARK    9  A    between atoms: C_24  and  C_26
REMARK   10  A    between atoms: C_24  and  C_27
REMARK   11  A    between atoms: C_27  and  C_28
REMARK                            x       y       z     vdW  Elec       q    Type
REMARK                         _______ _______ _______ _____ _____    ______ ____
ROOT
ATOM      1  N   UNL     1       1.480  -1.982  -1.353  0.00  0.00    -0.299 N 
ATOM      2  C   UNL     1       0.844  -2.991  -0.724  0.00  0.00    +0.302 C 
ATOM      3  O   UNL     1       0.178  -2.765   0.268  0.00  0.00    -0.253 OA
ATOM      4  N   UNL     1       0.946  -4.250  -1.195  0.00  0.00    -0.286 N 
ATOM      5  C   UNL     1       0.160  -5.338  -0.599  0.00  0.00    +0.109 C 
ATOM      6  C   UNL     1       1.112  -6.468  -0.193  0.00  0.00    +0.025 C 
ATOM      7  C   UNL     1       1.955  -6.879  -1.399  0.00  0.00    +0.006 C 
ATOM      8  C   UNL     1       2.784  -5.695  -1.895  0.00  0.00    +0.025 C 
ATOM      9  C   UNL     1       1.841  -4.558  -2.319  0.00  0.00    +0.109 C 
ATOM     10  N   UNL     1       2.851  -7.993  -1.024  0.00  0.00    +0.401 N 
ATOM     11  C   UNL     1       2.929  -8.794  -2.270  0.00  0.00    +0.022 C 
ATOM     12  C   UNL     1       1.639  -8.496  -3.002  0.00  0.00    +0.201 C 
ATOM     13  O   UNL     1       1.173  -9.149  -3.912  0.00  0.00    -0.277 OA
ATOM     14  N   UNL     1       1.094  -7.381  -2.472  0.00  0.00    -0.311 N 
ATOM     15  H   UNL     1       2.069  -2.171  -2.100  0.00  0.00    +0.150 HD
ATOM     16  H   UNL     1       3.763  -7.646  -0.766  0.00  0.00    -0.082 HD
ATOM     17  H   UNL     1       2.450  -8.537  -0.275  0.00  0.00    -0.082 HD
ENDROOT
BRANCH  14  18
ATOM     18  C   UNL     1      -0.165  -6.768  -2.904  0.00  0.00    +0.071 C 
ATOM     19  C   UNL     1      -0.198  -6.692  -4.432  0.00  0.00    +0.028 C 
BRANCH  18  20
ATOM     20  C   UNL     1      -1.340  -7.614  -2.410  0.00  0.00    +0.019 C 
ATOM     21  C   UNL     1      -1.380  -7.587  -0.880  0.00  0.00    +0.005 C 
ENDBRANCH  18  20
ENDBRANCH  14  18
BRANCH  11  22
ATOM     22  C   UNL     1       4.133  -8.360  -3.108  0.00  0.00    -0.020 C 
ATOM     23  C   UNL     1       5.423  -8.666  -2.345  0.00  0.00    +0.006 C 
BRANCH  22  24
ATOM     24  C   UNL     1       4.132  -9.121  -4.435  0.00  0.00    -0.001 C 
ATOM     25  C   UNL     1       5.262  -8.598  -5.324  0.00  0.00    +0.004 C 
ENDBRANCH  22  24
ENDBRANCH  11  22
BRANCH   1  26
ATOM     26  C   UNL     1       1.282  -0.601  -0.907  0.00  0.00    +0.105 C 
BRANCH  26  28
ATOM     27  C   UNL     1       1.906   1.784  -1.316  0.00  0.00    +0.005 C 
ATOM     28  C   UNL     1       2.112   0.341  -1.782  0.00  0.00    +0.015 C 
ENDBRANCH  26  28
ENDBRANCH   1  26
TORSDOF 6
