REMARK  Name = ZINC36048511
REMARK  13 active torsions:
REMARK  status: ('A' for Active; 'I' for Inactive)
REMARK    1  A    between atoms: C_1  and  C_2
REMARK    2  A    between atoms: C_2  and  C_3
REMARK    3  A    between atoms: C_3  and  N_4
REMARK    4  A    between atoms: N_7  and  C_8
REMARK    5  A    between atoms: C_8  and  C_10
REMARK    6  A    between atoms: C_8  and  C_12
REMARK    7  A    between atoms: C_10  and  C_11
REMARK    8  A    between atoms: C_16  and  O_33
REMARK    9  A    between atoms: C_17  and  O_31
REMARK   10  A    between atoms: N_22  and  C_23
REMARK   11  A    between atoms: C_23  and  C_24
REMARK   12  A    between atoms: O_31  and  C_32
REMARK   13  A    between atoms: O_33  and  C_34
REMARK                            x       y       z     vdW  Elec       q    Type
REMARK                         _______ _______ _______ _____ _____    ______ ____
ROOT
ATOM      1  C   UNL     1       1.563  -6.499   3.341  0.00  0.00    -0.016 C 
ATOM      2  C   UNL     1       2.245  -7.172   4.504  0.00  0.00    -0.052 A 
ATOM      3  C   UNL     1       1.944  -6.740   5.787  0.00  0.00    +0.051 A 
ATOM      4  C   UNL     1       2.545  -7.332   6.884  0.00  0.00    +0.162 A 
ATOM      5  C   UNL     1       3.455  -8.368   6.697  0.00  0.00    +0.162 A 
ATOM      6  C   UNL     1       3.753  -8.795   5.415  0.00  0.00    +0.053 A 
ATOM      7  C   UNL     1       3.149  -8.197   4.319  0.00  0.00    -0.044 A 
ATOM      8  C   UNL     1       3.508  -8.689   2.940  0.00  0.00    +0.017 C 
ATOM      9  C   UNL     1       2.469  -8.201   1.929  0.00  0.00    -0.073 C 
ATOM     10  N   UNL     1       2.297  -6.750   2.098  0.00  0.00    +0.388 N 
ATOM     11  H   UNL     1       3.201  -6.305   2.143  0.00  0.00    -0.080 HD
ENDROOT
BRANCH   5  12
ATOM     12  O   UNL     1       4.050  -8.957   7.768  0.00  0.00    -0.491 OA
ATOM     13  C   UNL     1       4.974 -10.013   7.498  0.00  0.00    +0.277 C 
ENDBRANCH   5  12
BRANCH   4  14
ATOM     14  O   UNL     1       2.246  -6.904   8.140  0.00  0.00    -0.491 OA
ATOM     15  C   UNL     1       1.302  -5.837   8.254  0.00  0.00    +0.277 C 
ENDBRANCH   4  14
BRANCH   1  16
ATOM     16  C   UNL     1       1.504  -4.991   3.596  0.00  0.00    +0.065 C 
BRANCH  16  20
ATOM     17  N   UNL     1       4.396  -2.728   3.781  0.00  0.00    -0.299 N 
ATOM     18  C   UNL     1       3.180  -3.268   3.995  0.00  0.00    +0.300 C 
ATOM     19  O   UNL     1       2.402  -2.730   4.759  0.00  0.00    -0.253 OA
ATOM     20  N   UNL     1       2.826  -4.404   3.363  0.00  0.00    -0.298 N 
ATOM     21  H   UNL     1       5.016  -3.157   3.172  0.00  0.00    +0.150 HD
ATOM     22  H   UNL     1       3.447  -4.834   2.754  0.00  0.00    +0.150 HD
BRANCH  17  23
ATOM     23  C   UNL     1       4.780  -1.493   4.469  0.00  0.00    +0.105 C 
BRANCH  23  25
ATOM     24  C   UNL     1       6.600   0.192   4.770  0.00  0.00    +0.005 C 
ATOM     25  C   UNL     1       6.199  -1.098   4.052  0.00  0.00    +0.015 C 
ENDBRANCH  23  25
ENDBRANCH  17  23
ENDBRANCH  16  20
BRANCH  16  26
ATOM     26  C   UNL     1       0.488  -4.353   2.646  0.00  0.00    +0.017 C 
ATOM     27  C   UNL     1      -0.232  -3.209   3.363  0.00  0.00    +0.005 C 
ENDBRANCH  16  26
ENDBRANCH   1  16
BRANCH  10  28
ATOM     28  C   UNL     1       1.538  -6.211   0.962  0.00  0.00    -0.039 C 
BRANCH  28  29
ATOM     29  C   UNL     1       2.237  -6.569  -0.325  0.00  0.00    -0.029 A 
ATOM     30  C   UNL     1       3.112  -5.673  -0.909  0.00  0.00    +0.004 A 
ATOM     31  C   UNL     1       3.753  -6.000  -2.088  0.00  0.00    +0.000 A 
ATOM     32  C   UNL     1       3.520  -7.226  -2.686  0.00  0.00    +0.003 A 
ATOM     33  C   UNL     1       2.647  -8.124  -2.103  0.00  0.00    +0.038 A 
ATOM     34  C   UNL     1       2.007  -7.798  -0.919  0.00  0.00    +0.125 A 
ATOM     35  F   UNL     1       1.157  -8.678  -0.346  0.00  0.00    -0.205 F 
ENDBRANCH  28  29
ENDBRANCH  10  28
TORSDOF 9
