REMARK  Name = ZINC20609229
REMARK  10 active torsions:
REMARK  status: ('A' for Active; 'I' for Inactive)
REMARK    1  A    between atoms: C_1  and  C_2
REMARK    2  A    between atoms: C_2  and  O_3
REMARK    3  A    between atoms: O_3  and  C_4
REMARK    4  A    between atoms: C_4  and  C_6
REMARK    5  A    between atoms: C_7  and  C_35
REMARK    6  A    between atoms: N_8  and  C_24
REMARK    7  A    between atoms: C_24  and  C_25
REMARK    8  A    between atoms: C_25  and  O_27
REMARK    9  A    between atoms: O_27  and  C_28
REMARK   10  A    between atoms: C_28  and  C_29
REMARK                            x       y       z     vdW  Elec       q    Type
REMARK                         _______ _______ _______ _____ _____    ______ ____
ROOT
ATOM      1  C   UNL     1      -0.897   2.874   1.551  0.00  0.00    +0.079 C 
ATOM      2  C   UNL     1      -0.718   1.572   1.248  0.00  0.00    +0.023 C 
ATOM      3  N   UNL     1      -1.245   0.746   2.197  0.00  0.00    -0.263 N 
ATOM      4  C   UNL     1      -1.821   1.433   3.205  0.00  0.00    +0.241 C 
ATOM      5  O   UNL     1      -2.369   0.974   4.185  0.00  0.00    -0.273 OA
ATOM      6  C   UNL     1      -1.643   2.890   2.861  0.00  0.00    +0.151 C 
ATOM      7  C   UNL     1      -2.963   3.595   2.740  0.00  0.00    -0.011 A 
ATOM      8  C   UNL     1      -4.074   3.392   1.953  0.00  0.00    +0.006 A 
ATOM      9  C   UNL     1      -5.169   4.231   2.069  0.00  0.00    +0.000 A 
ATOM     10  C   UNL     1      -5.151   5.275   2.978  0.00  0.00    +0.001 A 
ATOM     11  C   UNL     1      -4.045   5.487   3.772  0.00  0.00    +0.012 A 
ATOM     12  C   UNL     1      -2.935   4.645   3.662  0.00  0.00    +0.024 A 
ATOM     13  C   UNL     1      -1.640   4.634   4.372  0.00  0.00    +0.162 A 
ATOM     14  C   UNL     1      -0.866   3.616   3.923  0.00  0.00    +0.113 A 
ATOM     15  N   UNL     1       0.293   3.651   4.600  0.00  0.00    -0.198 NA
ATOM     16  C   UNL     1       0.257   4.654   5.446  0.00  0.00    +0.286 A 
ATOM     17  O   UNL     1      -0.924   5.279   5.327  0.00  0.00    -0.424 OA
ATOM     18  N   UNL     1       1.268   5.007   6.315  0.00  0.00    -0.313 N 
ATOM     19  C   UNL     1      -0.013   1.086   0.008  0.00  0.00    +0.061 C 
ATOM     20  H   UNL     1       1.140   5.868   6.987  0.00  0.00    +0.147 HD
ATOM     21  H   UNL     1       2.203   4.428   6.335  0.00  0.00    +0.147 HD
ENDROOT
BRANCH   1  22
ATOM     22  C   UNL     1      -0.474   3.993   0.795  0.00  0.00    +0.338 C 
ATOM     23  O   UNL     1       0.121   3.829  -0.254  0.00  0.00    -0.245 OA
BRANCH  22  24
ATOM     24  O   UNL     1      -0.730   5.242   1.236  0.00  0.00    -0.462 OA
BRANCH  24  26
ATOM     25  C   UNL     1      -0.654   7.652   1.081  0.00  0.00    +0.048 C 
ATOM     26  C   UNL     1      -0.275   6.324   0.423  0.00  0.00    +0.229 C 
ENDBRANCH  24  26
ENDBRANCH  22  24
ENDBRANCH   1  22
BRANCH   3  27
ATOM     27  C   UNL     1      -1.192  -0.717   2.130  0.00  0.00    +0.233 C 
BRANCH  27  28
ATOM     28  C   UNL     1       0.064  -1.205   2.804  0.00  0.00    +0.325 C 
ATOM     29  O   UNL     1       0.835  -0.413   3.292  0.00  0.00    -0.249 OA
BRANCH  28  30
ATOM     30  O   UNL     1       0.325  -2.521   2.864  0.00  0.00    -0.459 OA
BRANCH  30  31
ATOM     31  C   UNL     1       1.553  -2.919   3.529  0.00  0.00    +0.267 C 
BRANCH  31  32
ATOM     32  C   UNL     1       1.676  -4.421   3.498  0.00  0.00    -0.010 A 
ATOM     33  C   UNL     1       1.151  -5.179   4.528  0.00  0.00    +0.007 A 
ATOM     34  C   UNL     1       1.260  -6.556   4.498  0.00  0.00    +0.000 A 
ATOM     35  C   UNL     1       1.903  -7.176   3.442  0.00  0.00    +0.000 A 
ATOM     36  C   UNL     1       2.432  -6.418   2.414  0.00  0.00    +0.000 A 
ATOM     37  C   UNL     1       2.319  -5.040   2.443  0.00  0.00    +0.007 A 
ENDBRANCH  31  32
ENDBRANCH  30  31
ENDBRANCH  28  30
ENDBRANCH  27  28
ENDBRANCH   3  27
TORSDOF 8
