REMARK  Name = ZINC22240717
REMARK  10 active torsions:
REMARK  status: ('A' for Active; 'I' for Inactive)
REMARK    1  A    between atoms: C_1  and  C_2
REMARK    2  A    between atoms: C_2  and  O_3
REMARK    3  A    between atoms: O_3  and  C_4
REMARK    4  A    between atoms: C_4  and  C_6
REMARK    5  A    between atoms: N_11  and  C_13
REMARK    6  A    between atoms: C_13  and  C_14
REMARK    7  A    between atoms: C_19  and  C_22
REMARK    8  A    between atoms: C_23  and  C_30
REMARK    9  A    between atoms: C_25  and  C_29
REMARK   10  A    between atoms: C_27  and  C_28
REMARK                            x       y       z     vdW  Elec       q    Type
REMARK                         _______ _______ _______ _____ _____    ______ ____
ROOT
ATOM      1  C   UNL     1      -1.702   1.619  -8.559  0.00  0.00    +0.202 C 
ATOM      2  O   UNL     1      -2.791   2.148  -8.635  0.00  0.00    -0.277 OA
ATOM      3  N   UNL     1      -1.104   1.145  -9.671  0.00  0.00    -0.266 N 
ATOM      4  C   UNL     1      -1.736   1.262 -10.903  0.00  0.00    +0.165 A 
ATOM      5  N   UNL     1      -1.322   0.872 -12.094  0.00  0.00    -0.225 NA
ATOM      6  C   UNL     1      -2.062   1.062 -13.176  0.00  0.00    +0.081 A 
ATOM      7  C   UNL     1      -3.275   1.683 -13.058  0.00  0.00    +0.076 A 
ATOM      8  S   UNL     1      -3.322   1.987 -11.297  0.00  0.00    -0.060 S 
ATOM      9  H   UNL     1      -0.117   0.665  -9.602  0.00  0.00    +0.157 HD
ENDROOT
BRANCH   6  10
ATOM     10  C   UNL     1      -1.579   0.609 -14.503  0.00  0.00    +0.007 A 
ATOM     11  C   UNL     1      -2.408  -0.149 -15.328  0.00  0.00    -0.041 A 
ATOM     12  C   UNL     1      -1.954  -0.562 -16.564  0.00  0.00    +0.007 A 
ATOM     13  C   UNL     1      -0.676  -0.235 -16.980  0.00  0.00    -0.050 A 
ATOM     14  C   UNL     1       0.153   0.511 -16.163  0.00  0.00    +0.007 A 
ATOM     15  C   UNL     1      -0.292   0.935 -14.927  0.00  0.00    -0.041 A 
ATOM     16  C   UNL     1       0.613   1.749 -14.037  0.00  0.00    +0.044 C 
ATOM     17  C   UNL     1      -0.184  -0.695 -18.328  0.00  0.00    +0.044 C 
ATOM     18  C   UNL     1      -3.798  -0.511 -14.874  0.00  0.00    +0.044 C 
ENDBRANCH   6  10
BRANCH   1  19
ATOM     19  C   UNL     1      -1.017   1.492  -7.223  0.00  0.00    +0.019 C 
BRANCH  19  24
ATOM     20  C   UNL     1      -2.735   4.351  -5.475  0.00  0.00    +0.081 C 
ATOM     21  C   UNL     1      -2.255   4.074  -4.047  0.00  0.00    +0.011 C 
ATOM     22  C   UNL     1      -2.213   2.561  -3.816  0.00  0.00    -0.018 C 
ATOM     23  C   UNL     1      -1.293   1.916  -4.856  0.00  0.00    -0.078 C 
ATOM     24  N   UNL     1      -1.795   2.209  -6.204  0.00  0.00    +0.386 N 
ATOM     25  C   UNL     1      -1.800   3.654  -6.466  0.00  0.00    -0.064 C 
ATOM     26  H   UNL     1      -2.835   1.855  -6.259  0.00  0.00    -0.081 HD
BRANCH  20  27
ATOM     27  C   UNL     1      -2.723   5.836  -5.730  0.00  0.00    +0.308 C 
ATOM     28  O   UNL     1      -2.037   6.291  -6.615  0.00  0.00    -0.251 OA
BRANCH  27  29
ATOM     29  O   UNL     1      -3.474   6.653  -4.975  0.00  0.00    -0.465 OA
BRANCH  29  31
ATOM     30  C   UNL     1      -4.329   8.837  -4.320  0.00  0.00    +0.048 C 
ATOM     31  C   UNL     1      -3.414   8.072  -5.278  0.00  0.00    +0.229 C 
ENDBRANCH  29  31
ENDBRANCH  27  29
ENDBRANCH  20  27
ENDBRANCH  19  24
ENDBRANCH   1  19
TORSDOF 6
