REMARK  Name = ZINC51641883
REMARK  6 active torsions:
REMARK  status: ('A' for Active; 'I' for Inactive)
REMARK    1  A    between atoms: C_3  and  C_11
REMARK    2  A    between atoms: C_5  and  O_7
REMARK    3  A    between atoms: O_7  and  C_8
REMARK    4  A    between atoms: C_11  and  N_12
REMARK    5  A    between atoms: N_15  and  C_16
REMARK    6  A    between atoms: C_20  and  C_22
REMARK                            x       y       z     vdW  Elec       q    Type
REMARK                         _______ _______ _______ _____ _____    ______ ____
ROOT
ATOM      1  N   UNL     1       4.100   2.439   1.358  0.00  0.00    -0.295 N 
ATOM      2  C   UNL     1       5.242   3.113   1.596  0.00  0.00    +0.304 C 
ATOM      3  O   UNL     1       5.916   3.517   0.668  0.00  0.00    -0.252 OA
ATOM      4  N   UNL     1       5.639   3.339   2.865  0.00  0.00    -0.269 N 
ATOM      5  H   UNL     1       3.563   2.117   2.098  0.00  0.00    +0.151 HD
ATOM      6  H   UNL     1       5.070   3.076   3.605  0.00  0.00    +0.156 HD
ENDROOT
BRANCH   4   7
ATOM      7  C   UNL     1       6.872   3.953   3.113  0.00  0.00    +0.035 A 
ATOM      8  C   UNL     1       7.626   3.575   4.218  0.00  0.00    +0.023 A 
ATOM      9  C   UNL     1       8.844   4.178   4.468  0.00  0.00    +0.002 A 
ATOM     10  C   UNL     1       9.320   5.160   3.623  0.00  0.00    +0.012 A 
ATOM     11  C   UNL     1       8.569   5.547   2.511  0.00  0.00    +0.021 A 
ATOM     12  C   UNL     1       7.343   4.934   2.256  0.00  0.00    +0.035 A 
BRANCH  11  13
ATOM     13  C   UNL     1       9.076   6.599   1.604  0.00  0.00    +0.153 A 
ATOM     14  C   UNL     1      10.250   7.271   1.720  0.00  0.00    +0.132 A 
ATOM     15  N   UNL     1      10.324   8.134   0.696  0.00  0.00    -0.335 N 
ATOM     16  C   UNL     1       9.251   8.016  -0.034  0.00  0.00    +0.284 A 
ATOM     17  O   UNL     1       8.463   7.072   0.497  0.00  0.00    -0.444 OA
ATOM     18  H   UNL     1      11.057   8.747   0.527  0.00  0.00    +0.168 HD
ENDBRANCH  11  13
ENDBRANCH   4   7
BRANCH   1  19
ATOM     19  C   UNL     1       3.669   2.193  -0.021  0.00  0.00    +0.141 C 
BRANCH  19  22
ATOM     20  C   UNL     1      -0.024   1.405   0.006  0.00  0.00    +0.004 A 
ATOM     21  C   UNL     1       1.168   2.106  -0.002  0.00  0.00    +0.005 A 
ATOM     22  C   UNL     1       2.372   1.426  -0.012  0.00  0.00    -0.027 A 
ATOM     23  C   UNL     1       2.387   0.044  -0.015  0.00  0.00    +0.051 A 
ATOM     24  C   UNL     1       1.192  -0.661  -0.008  0.00  0.00    +0.127 A 
ATOM     25  C   UNL     1      -0.015   0.024   0.003  0.00  0.00    +0.046 A 
BRANCH  24  26
ATOM     26  O   UNL     1       1.204  -2.020  -0.011  0.00  0.00    -0.434 OA
BRANCH  26  27
ATOM     27  C   UNL     1      -0.063  -2.680  -0.002  0.00  0.00    +0.541 C 
ATOM     28  F   UNL     1      -0.772  -2.312   1.146  0.00  0.00    -0.166 F 
ATOM     29  F   UNL     1      -0.790  -2.308  -1.138  0.00  0.00    -0.166 F 
ENDBRANCH  26  27
ENDBRANCH  24  26
ENDBRANCH  19  22
ENDBRANCH   1  19
TORSDOF 6
