REMARK  Name = ZINC36495578
REMARK  19 active torsions:
REMARK  status: ('A' for Active; 'I' for Inactive)
REMARK    1  A    between atoms: C_1  and  C_2
REMARK    2  A    between atoms: C_2  and  C_3
REMARK    3  A    between atoms: C_2  and  C_4
REMARK    4  A    between atoms: C_2  and  C_5
REMARK    5  A    between atoms: C_5  and  C_6
REMARK    6  A    between atoms: C_6  and  C_7
REMARK    7  A    between atoms: C_6  and  C_8
REMARK    8  A    between atoms: C_6  and  N_9
REMARK    9  A    between atoms: C_10  and  C_12
REMARK   10  A    between atoms: C_12  and  C_14
REMARK   11  A    between atoms: C_12  and  N_23
REMARK   12  A    between atoms: C_15  and  O_22
REMARK   13  A    between atoms: C_17  and  O_21
REMARK   14  A    between atoms: C_19  and  O_20
REMARK   15  A    between atoms: N_23  and  C_24
REMARK   16  A    between atoms: C_24  and  C_25
REMARK   17  A    between atoms: C_30  and  C_32
REMARK   18  A    between atoms: C_32  and  C_33
REMARK   19  A    between atoms: C_33  and  C_34
REMARK                            x       y       z     vdW  Elec       q    Type
REMARK                         _______ _______ _______ _____ _____    ______ ____
ROOT
ATOM      1  C   UNL     1       4.872   0.071  -4.422  0.00  0.00    +0.200 C 
ENDROOT
BRANCH   1   2
ATOM      2  C   UNL     1       4.789  -1.162  -5.285  0.00  0.00    +0.065 A 
ATOM      3  C   UNL     1       5.495  -2.303  -4.934  0.00  0.00    +0.129 A 
ATOM      4  C   UNL     1       5.418  -3.437  -5.729  0.00  0.00    +0.091 A 
ATOM      5  C   UNL     1       4.636  -3.430  -6.874  0.00  0.00    +0.124 A 
ATOM      6  C   UNL     1       3.929  -2.289  -7.224  0.00  0.00    +0.091 A 
ATOM      7  C   UNL     1       4.002  -1.157  -6.427  0.00  0.00    +0.129 A 
BRANCH   7   8
ATOM      8  O   UNL     1       3.306  -0.040  -6.768  0.00  0.00    -0.506 OA
ATOM      9  H   UNL     1       3.794   0.568  -7.340  0.00  0.00    +0.292 HD
ENDBRANCH   7   8
BRANCH   5  10
ATOM     10  O   UNL     1       4.561  -4.541  -7.652  0.00  0.00    -0.507 OA
ATOM     11  H   UNL     1       3.849  -5.147  -7.407  0.00  0.00    +0.292 HD
ENDBRANCH   5  10
BRANCH   3  12
ATOM     12  O   UNL     1       6.262  -2.309  -3.813  0.00  0.00    -0.506 OA
ATOM     13  H   UNL     1       5.821  -2.683  -3.037  0.00  0.00    +0.292 HD
ENDBRANCH   3  12
ENDBRANCH   1   2
BRANCH   1  15
ATOM     14  N   UNL     1       2.969  -0.652  -3.017  0.00  0.00    -0.308 N 
ATOM     15  C   UNL     1       4.240  -0.210  -3.083  0.00  0.00    +0.239 C 
ATOM     16  O   UNL     1       4.876  -0.038  -2.065  0.00  0.00    -0.273 OA
ATOM     17  H   UNL     1       2.461  -0.790  -3.832  0.00  0.00    +0.149 HD
BRANCH  14  18
ATOM     18  C   UNL     1       2.355  -0.926  -1.715  0.00  0.00    +0.030 C 
ATOM     19  C   UNL     1       2.574   0.271  -0.787  0.00  0.00    +0.031 C 
ATOM     20  C   UNL     1       2.995  -2.172  -1.101  0.00  0.00    +0.031 C 
BRANCH  18  21
ATOM     21  C   UNL     1       0.855  -1.161  -1.899  0.00  0.00    +0.031 C 
BRANCH  21  23
ATOM     22  C   UNL     1       0.566  -0.576  -4.310  0.00  0.00    +0.010 C 
ATOM     23  C   UNL     1       0.291  -0.126  -2.874  0.00  0.00    -0.036 C 
ATOM     24  C   UNL     1       0.963   1.226  -2.627  0.00  0.00    +0.010 C 
ATOM     25  C   UNL     1      -1.218   0.007  -2.661  0.00  0.00    +0.010 C 
ENDBRANCH  21  23
ENDBRANCH  18  21
ENDBRANCH  14  18
ENDBRANCH   1  15
BRANCH   1  26
ATOM     26  N   UNL     1       6.277   0.440  -4.232  0.00  0.00    -0.278 N 
ATOM     27  C   UNL     1       7.109   0.493  -5.290  0.00  0.00    +0.217 C 
ATOM     28  O   UNL     1       6.695   0.236  -6.401  0.00  0.00    -0.276 OA
BRANCH  26  29
ATOM     29  C   UNL     1       6.777   0.751  -2.890  0.00  0.00    +0.183 C 
BRANCH  29  30
ATOM     30  C   UNL     1       7.272  -0.512  -2.233  0.00  0.00    +0.122 A 
ATOM     31  C   UNL     1       8.499  -1.045  -2.376  0.00  0.00    +0.046 A 
ATOM     32  C   UNL     1       8.530  -2.219  -1.589  0.00  0.00    +0.041 A 
ATOM     33  C   UNL     1       7.320  -2.333  -1.012  0.00  0.00    +0.195 A 
ATOM     34  O   UNL     1       6.564  -1.294  -1.401  0.00  0.00    -0.466 OA
ENDBRANCH  29  30
ENDBRANCH  26  29
BRANCH  27  35
ATOM     35  C   UNL     1       8.554   0.873  -5.094  0.00  0.00    +0.096 C 
BRANCH  35  36
ATOM     36  C   UNL     1       9.273   0.858  -6.445  0.00  0.00    +0.013 C 
BRANCH  36  37
ATOM     37  C   UNL     1      10.741   1.243  -6.246  0.00  0.00    -0.011 C 
ATOM     38  C   UNL     1      11.439   0.173  -5.403  0.00  0.00    +0.003 C 
ATOM     39  C   UNL     1      12.906   0.559  -5.204  0.00  0.00    +0.000 C 
ATOM     40  C   UNL     1      13.595   0.665  -6.566  0.00  0.00    +0.000 C 
ATOM     41  C   UNL     1      12.896   1.734  -7.409  0.00  0.00    +0.000 C 
ATOM     42  C   UNL     1      11.429   1.349  -7.608  0.00  0.00    +0.003 C 
ENDBRANCH  36  37
ENDBRANCH  35  36
ENDBRANCH  27  35
ENDBRANCH   1  26
TORSDOF 14
