REMARK  Name = ZINC61510672
REMARK  10 active torsions:
REMARK  status: ('A' for Active; 'I' for Inactive)
REMARK    1  A    between atoms: C_1  and  C_2
REMARK    2  A    between atoms: C_2  and  C_3
REMARK    3  A    between atoms: C_2  and  C_4
REMARK    4  A    between atoms: C_2  and  C_5
REMARK    5  A    between atoms: C_8  and  S_11
REMARK    6  A    between atoms: S_11  and  N_14
REMARK    7  A    between atoms: N_14  and  C_15
REMARK    8  A    between atoms: C_18  and  C_21
REMARK    9  A    between atoms: N_23  and  C_24
REMARK   10  A    between atoms: C_24  and  C_25
REMARK                            x       y       z     vdW  Elec       q    Type
REMARK                         _______ _______ _______ _____ _____    ______ ____
ROOT
ATOM      1  C   UNL     1       1.145  -0.688  -6.561  0.00  0.00    +0.048 A 
ATOM      2  C   UNL     1       0.271  -1.770  -6.627  0.00  0.00    +0.025 A 
ATOM      3  C   UNL     1      -1.038  -1.576  -7.004  0.00  0.00    +0.015 A 
ATOM      4  C   UNL     1      -1.490  -0.292  -7.321  0.00  0.00    +0.037 A 
ATOM      5  C   UNL     1      -0.610   0.792  -7.254  0.00  0.00    +0.015 A 
ATOM      6  C   UNL     1       0.697   0.593  -6.871  0.00  0.00    +0.025 A 
ENDROOT
BRANCH   4   7
ATOM      7  C   UNL     1      -2.893  -0.081  -7.727  0.00  0.00    +0.244 C 
ATOM      8  O   UNL     1      -3.658  -1.025  -7.785  0.00  0.00    -0.270 OA
ATOM      9  N   UNL     1      -3.327   1.158  -8.032  0.00  0.00    -0.303 N 
ATOM     10  H   UNL     1      -2.717   1.911  -7.986  0.00  0.00    +0.150 HD
BRANCH   9  11
ATOM     11  C   UNL     1      -4.720   1.367  -8.435  0.00  0.00    +0.200 C 
BRANCH  11  12
ATOM     12  C   UNL     1      -4.946   2.830  -8.720  0.00  0.00    +0.228 C 
ATOM     13  O   UNL     1      -4.034   3.619  -8.598  0.00  0.00    -0.274 OA
ATOM     14  N   UNL     1      -6.162   3.260  -9.109  0.00  0.00    -0.328 N 
ATOM     15  H   UNL     1      -6.892   2.629  -9.206  0.00  0.00    +0.145 HD
ATOM     16  H   UNL     1      -6.308   4.202  -9.292  0.00  0.00    +0.145 HD
ENDBRANCH  11  12
ENDBRANCH   9  11
ENDBRANCH   4   7
BRANCH   1  17
ATOM     17  N   UNL     1       2.467  -0.887  -6.179  0.00  0.00    -0.216 N 
ATOM     18  H   UNL     1       3.173  -0.858  -6.844  0.00  0.00    +0.174 HD
BRANCH  17  19
ATOM     19  S   UNL     1       2.836  -1.173  -4.591  0.00  0.00    +0.072 S 
ATOM     20  O   UNL     1       4.248  -1.315  -4.521  0.00  0.00    -0.150 OA
ATOM     21  O   UNL     1       1.946  -2.187  -4.143  0.00  0.00    -0.150 OA
BRANCH  19  25
ATOM     22  C   UNL     1       1.796   2.575  -2.276  0.00  0.00    -0.042 A 
ATOM     23  C   UNL     1       0.887   1.537  -2.354  0.00  0.00    +0.006 A 
ATOM     24  C   UNL     1       1.205   0.392  -3.061  0.00  0.00    +0.029 A 
ATOM     25  C   UNL     1       2.431   0.286  -3.691  0.00  0.00    +0.109 A 
ATOM     26  C   UNL     1       3.340   1.325  -3.613  0.00  0.00    +0.029 A 
ATOM     27  C   UNL     1       3.021   2.471  -2.910  0.00  0.00    +0.006 A 
BRANCH  22  29
ATOM     28  C   UNL     1       1.483   5.029  -2.446  0.00  0.00    +0.015 C 
ATOM     29  C   UNL     1       1.450   3.823  -1.506  0.00  0.00    -0.013 C 
ATOM     30  C   UNL     1       2.467   4.026  -0.380  0.00  0.00    +0.015 C 
ATOM     31  C   UNL     1       0.049   3.681  -0.907  0.00  0.00    +0.015 C 
ENDBRANCH  22  29
ENDBRANCH  19  25
ENDBRANCH  17  19
ENDBRANCH   1  17
TORSDOF 7
