REMARK  Name = ZINC08944858
REMARK  4 active torsions:
REMARK  status: ('A' for Active; 'I' for Inactive)
REMARK    1  A    between atoms: C_4  and  N_7
REMARK    2  A    between atoms: N_10  and  N_11
REMARK    3  A    between atoms: N_11  and  S_12
REMARK    4  A    between atoms: S_12  and  C_15
REMARK                            x       y       z     vdW  Elec       q    Type
REMARK                         _______ _______ _______ _____ _____    ______ ____
ROOT
ATOM      1  N   UNL     1       4.344  -1.066  -1.628  0.00  0.00    -0.107 NA
ATOM      2  H   UNL     1       4.455  -1.967  -1.970  0.00  0.00    +0.172 HD
ENDROOT
BRANCH   1   6
ATOM      3  N   UNL     1       6.652  -0.743  -3.035  0.00  0.00    -0.268 N 
ATOM      4  C   UNL     1       5.672   0.173  -3.167  0.00  0.00    +0.319 C 
ATOM      5  O   UNL     1       5.827   1.126  -3.906  0.00  0.00    -0.251 OA
ATOM      6  N   UNL     1       4.521   0.032  -2.480  0.00  0.00    -0.215 N 
ATOM      7  H   UNL     1       6.557  -1.467  -2.396  0.00  0.00    +0.156 HD
ATOM      8  H   UNL     1       3.816   0.692  -2.575  0.00  0.00    +0.172 HD
BRANCH   3  12
ATOM      9  C   UNL     1      10.090  -0.468  -5.372  0.00  0.00    +0.000 A 
ATOM     10  C   UNL     1       9.463   0.682  -4.930  0.00  0.00    +0.002 A 
ATOM     11  C   UNL     1       8.323   0.594  -4.155  0.00  0.00    +0.023 A 
ATOM     12  C   UNL     1       7.807  -0.651  -3.821  0.00  0.00    +0.035 A 
ATOM     13  C   UNL     1       8.442  -1.804  -4.262  0.00  0.00    +0.023 A 
ATOM     14  C   UNL     1       9.579  -1.709  -5.041  0.00  0.00    +0.002 A 
ENDBRANCH   3  12
ENDBRANCH   1   6
BRANCH   1  15
ATOM     15  S   UNL     1       3.944  -0.825  -0.039  0.00  0.00    +0.074 S 
ATOM     16  O   UNL     1       4.919   0.059   0.495  0.00  0.00    -0.152 OA
ATOM     17  O   UNL     1       3.695  -2.110   0.516  0.00  0.00    -0.152 OA
BRANCH  15  18
ATOM     18  C   UNL     1       2.410   0.041  -0.013  0.00  0.00    +0.110 A 
ATOM     19  C   UNL     1       1.220  -0.663   0.007  0.00  0.00    +0.032 A 
ATOM     20  C   UNL     1       0.015   0.013   0.026  0.00  0.00    +0.051 A 
ATOM     21  C   UNL     1      -0.004   1.399   0.025  0.00  0.00    +0.162 A 
ATOM     22  C   UNL     1       1.192   2.107   0.009  0.00  0.00    +0.164 A 
ATOM     23  C   UNL     1       2.398   1.423  -0.012  0.00  0.00    +0.078 A 
ATOM     24  O   UNL     1       1.196   3.468   0.016  0.00  0.00    -0.485 OA
ATOM     25  C   UNL     1      -0.029   4.117  -0.341  0.00  0.00    +0.270 C 
ATOM     26  C   UNL     1      -1.175   3.432   0.416  0.00  0.00    +0.270 C 
ATOM     27  O   UNL     1      -1.199   2.051   0.036  0.00  0.00    -0.485 OA
ENDBRANCH  15  18
ENDBRANCH   1  15
TORSDOF 4
