REMARK  Name = ZINC58849285
REMARK  12 active torsions:
REMARK  status: ('A' for Active; 'I' for Inactive)
REMARK    1  A    between atoms: C_1  and  O_2
REMARK    2  A    between atoms: O_2  and  C_3
REMARK    3  A    between atoms: C_6  and  N_11
REMARK    4  A    between atoms: C_7  and  O_9
REMARK    5  A    between atoms: O_9  and  C_10
REMARK    6  A    between atoms: N_11  and  S_12
REMARK    7  A    between atoms: S_12  and  C_15
REMARK    8  A    between atoms: C_28  and  C_31
REMARK    9  A    between atoms: C_34  and  O_39
REMARK   10  A    between atoms: C_35  and  O_37
REMARK   11  A    between atoms: O_37  and  C_38
REMARK   12  A    between atoms: O_39  and  C_40
REMARK                            x       y       z     vdW  Elec       q    Type
REMARK                         _______ _______ _______ _____ _____    ______ ____
ROOT
ATOM      1  C   UNL     1      -5.947  -1.879  -2.411  0.00  0.00    +0.109 A 
ATOM      2  C   UNL     1      -5.294  -0.824  -3.022  0.00  0.00    +0.030 A 
ATOM      3  C   UNL     1      -5.093  -0.840  -4.387  0.00  0.00    +0.025 A 
ATOM      4  C   UNL     1      -5.543  -1.915  -5.146  0.00  0.00    +0.031 A 
ATOM      5  C   UNL     1      -6.186  -2.980  -4.534  0.00  0.00    -0.018 A 
ATOM      6  C   UNL     1      -6.385  -2.952  -3.162  0.00  0.00    +0.034 A 
ATOM      7  C   UNL     1      -6.646  -4.168  -5.309  0.00  0.00    +0.049 C 
ATOM      8  C   UNL     1      -8.138  -4.160  -5.528  0.00  0.00    -0.023 C 
ATOM      9  C   UNL     1      -8.425  -4.648  -6.709  0.00  0.00    -0.030 C 
ATOM     10  C   UNL     1      -7.167  -5.047  -7.449  0.00  0.00    +0.033 C 
ATOM     11  C   UNL     1      -6.044  -4.285  -6.708  0.00  0.00    +0.029 C 
ATOM     12  C   UNL     1      -5.842  -2.952  -7.399  0.00  0.00    +0.105 C 
ATOM     13  N   UNL     1      -5.349  -1.909  -6.523  0.00  0.00    -0.336 N 
ATOM     14  H   UNL     1      -4.881  -1.157  -6.918  0.00  0.00    +0.147 HD
ENDROOT
BRANCH  12  15
ATOM     15  C   UNL     1      -7.153  -2.525  -8.008  0.00  0.00    -0.023 A 
ATOM     16  C   UNL     1      -8.122  -1.937  -7.216  0.00  0.00    +0.009 A 
ATOM     17  C   UNL     1      -9.326  -1.544  -7.770  0.00  0.00    +0.050 A 
ATOM     18  C   UNL     1      -9.563  -1.737  -9.121  0.00  0.00    +0.162 A 
ATOM     19  C   UNL     1      -8.587  -2.328  -9.918  0.00  0.00    +0.162 A 
ATOM     20  C   UNL     1      -7.381  -2.716  -9.357  0.00  0.00    +0.055 A 
BRANCH  19  21
ATOM     21  O   UNL     1      -8.815  -2.521 -11.245  0.00  0.00    -0.491 OA
ATOM     22  C   UNL     1      -7.769  -3.133 -12.001  0.00  0.00    +0.277 C 
ENDBRANCH  19  21
BRANCH  18  23
ATOM     23  O   UNL     1     -10.747  -1.351  -9.668  0.00  0.00    -0.491 OA
ATOM     24  C   UNL     1     -11.702  -0.752  -8.790  0.00  0.00    +0.277 C 
ENDBRANCH  18  23
ENDBRANCH  12  15
BRANCH   1  25
ATOM     25  S   UNL     1      -6.214  -1.858  -0.670  0.00  0.00    +0.072 S 
ATOM     26  O   UNL     1      -7.324  -2.709  -0.419  0.00  0.00    -0.150 OA
ATOM     27  O   UNL     1      -6.195  -0.494  -0.273  0.00  0.00    -0.150 OA
BRANCH  25  28
ATOM     28  N   UNL     1      -4.899  -2.575   0.036  0.00  0.00    -0.213 N 
ATOM     29  H   UNL     1      -5.012  -3.375   0.573  0.00  0.00    +0.174 HD
BRANCH  28  33
ATOM     30  C   UNL     1      -1.095  -0.940  -0.495  0.00  0.00    +0.124 A 
ATOM     31  C   UNL     1      -2.200  -0.110  -0.392  0.00  0.00    +0.048 A 
ATOM     32  C   UNL     1      -3.460  -0.651  -0.217  0.00  0.00    +0.032 A 
ATOM     33  C   UNL     1      -3.621  -2.026  -0.143  0.00  0.00    +0.090 A 
ATOM     34  C   UNL     1      -2.511  -2.862  -0.247  0.00  0.00    +0.146 A 
ATOM     35  C   UNL     1      -1.251  -2.317  -0.428  0.00  0.00    +0.093 A 
BRANCH  30  37
ATOM     36  C   UNL     1       0.232   1.020  -0.729  0.00  0.00    +0.277 C 
ATOM     37  O   UNL     1       0.143  -0.405  -0.668  0.00  0.00    -0.495 OA
ENDBRANCH  30  37
BRANCH  34  38
ATOM     38  O   UNL     1      -2.666  -4.211  -0.175  0.00  0.00    -0.493 OA
ATOM     39  C   UNL     1      -1.484  -5.007  -0.289  0.00  0.00    +0.277 C 
ENDBRANCH  34  38
ENDBRANCH  28  33
ENDBRANCH  25  28
ENDBRANCH   1  25
TORSDOF 8
