REMARK  Name = ZINC39326689
REMARK  9 active torsions:
REMARK  status: ('A' for Active; 'I' for Inactive)
REMARK    1  A    between atoms: C_1  and  C_2
REMARK    2  A    between atoms: C_7  and  C_8
REMARK    3  A    between atoms: C_11  and  O_14
REMARK    4  A    between atoms: O_14  and  C_15
REMARK    5  A    between atoms: C_19  and  C_27
REMARK    6  A    between atoms: C_21  and  C_25
REMARK    7  A    between atoms: C_22  and  N_24
REMARK    8  A    between atoms: C_30  and  O_33
REMARK    9  A    between atoms: O_33  and  C_34
REMARK                            x       y       z     vdW  Elec       q    Type
REMARK                         _______ _______ _______ _____ _____    ______ ____
ROOT
ATOM      1  C   UNL     1       0.202   1.649  -0.670  0.00  0.00    +0.109 C 
ATOM      2  C   UNL     1       0.253   0.144  -0.614  0.00  0.00    +0.213 C 
ATOM      3  O   UNL     1       1.310  -0.433  -0.762  0.00  0.00    -0.276 OA
ATOM      4  N   UNL     1      -0.875  -0.561  -0.400  0.00  0.00    -0.293 N 
ATOM      5  C   UNL     1      -2.175   0.114  -0.223  0.00  0.00    +0.147 C 
ATOM      6  C   UNL     1      -3.093  -0.454  -1.284  0.00  0.00    +0.013 C 
ATOM      7  C   UNL     1      -3.981   0.331  -1.919  0.00  0.00    +0.016 C 
ATOM      8  C   UNL     1      -2.989  -1.891  -1.605  0.00  0.00    +0.136 C 
ATOM      9  C   UNL     1      -1.956  -2.617  -1.178  0.00  0.00    +0.003 C 
ATOM     10  C   UNL     1      -0.855  -2.024  -0.341  0.00  0.00    +0.143 C 
ATOM     11  C   UNL     1      -1.855  -4.083  -1.530  0.00  0.00    +0.095 C 
ATOM     12  C   UNL     1      -2.746  -4.407  -2.695  0.00  0.00    +0.098 C 
ATOM     13  C   UNL     1      -3.759  -3.573  -3.040  0.00  0.00    +0.199 C 
ATOM     14  O   UNL     1      -3.982  -2.443  -2.349  0.00  0.00    -0.441 OA
ENDROOT
BRANCH   7  15
ATOM     15  C   UNL     1      -4.187   1.720  -1.474  0.00  0.00    -0.024 A 
ATOM     16  C   UNL     1      -4.516   2.712  -2.402  0.00  0.00    +0.011 A 
ATOM     17  C   UNL     1      -4.708   4.010  -1.981  0.00  0.00    +0.046 A 
ATOM     18  C   UNL     1      -4.574   4.333  -0.636  0.00  0.00    +0.120 A 
ATOM     19  C   UNL     1      -4.247   3.350   0.290  0.00  0.00    +0.046 A 
ATOM     20  C   UNL     1      -4.059   2.049  -0.121  0.00  0.00    +0.011 A 
BRANCH  18  21
ATOM     21  O   UNL     1      -4.763   5.614  -0.226  0.00  0.00    -0.495 OA
ATOM     22  C   UNL     1      -4.610   5.877   1.170  0.00  0.00    +0.277 C 
ENDBRANCH  18  21
ENDBRANCH   7  15
BRANCH  11  23
ATOM     23  C   UNL     1      -2.273  -4.910  -0.341  0.00  0.00    -0.035 A 
ATOM     24  C   UNL     1      -3.548  -4.779   0.178  0.00  0.00    +0.008 A 
ATOM     25  C   UNL     1      -3.932  -5.535   1.268  0.00  0.00    +0.046 A 
ATOM     26  C   UNL     1      -3.039  -6.427   1.842  0.00  0.00    +0.120 A 
ATOM     27  C   UNL     1      -1.760  -6.558   1.319  0.00  0.00    +0.046 A 
ATOM     28  C   UNL     1      -1.382  -5.803   0.226  0.00  0.00    +0.008 A 
BRANCH  26  29
ATOM     29  O   UNL     1      -3.415  -7.172   2.915  0.00  0.00    -0.495 OA
ATOM     30  C   UNL     1      -2.443  -8.070   3.454  0.00  0.00    +0.277 C 
ENDBRANCH  26  29
ENDBRANCH  11  23
BRANCH  13  31
ATOM     31  N   UNL     1      -4.563  -3.886  -4.108  0.00  0.00    -0.328 N 
ATOM     32  H   UNL     1      -4.406  -4.700  -4.611  0.00  0.00    +0.145 HD
ATOM     33  H   UNL     1      -5.288  -3.293  -4.359  0.00  0.00    +0.145 HD
ENDBRANCH  13  31
BRANCH  12  34
ATOM     34  C   UNL     1      -2.525  -5.605  -3.447  0.00  0.00    +0.101 C 
ATOM     35  N   UNL     1      -2.349  -6.556  -4.044  0.00  0.00    -0.191 NA
ENDBRANCH  12  34
TORSDOF 6
