REMARK  Name = ZINC22357936
REMARK  8 active torsions:
REMARK  status: ('A' for Active; 'I' for Inactive)
REMARK    1  A    between atoms: C_1  and  N_2
REMARK    2  A    between atoms: N_2  and  C_3
REMARK    3  A    between atoms: N_2  and  C_14
REMARK    4  A    between atoms: C_3  and  C_4
REMARK    5  A    between atoms: C_6  and  N_11
REMARK    6  A    between atoms: C_14  and  C_15
REMARK    7  A    between atoms: C_15  and  N_17
REMARK    8  A    between atoms: C_20  and  C_23
REMARK                            x       y       z     vdW  Elec       q    Type
REMARK                         _______ _______ _______ _____ _____    ______ ____
ROOT
ATOM      1  C   UNL     1      -2.073  -0.102  -1.259  0.00  0.00    +0.222 C 
ATOM      2  O   UNL     1      -1.471   0.534  -2.104  0.00  0.00    -0.276 OA
ENDROOT
BRANCH   1   3
ATOM      3  N   UNL     1      -3.335  -0.454  -1.468  0.00  0.00    -0.158 NA
ATOM      4  C   UNL     1      -3.944  -0.111  -2.604  0.00  0.00    +0.163 A 
ATOM      5  N   UNL     1      -5.222  -0.376  -2.988  0.00  0.00    -0.335 N 
ATOM      6  C   UNL     1      -5.651   0.071  -4.205  0.00  0.00    +0.057 A 
ATOM      7  C   UNL     1      -4.756   0.757  -4.953  0.00  0.00    +0.074 A 
ATOM      8  S   UNL     1      -3.318   0.758  -3.900  0.00  0.00    -0.060 S 
ATOM      9  H   UNL     1      -5.819  -0.873  -2.407  0.00  0.00    +0.168 HD
BRANCH   6  10
ATOM     10  C   UNL     1      -7.027  -0.182  -4.683  0.00  0.00    +0.024 A 
ATOM     11  C   UNL     1      -7.970  -0.941  -4.071  0.00  0.00    +0.093 A 
ATOM     12  N   UNL     1      -9.118  -0.939  -4.814  0.00  0.00    -0.360 N 
ATOM     13  H   UNL     1      -9.932  -1.411  -4.579  0.00  0.00    +0.165 HD
ATOM     14  C   UNL     1      -8.950  -0.168  -5.944  0.00  0.00    +0.047 A 
ATOM     15  C   UNL     1      -7.642   0.344  -5.913  0.00  0.00    +0.009 A 
ATOM     16  C   UNL     1      -7.193   1.172  -6.941  0.00  0.00    +0.010 A 
ATOM     17  C   UNL     1      -8.038   1.487  -7.981  0.00  0.00    +0.001 A 
ATOM     18  C   UNL     1      -9.331   0.984  -8.011  0.00  0.00    +0.002 A 
ATOM     19  C   UNL     1      -9.786   0.158  -7.007  0.00  0.00    +0.026 A 
ENDBRANCH   6  10
ENDBRANCH   1   3
BRANCH   1  20
ATOM     20  C   UNL     1      -1.385  -0.489   0.024  0.00  0.00    +0.021 C 
BRANCH  20  22
ATOM     21  C   UNL     1      -0.020   1.484   0.007  0.00  0.00    -0.095 C 
ATOM     22  N   UNL     1      -0.005   0.015   0.012  0.00  0.00    +0.386 N 
ATOM     23  H   UNL     1       0.468  -0.319  -0.815  0.00  0.00    -0.081 HD
BRANCH  22  24
ATOM     24  C   UNL     1       0.702  -0.463   1.207  0.00  0.00    -0.041 C 
BRANCH  24  25
ATOM     25  C   UNL     1       2.150  -0.049   1.134  0.00  0.00    -0.043 A 
ATOM     26  C   UNL     1       2.613   0.987   1.923  0.00  0.00    +0.036 A 
ATOM     27  C   UNL     1       3.940   1.367   1.855  0.00  0.00    +0.126 A 
ATOM     28  C   UNL     1       4.805   0.711   0.999  0.00  0.00    +0.034 A 
ATOM     29  C   UNL     1       4.343  -0.325   0.210  0.00  0.00    +0.022 A 
ATOM     30  C   UNL     1       3.016  -0.710   0.281  0.00  0.00    +0.042 A 
ATOM     31 CL   UNL     1       2.436  -2.016  -0.704  0.00  0.00    -0.083 Cl
BRANCH  27  32
ATOM     32  N   UNL     1       4.436   2.476   2.700  0.00  0.00    +0.056 N 
ATOM     33  O   UNL     1       3.680   3.050   3.449  0.00  0.00    -0.126 OA
ATOM     34  O   UNL     1       5.597   2.809   2.641  0.00  0.00    -0.126 OA
ENDBRANCH  27  32
ENDBRANCH  24  25
ENDBRANCH  22  24
ENDBRANCH  20  22
ENDBRANCH   1  20
TORSDOF 7
