REMARK  Name = ZINC23597308
REMARK  9 active torsions:
REMARK  status: ('A' for Active; 'I' for Inactive)
REMARK    1  A    between atoms: C_1  and  C_2
REMARK    2  A    between atoms: C_2  and  N_3
REMARK    3  A    between atoms: C_12  and  S_13
REMARK    4  A    between atoms: S_13  and  C_14
REMARK    5  A    between atoms: C_14  and  C_16
REMARK    6  A    between atoms: C_14  and  C_17
REMARK    7  A    between atoms: N_19  and  C_20
REMARK    8  A    between atoms: C_20  and  C_22
REMARK    9  A    between atoms: C_20  and  C_23
REMARK                            x       y       z     vdW  Elec       q    Type
REMARK                         _______ _______ _______ _____ _____    ______ ____
ROOT
ATOM      1  N   UNL     1       1.136   1.913   0.002  0.00  0.00    -0.288 N 
ATOM      2  C   UNL     1      -0.015   1.215   0.009  0.00  0.00    +0.263 A 
ATOM      3  O   UNL     1       0.002  -0.004   0.002  0.00  0.00    -0.267 OA
ATOM      4  C   UNL     1      -1.258   1.923   0.018  0.00  0.00    +0.076 A 
ATOM      5  C   UNL     1      -2.615   1.374   0.033  0.00  0.00    -0.023 A 
ATOM      6  C   UNL     1      -3.633   2.258   0.046  0.00  0.00    -0.004 A 
ATOM      7  S   UNL     1      -2.858   3.852   0.047  0.00  0.00    -0.073 S 
ATOM      8  C   UNL     1      -1.163   3.325   0.030  0.00  0.00    +0.117 A 
ATOM      9  N   UNL     1       0.006   3.954   0.022  0.00  0.00    -0.216 NA
ATOM     10  C   UNL     1       1.137   3.278   0.009  0.00  0.00    +0.173 A 
ATOM     11  C   UNL     1      -5.100   1.953   0.058  0.00  0.00    +0.043 C 
ATOM     12  C   UNL     1      -5.291   0.477  -0.320  0.00  0.00    +0.005 C 
ATOM     13  C   UNL     1      -4.319  -0.372   0.505  0.00  0.00    +0.005 C 
ATOM     14  C   UNL     1      -2.885  -0.128   0.030  0.00  0.00    +0.037 C 
ENDROOT
BRANCH   1  16
ATOM     15  C   UNL     1       2.844   0.951  -1.462  0.00  0.00    +0.027 C 
ATOM     16  C   UNL     1       2.413   1.194  -0.014  0.00  0.00    +0.124 C 
ENDBRANCH   1  16
BRANCH  10  17
ATOM     17  S   UNL     1       2.669   4.146  -0.001  0.00  0.00    -0.075 S 
BRANCH  17  18
ATOM     18  C   UNL     1       2.064   5.852   0.013  0.00  0.00    +0.137 C 
ATOM     19  C   UNL     1       1.331   6.122   1.329  0.00  0.00    +0.029 C 
BRANCH  18  20
ATOM     20  C   UNL     1       3.229   6.800  -0.117  0.00  0.00    +0.227 C 
ATOM     21  O   UNL     1       4.350   6.422   0.150  0.00  0.00    -0.275 OA
ATOM     22  N   UNL     1       3.024   8.066  -0.529  0.00  0.00    -0.308 N 
ATOM     23  H   UNL     1       2.007   8.409  -0.771  0.00  0.00    +0.149 HD
BRANCH  22  24
ATOM     24  C   UNL     1       4.157   8.987  -0.655  0.00  0.00    +0.100 C 
ATOM     25  C   UNL     1       4.444   9.632   0.702  0.00  0.00    +0.033 C 
BRANCH  24  26
ATOM     26  C   UNL     1       3.822  10.060  -1.660  0.00  0.00    -0.027 A 
ATOM     27  C   UNL     1       2.551  10.603  -1.693  0.00  0.00    +0.005 A 
ATOM     28  C   UNL     1       2.246  11.590  -2.612  0.00  0.00    +0.000 A 
ATOM     29  C   UNL     1       3.208  12.027  -3.502  0.00  0.00    +0.000 A 
ATOM     30  C   UNL     1       4.477  11.481  -3.472  0.00  0.00    +0.000 A 
ATOM     31  C   UNL     1       4.784  10.497  -2.551  0.00  0.00    +0.005 A 
ENDBRANCH  24  26
ENDBRANCH  22  24
ENDBRANCH  18  20
ENDBRANCH  17  18
ENDBRANCH  10  17
TORSDOF 6
