REMARK  Name = ZINC13362320
REMARK  4 active torsions:
REMARK  status: ('A' for Active; 'I' for Inactive)
REMARK    1  A    between atoms: C_4  and  C_7
REMARK    2  A    between atoms: C_9  and  N_19
REMARK    3  A    between atoms: N_10  and  C_12
REMARK    4  A    between atoms: C_22  and  C_25
REMARK                            x       y       z     vdW  Elec       q    Type
REMARK                         _______ _______ _______ _____ _____    ______ ____
ROOT
ATOM      1  N   UNL     1      -2.700   5.466  -0.154  0.00  0.00    -0.279 N 
ATOM      2  C   UNL     1      -2.480   4.143   0.195  0.00  0.00    +0.164 A 
ATOM      3  N   UNL     1      -1.349   3.461   0.215  0.00  0.00    -0.225 NA
ATOM      4  C   UNL     1      -1.320   2.187   0.579  0.00  0.00    +0.080 A 
ATOM      5  C   UNL     1      -2.484   1.566   0.935  0.00  0.00    +0.076 A 
ATOM      6  S   UNL     1      -3.651   2.906   0.736  0.00  0.00    -0.060 S 
ATOM      7  H   UNL     1      -1.949   6.050  -0.343  0.00  0.00    +0.155 HD
ENDROOT
BRANCH   4   8
ATOM      8  C   UNL     1      -0.038   1.441   0.594  0.00  0.00    +0.003 A 
ATOM      9  C   UNL     1      -0.029   0.076   0.875  0.00  0.00    +0.014 A 
ATOM     10  C   UNL     1       1.163  -0.622   0.883  0.00  0.00    +0.048 A 
ATOM     11  C   UNL     1       2.352   0.034   0.611  0.00  0.00    +0.142 A 
ATOM     12  C   UNL     1       2.349   1.400   0.330  0.00  0.00    +0.076 A 
ATOM     13  C   UNL     1       1.157   2.103   0.320  0.00  0.00    +0.037 A 
ATOM     14  N   UNL     1       3.563   2.048   0.058  0.00  0.00    -0.280 N 
ATOM     15  C   UNL     1       4.650   1.303  -0.238  0.00  0.00    +0.255 C 
ATOM     16  O   UNL     1       5.717   1.840  -0.448  0.00  0.00    -0.272 OA
ATOM     17  C   UNL     1       4.531  -0.199  -0.307  0.00  0.00    +0.325 C 
ATOM     18  O   UNL     1       3.532  -0.644   0.614  0.00  0.00    -0.481 OA
ATOM     19  H   UNL     1       3.621   3.016   0.082  0.00  0.00    +0.155 HD
ENDBRANCH   4   8
BRANCH   1  22
ATOM     20  C   UNL     1      -6.231   6.109  -0.271  0.00  0.00    +0.095 A 
ATOM     21  C   UNL     1      -5.142   5.226  -0.145  0.00  0.00    +0.074 A 
ATOM     22  C   UNL     1      -4.001   5.958  -0.233  0.00  0.00    +0.129 A 
ATOM     23  N   UNL     1      -4.358   7.260  -0.418  0.00  0.00    -0.218 N 
ATOM     24  N   UNL     1      -5.757   7.325  -0.438  0.00  0.00    -0.165 NA
BRANCH  23  25
ATOM     25  C   UNL     1      -3.481   8.342  -0.563  0.00  0.00    +0.068 A 
ATOM     26  C   UNL     1      -2.285   8.368   0.143  0.00  0.00    +0.029 A 
ATOM     27  C   UNL     1      -1.420   9.434  -0.005  0.00  0.00    +0.022 A 
ATOM     28  C   UNL     1      -1.748  10.481  -0.849  0.00  0.00    +0.041 A 
ATOM     29  C   UNL     1      -2.941  10.460  -1.550  0.00  0.00    +0.022 A 
ATOM     30  C   UNL     1      -3.807   9.394  -1.409  0.00  0.00    +0.029 A 
ATOM     31 CL   UNL     1      -0.661  11.822  -1.028  0.00  0.00    -0.084 Cl
ENDBRANCH  23  25
BRANCH  20  35
ATOM     32  C   UNL     1     -10.343   5.029  -0.153  0.00  0.00    +0.000 A 
ATOM     33  C   UNL     1      -9.983   6.353  -0.335  0.00  0.00    +0.001 A 
ATOM     34  C   UNL     1      -8.650   6.708  -0.374  0.00  0.00    +0.010 A 
ATOM     35  C   UNL     1      -7.666   5.732  -0.229  0.00  0.00    +0.002 A 
ATOM     36  C   UNL     1      -8.035   4.400  -0.051  0.00  0.00    +0.010 A 
ATOM     37  C   UNL     1      -9.371   4.056  -0.009  0.00  0.00    +0.001 A 
ENDBRANCH  20  35
ENDBRANCH   1  22
TORSDOF 4
