REMARK  Name = ZINC36403734
REMARK  6 active torsions:
REMARK  status: ('A' for Active; 'I' for Inactive)
REMARK    1  A    between atoms: C_1  and  C_2
REMARK    2  A    between atoms: C_3  and  C_26
REMARK    3  A    between atoms: C_7  and  N_11
REMARK    4  A    between atoms: N_11  and  C_12
REMARK    5  A    between atoms: C_12  and  C_13
REMARK    6  A    between atoms: C_12  and  C_14
REMARK                            x       y       z     vdW  Elec       q    Type
REMARK                         _______ _______ _______ _____ _____    ______ ____
ROOT
ATOM      1  C   UNL     1       0.428   1.551   4.061  0.00  0.00    +0.155 C 
ATOM      2  C   UNL     1       1.943   1.623   3.856  0.00  0.00    +0.038 C 
ENDROOT
BRANCH   1   3
ATOM      3  C   UNL     1      -0.124   2.945   4.216  0.00  0.00    +0.236 C 
ATOM      4  O   UNL     1      -0.588   3.524   3.257  0.00  0.00    -0.274 OA
ATOM      5  N   UNL     1      -0.104   3.547   5.422  0.00  0.00    -0.300 N 
ATOM      6  C   UNL     1       0.589   2.924   6.559  0.00  0.00    +0.108 C 
ATOM      7  C   UNL     1      -0.390   2.820   7.733  0.00  0.00    +0.023 C 
ATOM      8  C   UNL     1      -0.970   4.205   8.035  0.00  0.00    -0.005 C 
ATOM      9  C   UNL     1      -1.923   4.101   9.227  0.00  0.00    +0.004 C 
ATOM     10  C   UNL     1      -2.513   5.479   9.533  0.00  0.00    +0.000 C 
ATOM     11  C   UNL     1      -3.281   5.986   8.311  0.00  0.00    +0.000 C 
ATOM     12  C   UNL     1      -2.328   6.094   7.120  0.00  0.00    +0.005 C 
ATOM     13  C   UNL     1      -1.735   4.717   6.812  0.00  0.00    +0.010 C 
ATOM     14  C   UNL     1      -0.767   4.841   5.624  0.00  0.00    +0.111 C 
ENDBRANCH   1   3
BRANCH   1  15
ATOM     15  N   UNL     1      -0.192   0.907   2.900  0.00  0.00    -0.317 N 
ATOM     16  H   UNL     1      -0.548   1.448   2.178  0.00  0.00    +0.148 HD
BRANCH  15  23
ATOM     17  C   UNL     1      -1.228   0.964   0.222  0.00  0.00    +0.045 C 
ATOM     18  C   UNL     1      -1.210  -0.531   0.408  0.00  0.00    -0.028 A 
ATOM     19  C   UNL     1      -1.617  -1.343  -0.579  0.00  0.00    -0.008 A 
ATOM     20  S   UNL     1      -1.412  -2.974   0.111  0.00  0.00    -0.074 S 
ATOM     21  C   UNL     1      -0.786  -2.522   1.707  0.00  0.00    +0.114 A 
ATOM     22  C   UNL     1      -0.748  -1.111   1.657  0.00  0.00    +0.051 A 
ATOM     23  C   UNL     1      -0.268  -0.472   2.834  0.00  0.00    +0.131 A 
ATOM     24  N   UNL     1       0.104  -1.214   3.864  0.00  0.00    -0.220 NA
ATOM     25  C   UNL     1       0.045  -2.534   3.839  0.00  0.00    +0.224 A 
ATOM     26  N   UNL     1      -0.400  -3.183   2.780  0.00  0.00    -0.228 NA
ATOM     27  C   UNL     1      -2.127  -0.965  -1.946  0.00  0.00    +0.052 C 
ENDBRANCH  15  23
ENDBRANCH   1  15
TORSDOF 3
