REMARK  Name = ZINC05423103
REMARK  9 active torsions:
REMARK  status: ('A' for Active; 'I' for Inactive)
REMARK    1  A    between atoms: C_1  and  C_2
REMARK    2  A    between atoms: C_3  and  N_9
REMARK    3  A    between atoms: C_4  and  C_8
REMARK    4  A    between atoms: N_5  and  C_7
REMARK    5  A    between atoms: N_9  and  S_10
REMARK    6  A    between atoms: S_10  and  C_13
REMARK    7  A    between atoms: C_16  and  C_19
REMARK    8  A    between atoms: C_19  and  C_20
REMARK    9  A    between atoms: C_19  and  C_21
REMARK                            x       y       z     vdW  Elec       q    Type
REMARK                         _______ _______ _______ _____ _____    ______ ____
ROOT
ATOM      1  S   UNL     1      -2.441   0.495  -0.227  0.00  0.00    +0.072 S 
ATOM      2  O   UNL     1      -3.557  -0.384  -0.210  0.00  0.00    -0.150 OA
ATOM      3  O   UNL     1      -2.300   1.566   0.696  0.00  0.00    -0.150 OA
ENDROOT
BRANCH   1   4
ATOM      4  C   UNL     1      -2.384   1.208  -1.837  0.00  0.00    +0.109 A 
ATOM      5  C   UNL     1      -1.873   2.480  -2.013  0.00  0.00    +0.029 A 
ATOM      6  C   UNL     1      -1.825   3.037  -3.277  0.00  0.00    +0.006 A 
ATOM      7  C   UNL     1      -2.296   2.326  -4.364  0.00  0.00    -0.045 A 
ATOM      8  C   UNL     1      -2.812   1.056  -4.188  0.00  0.00    +0.006 A 
ATOM      9  C   UNL     1      -2.857   0.497  -2.925  0.00  0.00    +0.029 A 
BRANCH   7  10
ATOM     10  C   UNL     1      -2.247   2.935  -5.742  0.00  0.00    +0.013 C 
ATOM     11  C   UNL     1      -3.070   4.224  -5.759  0.00  0.00    +0.012 C 
ATOM     12  C   UNL     1      -0.795   3.251  -6.108  0.00  0.00    +0.012 C 
ENDBRANCH   7  10
ENDBRANCH   1   4
BRANCH   1  13
ATOM     13  N   UNL     1      -1.091  -0.451  -0.062  0.00  0.00    -0.213 N 
ATOM     14  H   UNL     1      -1.180  -1.414   0.012  0.00  0.00    +0.174 HD
BRANCH  13  17
ATOM     15  C   UNL     1      -0.009   1.283   2.287  0.00  0.00    +0.069 C 
ATOM     16  C   UNL     1       0.706   0.926   1.009  0.00  0.00    +0.082 A 
ATOM     17  C   UNL     1       0.185   0.143  -0.031  0.00  0.00    +0.091 A 
ATOM     18  C   UNL     1       1.130   0.058  -1.001  0.00  0.00    +0.058 A 
ATOM     19  N   UNL     1       2.212   0.767  -0.583  0.00  0.00    -0.270 N 
ATOM     20  N   UNL     1       1.916   1.298   0.679  0.00  0.00    -0.175 NA
ATOM     21  C   UNL     1       3.465   0.943  -1.321  0.00  0.00    +0.172 C 
ATOM     22  C   UNL     1       1.002  -0.687  -2.305  0.00  0.00    +0.067 C 
ENDBRANCH  13  17
ENDBRANCH   1  13
TORSDOF 4
