REMARK  Name = ZINC06835121
REMARK  7 active torsions:
REMARK  status: ('A' for Active; 'I' for Inactive)
REMARK    1  A    between atoms: C_1  and  C_2
REMARK    2  A    between atoms: C_2  and  C_3
REMARK    3  A    between atoms: C_3  and  C_23
REMARK    4  A    between atoms: N_6  and  C_10
REMARK    5  A    between atoms: C_10  and  C_11
REMARK    6  A    between atoms: N_13  and  C_14
REMARK    7  A    between atoms: C_20  and  C_22
REMARK                            x       y       z     vdW  Elec       q    Type
REMARK                         _______ _______ _______ _____ _____    ______ ____
ROOT
ATOM      1  C   UNL     1       8.544  -0.517  -3.332  0.00  0.00    +0.138 C 
ATOM      2  C   UNL     1       7.163  -0.035  -3.729  0.00  0.00    +0.251 C 
ATOM      3  O   UNL     1       6.867   1.053  -4.173  0.00  0.00    -0.272 OA
ATOM      4  N   UNL     1       6.333  -1.068  -3.484  0.00  0.00    -0.215 N 
ATOM      5  C   UNL     1       6.991  -2.127  -2.999  0.00  0.00    +0.310 C 
ATOM      6  O   UNL     1       6.457  -3.178  -2.706  0.00  0.00    -0.252 OA
ATOM      7  N   UNL     1       8.311  -1.897  -2.873  0.00  0.00    -0.281 N 
ATOM      8  H   UNL     1       8.978  -2.520  -2.544  0.00  0.00    +0.152 HD
ENDROOT
BRANCH   1   9
ATOM      9  C   UNL     1       9.107   0.325  -2.216  0.00  0.00    -0.015 A 
ATOM     10  C   UNL     1       9.944   1.387  -2.506  0.00  0.00    +0.007 A 
ATOM     11  C   UNL     1      10.455   2.163  -1.483  0.00  0.00    +0.020 A 
ATOM     12  C   UNL     1      10.140   1.869  -0.168  0.00  0.00    +0.041 A 
ATOM     13  C   UNL     1       9.308   0.803   0.122  0.00  0.00    +0.020 A 
ATOM     14  C   UNL     1       8.792   0.031  -0.902  0.00  0.00    +0.007 A 
ATOM     15 CL   UNL     1      10.789   2.839   1.118  0.00  0.00    -0.084 Cl
ENDBRANCH   1   9
BRANCH   1  17
ATOM     16  C   UNL     1       8.864  -1.321  -5.676  0.00  0.00    +0.007 C 
ATOM     17  C   UNL     1       9.483  -0.503  -4.540  0.00  0.00    +0.037 C 
ENDBRANCH   1  17
BRANCH   4  18
ATOM     18  C   UNL     1       4.888  -1.037  -3.724  0.00  0.00    +0.213 C 
BRANCH  18  19
ATOM     19  C   UNL     1       4.183  -0.551  -2.485  0.00  0.00    +0.231 C 
ATOM     20  O   UNL     1       4.824  -0.259  -1.497  0.00  0.00    -0.274 OA
ATOM     21  N   UNL     1       2.839  -0.440  -2.473  0.00  0.00    -0.311 N 
ATOM     22  H   UNL     1       2.327  -0.674  -3.263  0.00  0.00    +0.149 HD
BRANCH  21  23
ATOM     23  C   UNL     1       2.154   0.032  -1.268  0.00  0.00    +0.076 C 
ATOM     24  C   UNL     1       2.133   1.562  -1.259  0.00  0.00    +0.022 C 
ATOM     25  C   UNL     1       1.417   2.055  -0.000  0.00  0.00    +0.002 C 
ATOM     26  C   UNL     1      -0.019   1.526   0.010  0.00  0.00    +0.000 C 
ATOM     27  C   UNL     1       0.002  -0.004   0.002  0.00  0.00    +0.005 C 
ATOM     28  C   UNL     1       0.718  -0.497  -1.257  0.00  0.00    +0.006 C 
ATOM     29  C   UNL     1       0.739  -2.027  -1.265  0.00  0.00    +0.009 C 
ENDBRANCH  21  23
ENDBRANCH  18  19
ENDBRANCH   4  18
TORSDOF 5
