REMARK  Name = ZINC03846455
REMARK  2 active torsions:
REMARK  status: ('A' for Active; 'I' for Inactive)
REMARK    1  A    between atoms: C_1  and  C_2
REMARK    2  A    between atoms: N_12  and  C_19
REMARK                            x       y       z     vdW  Elec       q    Type
REMARK                         _______ _______ _______ _____ _____    ______ ____
ROOT
ATOM      1  C   UNL     1      -0.013   1.086   0.008  0.00  0.00    +0.068 C 
ATOM      2  C   UNL     1      -0.718   1.572   1.248  0.00  0.00    +0.070 C 
ATOM      3  N   UNL     1      -1.165   0.656   2.057  0.00  0.00    -0.183 NA
ATOM      4  N   UNL     1      -1.849   0.811   3.266  0.00  0.00    -0.190 N 
ATOM      5  C   UNL     1      -2.228   1.923   3.917  0.00  0.00    +0.323 C 
ATOM      6  O   UNL     1      -2.817   1.735   4.963  0.00  0.00    -0.251 OA
ATOM      7  N   UNL     1      -2.053   3.218   3.582  0.00  0.00    -0.267 N 
ATOM      8  C   UNL     1      -1.424   3.728   2.459  0.00  0.00    +0.058 A 
ATOM      9  C   UNL     1      -0.821   3.033   1.415  0.00  0.00    +0.084 A 
ATOM     10  C   UNL     1      -0.223   3.745   0.351  0.00  0.00    +0.262 A 
ATOM     11  O   UNL     1       0.298   3.129  -0.563  0.00  0.00    -0.267 OA
ATOM     12  N   UNL     1      -0.217   5.090   0.328  0.00  0.00    -0.311 N 
ATOM     13  C   UNL     1      -0.793   5.835   1.337  0.00  0.00    +0.054 A 
ATOM     14  C   UNL     1      -1.419   5.190   2.422  0.00  0.00    +0.021 A 
ATOM     15  C   UNL     1      -2.002   5.947   3.442  0.00  0.00    +0.012 A 
ATOM     16  C   UNL     1      -1.978   7.311   3.373  0.00  0.00    +0.001 A 
ATOM     17  C   UNL     1      -1.379   7.952   2.297  0.00  0.00    +0.002 A 
ATOM     18  C   UNL     1      -0.776   7.225   1.292  0.00  0.00    +0.026 A 
ATOM     19  C   UNL     1       0.416   5.781  -0.797  0.00  0.00    +0.152 C 
ATOM     20  H   UNL     1      -2.090  -0.020   3.706  0.00  0.00    +0.179 HD
ATOM     21  H   UNL     1      -2.410   3.871   4.204  0.00  0.00    +0.156 HD
ENDROOT
TORSDOF 0
