REMARK  Name = ZINC01029073
REMARK  7 active torsions:
REMARK  status: ('A' for Active; 'I' for Inactive)
REMARK    1  A    between atoms: C_1  and  C_2
REMARK    2  A    between atoms: C_5  and  C_19
REMARK    3  A    between atoms: C_6  and  N_7
REMARK    4  A    between atoms: N_7  and  S_8
REMARK    5  A    between atoms: S_8  and  C_11
REMARK    6  A    between atoms: C_19  and  O_21
REMARK    7  A    between atoms: O_21  and  C_22
REMARK                            x       y       z     vdW  Elec       q    Type
REMARK                         _______ _______ _______ _____ _____    ______ ____
ROOT
ATOM      1  N   UNL     1       0.116   5.694  -1.659  0.00  0.00    -0.215 N 
ATOM      2  H   UNL     1       0.597   6.501  -1.420  0.00  0.00    +0.174 HD
ENDROOT
BRANCH   1   8
ATOM      3  C   UNL     1       0.181   6.474  -4.425  0.00  0.00    +0.046 C 
ATOM      4  C   UNL     1      -1.100   6.149  -3.701  0.00  0.00    -0.020 A 
ATOM      5  C   UNL     1      -2.289   6.212  -4.350  0.00  0.00    +0.051 A 
ATOM      6  S   UNL     1      -3.438   5.770  -3.129  0.00  0.00    -0.088 S 
ATOM      7  C   UNL     1      -2.307   5.502  -1.776  0.00  0.00    +0.119 A 
ATOM      8  C   UNL     1      -1.076   5.780  -2.372  0.00  0.00    +0.072 A 
BRANCH   7   9
ATOM      9  C   UNL     1      -2.585   5.111  -0.448  0.00  0.00    +0.347 C 
ATOM     10  O   UNL     1      -1.696   5.102   0.384  0.00  0.00    -0.244 OA
BRANCH   9  11
ATOM     11  O   UNL     1      -3.838   4.746  -0.099  0.00  0.00    -0.464 OA
ATOM     12  C   UNL     1      -4.073   4.471   1.283  0.00  0.00    +0.280 C 
ENDBRANCH   9  11
ENDBRANCH   7   9
ENDBRANCH   1   8
BRANCH   1  13
ATOM     13  S   UNL     1       0.713   4.213  -1.220  0.00  0.00    +0.072 S 
ATOM     14  O   UNL     1      -0.355   3.514  -0.594  0.00  0.00    -0.150 OA
ATOM     15  O   UNL     1       1.953   4.452  -0.568  0.00  0.00    -0.150 OA
BRANCH  13  16
ATOM     16  C   UNL     1       1.085   3.340  -2.704  0.00  0.00    +0.111 A 
ATOM     17  C   UNL     1       2.302   3.528  -3.330  0.00  0.00    +0.049 A 
ATOM     18  C   UNL     1       2.595   2.843  -4.496  0.00  0.00    +0.044 A 
ATOM     19  C   UNL     1       1.668   1.969  -5.035  0.00  0.00    +0.040 A 
ATOM     20  C   UNL     1       0.448   1.784  -4.411  0.00  0.00    +0.044 A 
ATOM     21  C   UNL     1       0.158   2.467  -3.243  0.00  0.00    +0.049 A 
ATOM     22 CL   UNL     1      -0.719   0.693  -5.091  0.00  0.00    -0.083 Cl
ATOM     23 CL   UNL     1       4.124   3.080  -5.282  0.00  0.00    -0.083 Cl
ENDBRANCH  13  16
ENDBRANCH   1  13
TORSDOF 5
