REMARK  Name = ZINC13910996
REMARK  14 active torsions:
REMARK  status: ('A' for Active; 'I' for Inactive)
REMARK    1  A    between atoms: C_1  and  C_2
REMARK    2  A    between atoms: C_4  and  C_41
REMARK    3  A    between atoms: C_6  and  C_8
REMARK    4  A    between atoms: C_9  and  C_29
REMARK    5  A    between atoms: C_12  and  C_18
REMARK    6  A    between atoms: C_21  and  C_28
REMARK    7  A    between atoms: C_25  and  C_27
REMARK    8  A    between atoms: C_29  and  C_30
REMARK    9  A    between atoms: C_30  and  N_80
REMARK   10  A    between atoms: C_31  and  C_32
REMARK   11  A    between atoms: C_31  and  N_80
REMARK   12  A    between atoms: C_32  and  C_33
REMARK   13  A    between atoms: C_33  and  C_34
REMARK   14  A    between atoms: C_34  and  C_35
REMARK                            x       y       z     vdW  Elec       q    Type
REMARK                         _______ _______ _______ _____ _____    ______ ____
ROOT
ATOM      1  C   UNL     1      -0.913   0.779   0.310  0.00  0.00    +0.051 A 
ATOM      2  C   UNL     1      -0.745   2.123   0.262  0.00  0.00    -0.016 A 
ATOM      3  C   UNL     1       0.697   2.371   0.280  0.00  0.00    +0.004 A 
ATOM      4  C   UNL     1       1.478   3.526   0.246  0.00  0.00    +0.023 A 
ATOM      5  C   UNL     1       2.864   3.414   0.279  0.00  0.00    +0.038 A 
ATOM      6  C   UNL     1       3.465   2.149   0.345  0.00  0.00    +0.015 A 
ATOM      7  C   UNL     1       2.705   1.018   0.379  0.00  0.00    +0.027 A 
ATOM      8  C   UNL     1       1.314   1.105   0.347  0.00  0.00    +0.047 A 
ATOM      9  N   UNL     1       0.315   0.162   0.367  0.00  0.00    -0.354 N 
ATOM     10  H   UNL     1       0.455  -0.797   0.410  0.00  0.00    +0.166 HD
ENDROOT
BRANCH   5  11
ATOM     11  C   UNL     1       3.703   4.629   0.243  0.00  0.00    +0.247 C 
ATOM     12  O   UNL     1       3.183   5.727   0.266  0.00  0.00    -0.270 OA
ATOM     13  N   UNL     1       5.045   4.519   0.184  0.00  0.00    -0.292 N 
ATOM     14  C   UNL     1       5.799   3.260   0.093  0.00  0.00    +0.074 C 
ATOM     15  C   UNL     1       7.298   3.624   0.076  0.00  0.00    +0.024 C 
ATOM     16  C   UNL     1       7.321   5.028   0.737  0.00  0.00    +0.024 C 
ATOM     17  C   UNL     1       6.001   5.641   0.207  0.00  0.00    +0.074 C 
ATOM     18  C   UNL     1       5.508   6.740   1.151  0.00  0.00    +0.028 C 
ATOM     19  C   UNL     1       5.430   2.525  -1.197  0.00  0.00    +0.028 C 
ENDBRANCH   5  11
BRANCH   1  25
ATOM     20  C   UNL     1      -5.453   0.128  -1.657  0.00  0.00    +0.044 C 
ATOM     21  C   UNL     1      -4.404  -0.234  -0.637  0.00  0.00    -0.050 A 
ATOM     22  C   UNL     1      -4.662  -1.220   0.298  0.00  0.00    +0.006 A 
ATOM     23  C   UNL     1      -3.703  -1.558   1.237  0.00  0.00    -0.050 A 
ATOM     24  C   UNL     1      -2.484  -0.913   1.247  0.00  0.00    +0.013 A 
ATOM     25  C   UNL     1      -2.218   0.083   0.306  0.00  0.00    -0.001 A 
ATOM     26  C   UNL     1      -3.191   0.423  -0.635  0.00  0.00    +0.013 A 
ATOM     27  C   UNL     1      -3.992  -2.635   2.252  0.00  0.00    +0.044 C 
ENDBRANCH   1  25
BRANCH   2  28
ATOM     28  C   UNL     1      -1.833   3.163   0.194  0.00  0.00    +0.019 C 
BRANCH  28  29
ATOM     29  C   UNL     1      -2.320   3.485   1.609  0.00  0.00    -0.078 C 
BRANCH  29  30
ATOM     30  N   UNL     1      -3.463   4.413   1.528  0.00  0.00    +0.379 N 
ATOM     31  H   UNL     1      -4.219   3.972   0.991  0.00  0.00    -0.086 HD
ATOM     32  H   UNL     1      -3.167   5.276   1.057  0.00  0.00    -0.086 HD
BRANCH  30  33
ATOM     33  C   UNL     1      -3.954   4.741   2.880  0.00  0.00    -0.083 C 
BRANCH  33  34
ATOM     34  C   UNL     1      -5.138   5.703   2.764  0.00  0.00    -0.019 C 
BRANCH  34  35
ATOM     35  C   UNL     1      -5.653   6.048   4.163  0.00  0.00    +0.003 C 
BRANCH  35  36
ATOM     36  C   UNL     1      -6.837   7.011   4.047  0.00  0.00    +0.035 C 
BRANCH  36  37
ATOM     37  C   UNL     1      -7.344   7.351   5.424  0.00  0.00    -0.045 A 
ATOM     38  C   UNL     1      -8.335   6.589   6.024  0.00  0.00    +0.023 A 
ATOM     39  C   UNL     1      -8.772   6.929   7.290  0.00  0.00    +0.111 A 
ATOM     40  N   UNL     1      -8.265   7.969   7.922  0.00  0.00    -0.263 NA
ATOM     41  C   UNL     1      -7.325   8.719   7.381  0.00  0.00    +0.111 A 
ATOM     42  C   UNL     1      -6.835   8.437   6.120  0.00  0.00    +0.023 A 
ENDBRANCH  36  37
ENDBRANCH  35  36
ENDBRANCH  34  35
ENDBRANCH  33  34
ENDBRANCH  30  33
ENDBRANCH  29  30
ENDBRANCH  28  29
ENDBRANCH   2  28
TORSDOF 10
