REMARK  Name = ZINC14980696
REMARK  8 active torsions:
REMARK  status: ('A' for Active; 'I' for Inactive)
REMARK    1  A    between atoms: C_1  and  O_2
REMARK    2  A    between atoms: O_2  and  C_3
REMARK    3  A    between atoms: C_8  and  C_22
REMARK    4  A    between atoms: N_11  and  C_14
REMARK    5  A    between atoms: C_14  and  C_15
REMARK    6  A    between atoms: C_22  and  N_55
REMARK    7  A    between atoms: C_23  and  C_24
REMARK    8  A    between atoms: C_23  and  N_55
REMARK                            x       y       z     vdW  Elec       q    Type
REMARK                         _______ _______ _______ _____ _____    ______ ____
ROOT
ATOM      1  C   UNL     1      -6.824  -0.118   6.620  0.00  0.00    +0.122 A 
ATOM      2  C   UNL     1      -7.131   0.979   5.815  0.00  0.00    +0.046 A 
ATOM      3  C   UNL     1      -6.450   1.199   4.654  0.00  0.00    +0.013 A 
ATOM      4  C   UNL     1      -5.434   0.317   4.266  0.00  0.00    -0.001 A 
ATOM      5  C   UNL     1      -4.686   0.525   3.026  0.00  0.00    +0.017 A 
ATOM      6  C   UNL     1      -3.712  -0.362   2.699  0.00  0.00    +0.001 A 
ATOM      7  C   UNL     1      -3.440  -1.460   3.540  0.00  0.00    +0.253 A 
ATOM      8  O   UNL     1      -2.565  -2.248   3.224  0.00  0.00    -0.267 OA
ATOM      9  N   UNL     1      -4.118  -1.658   4.684  0.00  0.00    -0.303 N 
ATOM     10  C   UNL     1      -5.119  -0.793   5.074  0.00  0.00    +0.056 A 
ATOM     11  C   UNL     1      -5.823  -1.001   6.253  0.00  0.00    +0.072 A 
ENDROOT
BRANCH   1  13
ATOM     12  C   UNL     1      -8.532   0.626   8.094  0.00  0.00    +0.277 C 
ATOM     13  O   UNL     1      -7.512  -0.321   7.772  0.00  0.00    -0.495 OA
ENDBRANCH   1  13
BRANCH   9  14
ATOM     14  C   UNL     1      -3.793  -2.812   5.526  0.00  0.00    +0.162 C 
BRANCH  14  15
ATOM     15  C   UNL     1      -4.285  -4.072   4.863  0.00  0.00    -0.009 A 
ATOM     16  C   UNL     1      -3.415  -4.847   4.118  0.00  0.00    +0.007 A 
ATOM     17  C   UNL     1      -3.866  -6.003   3.510  0.00  0.00    +0.000 A 
ATOM     18  C   UNL     1      -5.188  -6.386   3.646  0.00  0.00    +0.001 A 
ATOM     19  C   UNL     1      -6.058  -5.613   4.391  0.00  0.00    +0.020 A 
ATOM     20  C   UNL     1      -5.606  -4.458   5.004  0.00  0.00    +0.046 A 
ATOM     21 CL   UNL     1      -6.697  -3.490   5.946  0.00  0.00    -0.083 Cl
ENDBRANCH  14  15
ENDBRANCH   9  14
BRANCH   6  22
ATOM     22  C   UNL     1      -2.923  -0.175   1.429  0.00  0.00    -0.041 C 
BRANCH  22  23
ATOM     23  N   UNL     1      -1.676   0.550   1.737  0.00  0.00    +0.384 N 
ATOM     24  H   UNL     1      -1.126   0.007   2.413  0.00  0.00    -0.085 HD
ATOM     25  H   UNL     1      -1.908   1.465   2.141  0.00  0.00    -0.085 HD
BRANCH  23  26
ATOM     26  C   UNL     1      -0.882   0.747   0.510  0.00  0.00    -0.046 C 
BRANCH  26  27
ATOM     27  C   UNL     1       0.383   1.490   0.854  0.00  0.00    -0.061 A 
ATOM     28  C   UNL     1       1.521   0.787   1.206  0.00  0.00    +0.005 A 
ATOM     29  C   UNL     1       2.686   1.464   1.517  0.00  0.00    +0.050 A 
ATOM     30  C   UNL     1       2.714   2.848   1.482  0.00  0.00    +0.166 A 
ATOM     31  C   UNL     1       1.567   3.556   1.133  0.00  0.00    +0.166 A 
ATOM     32  C   UNL     1       0.403   2.871   0.823  0.00  0.00    +0.051 A 
ATOM     33  O   UNL     1       1.849   4.891   1.172  0.00  0.00    -0.453 OA
ATOM     34  C   UNL     1       3.285   4.981   1.149  0.00  0.00    +0.466 C 
ATOM     35  O   UNL     1       3.715   3.740   1.740  0.00  0.00    -0.453 OA
ENDBRANCH  26  27
ENDBRANCH  23  26
ENDBRANCH  22  23
ENDBRANCH   6  22
TORSDOF 7
