REMARK  Name = ZINC39445219
REMARK  13 active torsions:
REMARK  status: ('A' for Active; 'I' for Inactive)
REMARK    1  A    between atoms: C_1  and  C_2
REMARK    2  A    between atoms: C_2  and  C_3
REMARK    3  A    between atoms: C_3  and  C_4
REMARK    4  A    between atoms: C_4  and  N_5
REMARK    5  A    between atoms: C_6  and  S_27
REMARK    6  A    between atoms: C_10  and  C_11
REMARK    7  A    between atoms: C_11  and  N_12
REMARK    8  A    between atoms: N_12  and  C_13
REMARK    9  A    between atoms: N_12  and  C_14
REMARK   10  A    between atoms: C_14  and  C_15
REMARK   11  A    between atoms: C_15  and  C_16
REMARK   12  A    between atoms: S_27  and  C_30
REMARK   13  A    between atoms: C_30  and  C_31
REMARK                            x       y       z     vdW  Elec       q    Type
REMARK                         _______ _______ _______ _____ _____    ______ ____
ROOT
ATOM      1  N   UNL     1       0.679  -6.039  -1.087  0.00  0.00    +0.379 N 
ATOM      2  C   UNL     1       1.855  -6.831  -1.473  0.00  0.00    -0.096 C 
ATOM      3  H   UNL     1       0.101  -5.879  -1.897  0.00  0.00    -0.082 HD
ENDROOT
BRANCH   1   4
ATOM      4  C   UNL     1       1.116  -4.750  -0.534  0.00  0.00    -0.054 C 
BRANCH   4   9
ATOM      5  N   UNL     1       1.961  -2.513  -1.175  0.00  0.00    -0.257 NA
ATOM      6  C   UNL     1       3.367  -2.569  -0.709  0.00  0.00    +0.319 C 
ATOM      7  N   UNL     1       3.997  -3.656  -1.467  0.00  0.00    -0.254 NA
ATOM      8  C   UNL     1       3.114  -4.411  -1.997  0.00  0.00    +0.098 C 
ATOM      9  C   UNL     1       1.733  -3.901  -1.648  0.00  0.00    +0.085 C 
BRANCH   6  10
ATOM     10  S   UNL     1       4.204  -0.997  -1.054  0.00  0.00    +0.005 S 
ATOM     11  O   UNL     1       3.515   0.039  -0.367  0.00  0.00    -0.171 OA
ATOM     12  O   UNL     1       5.596  -1.169  -0.828  0.00  0.00    -0.171 OA
BRANCH  10  13
ATOM     13  C   UNL     1       3.934  -0.781  -2.835  0.00  0.00    +0.166 C 
ATOM     14  C   UNL     1       4.589   0.522  -3.296  0.00  0.00    +0.028 C 
ENDBRANCH  10  13
ENDBRANCH   6  10
BRANCH   5  15
ATOM     15  C   UNL     1       1.053  -2.177  -0.070  0.00  0.00    +0.088 C 
BRANCH  15  16
ATOM     16  C   UNL     1      -0.369  -2.014  -0.611  0.00  0.00    +0.015 C 
BRANCH  16  18
ATOM     17  C   UNL     1      -2.753  -1.600   0.012  0.00  0.00    +0.004 C 
ATOM     18  C   UNL     1      -1.331  -1.764   0.553  0.00  0.00    -0.002 C 
ENDBRANCH  16  18
ENDBRANCH  15  16
ENDBRANCH   5  15
ENDBRANCH   4   9
ENDBRANCH   1   4
BRANCH   1  19
ATOM     19  C   UNL     1      -0.091  -6.771  -0.072  0.00  0.00    -0.071 C 
BRANCH  19  20
ATOM     20  C   UNL     1      -0.652  -8.056  -0.685  0.00  0.00    +0.056 C 
BRANCH  20  21
ATOM     21  C   UNL     1      -1.442  -8.806   0.355  0.00  0.00    +0.106 A 
ATOM     22  H   UNL     1      -3.305  -9.046  -0.555  0.00  0.00    +0.167 HD
ATOM     23  N   UNL     1      -0.987  -9.168   1.519  0.00  0.00    -0.233 NA
ATOM     24  C   UNL     1      -1.959  -9.823   2.206  0.00  0.00    +0.089 A 
ATOM     25  C   UNL     1      -2.014 -10.413   3.471  0.00  0.00    +0.031 A 
ATOM     26  C   UNL     1      -3.166 -11.012   3.894  0.00  0.00    +0.022 A 
ATOM     27  C   UNL     1      -4.288 -11.044   3.077  0.00  0.00    +0.043 A 
ATOM     28  C   UNL     1      -4.257 -10.468   1.823  0.00  0.00    +0.047 A 
ATOM     29  C   UNL     1      -3.095  -9.854   1.378  0.00  0.00    +0.068 A 
ATOM     30  N   UNL     1      -2.738  -9.197   0.217  0.00  0.00    -0.342 N 
ATOM     31 CL   UNL     1      -5.741 -11.812   3.637  0.00  0.00    -0.083 Cl
ENDBRANCH  20  21
ENDBRANCH  19  20
ENDBRANCH   1  19
TORSDOF 10
