REMARK  Name = ZINC37783998
REMARK  4 active torsions:
REMARK  status: ('A' for Active; 'I' for Inactive)
REMARK    1  A    between atoms: C_1  and  C_2
REMARK    2  A    between atoms: C_2  and  C_4
REMARK    3  A    between atoms: C_2  and  N_13
REMARK    4  A    between atoms: N_13  and  C_14
REMARK                            x       y       z     vdW  Elec       q    Type
REMARK                         _______ _______ _______ _____ _____    ______ ____
ROOT
ATOM      1  N   UNL     1      -1.372  -0.511   0.012  0.00  0.00    -0.337 N 
ATOM      2  H   UNL     1      -1.794  -0.752   0.852  0.00  0.00    +0.147 HD
ENDROOT
BRANCH   1   3
ATOM      3  C   UNL     1      -2.074  -0.647  -1.184  0.00  0.00    +0.038 A 
ATOM      4  C   UNL     1      -1.476  -0.310  -2.384  0.00  0.00    +0.024 A 
ATOM      5  C   UNL     1      -2.169  -0.445  -3.578  0.00  0.00    +0.004 A 
ATOM      6  C   UNL     1      -3.464  -0.914  -3.590  0.00  0.00    +0.028 A 
ATOM      7  C   UNL     1      -4.090  -1.260  -2.395  0.00  0.00    +0.067 A 
ATOM      8  C   UNL     1      -3.394  -1.134  -1.179  0.00  0.00    +0.040 A 
ATOM      9  C   UNL     1      -4.272  -1.560  -0.155  0.00  0.00    +0.144 A 
ATOM     10  N   UNL     1      -5.399  -1.920  -0.697  0.00  0.00    -0.181 NA
ATOM     11  N   UNL     1      -5.335  -1.744  -2.084  0.00  0.00    -0.277 N 
ATOM     12  H   UNL     1      -6.045  -1.939  -2.716  0.00  0.00    +0.189 HD
ENDBRANCH   1   3
BRANCH   1  14
ATOM     13  C   UNL     1      -0.019   1.526   0.010  0.00  0.00    +0.033 C 
ATOM     14  C   UNL     1       0.002  -0.004   0.002  0.00  0.00    +0.098 C 
BRANCH  14  15
ATOM     15  C   UNL     1       0.731  -0.503   1.223  0.00  0.00    -0.027 A 
ATOM     16  C   UNL     1       0.083  -0.560   2.443  0.00  0.00    +0.009 A 
ATOM     17  C   UNL     1       0.744  -1.020   3.563  0.00  0.00    +0.046 A 
ATOM     18  C   UNL     1       2.072  -1.432   3.474  0.00  0.00    +0.124 A 
ATOM     19  C   UNL     1       2.714  -1.363   2.244  0.00  0.00    -0.002 A 
ATOM     20  C   UNL     1       2.049  -0.912   1.126  0.00  0.00    +0.012 A 
ATOM     21  C   UNL     1       4.135  -1.847   2.458  0.00  0.00    +0.080 C 
ATOM     22  C   UNL     1       4.263  -1.794   3.999  0.00  0.00    +0.234 C 
ATOM     23  O   UNL     1       2.899  -1.924   4.436  0.00  0.00    -0.491 OA
ENDBRANCH  14  15
ENDBRANCH   1  14
TORSDOF 3
