REMARK  Name = ZINC11788609
REMARK  13 active torsions:
REMARK  status: ('A' for Active; 'I' for Inactive)
REMARK    1  A    between atoms: C_1  and  C_2
REMARK    2  A    between atoms: C_3  and  C_34
REMARK    3  A    between atoms: C_9  and  C_12
REMARK    4  A    between atoms: N_14  and  C_15
REMARK    5  A    between atoms: C_15  and  C_16
REMARK    6  A    between atoms: C_16  and  C_18
REMARK    7  A    between atoms: C_16  and  O_19
REMARK    8  A    between atoms: O_19  and  C_20
REMARK    9  A    between atoms: C_24  and  C_26
REMARK   10  A    between atoms: C_26  and  N_64
REMARK   11  A    between atoms: C_27  and  N_64
REMARK   12  A    between atoms: C_28  and  C_29
REMARK   13  A    between atoms: C_28  and  N_64
REMARK                            x       y       z     vdW  Elec       q    Type
REMARK                         _______ _______ _______ _____ _____    ______ ____
ROOT
ATOM      1  C   UNL     1       1.192   5.866   0.135  0.00  0.00    +0.187 C 
ATOM      2  C   UNL     1       1.588   5.982   1.609  0.00  0.00    +0.053 C 
ENDROOT
BRANCH   1   3
ATOM      3  C   UNL     1       1.082   7.265  -0.475  0.00  0.00    +0.148 C 
BRANCH   3   6
ATOM      4  C   UNL     1       0.546   8.266  -2.630  0.00  0.00    +0.244 C 
ATOM      5  O   UNL     1       0.719   9.361  -2.132  0.00  0.00    -0.270 OA
ATOM      6  N   UNL     1       0.703   7.154  -1.885  0.00  0.00    -0.308 N 
ATOM      7  H   UNL     1       0.564   6.280  -2.283  0.00  0.00    +0.149 HD
BRANCH   4  16
ATOM      8  C   UNL     1      -0.526  11.648  -7.135  0.00  0.00    +0.046 C 
ATOM      9  C   UNL     1      -0.609  10.147  -7.237  0.00  0.00    -0.022 A 
ATOM     10  C   UNL     1      -0.926   9.437  -8.330  0.00  0.00    +0.017 A 
ATOM     11  N   UNL     1      -0.899   8.099  -8.043  0.00  0.00    -0.358 N 
ATOM     12  H   UNL     1      -1.094   7.390  -8.676  0.00  0.00    +0.166 HD
ATOM     13  C   UNL     1      -0.556   7.908  -6.726  0.00  0.00    +0.047 A 
ATOM     14  C   UNL     1      -0.358   9.184  -6.161  0.00  0.00    +0.004 A 
ATOM     15  C   UNL     1       0.002   9.303  -4.821  0.00  0.00    +0.023 A 
ATOM     16  C   UNL     1       0.164   8.154  -4.052  0.00  0.00    +0.037 A 
ATOM     17  C   UNL     1      -0.031   6.891  -4.628  0.00  0.00    +0.015 A 
ATOM     18  C   UNL     1      -0.388   6.772  -5.938  0.00  0.00    +0.027 A 
ATOM     19  C   UNL     1      -1.262  10.025  -9.677  0.00  0.00    +0.063 C 
ENDBRANCH   4  16
ENDBRANCH   3   6
ENDBRANCH   1   3
BRANCH   1  20
ATOM     20  O   UNL     1      -0.069   5.201   0.032  0.00  0.00    -0.488 OA
BRANCH  20  21
ATOM     21  C   UNL     1      -0.050   3.842   0.025  0.00  0.00    +0.121 A 
ATOM     22  C   UNL     1       1.142   3.162   0.230  0.00  0.00    +0.045 A 
ATOM     23  C   UNL     1       1.158   1.781   0.223  0.00  0.00    +0.004 A 
ATOM     24  C   UNL     1      -0.013   1.076   0.013  0.00  0.00    +0.002 A 
ATOM     25  C   UNL     1      -1.201   1.751  -0.197  0.00  0.00    -0.060 A 
ATOM     26  C   UNL     1      -1.223   3.132  -0.185  0.00  0.00    +0.047 A 
BRANCH  25  27
ATOM     27  C   UNL     1      -2.474   0.980  -0.431  0.00  0.00    -0.043 C 
BRANCH  27  29
ATOM     28  C   UNL     1      -2.327  -0.182   1.688  0.00  0.00    -0.095 C 
ATOM     29  N   UNL     1      -3.136   0.745   0.869  0.00  0.00    +0.383 N 
ATOM     30  H   UNL     1      -3.223   1.639   1.366  0.00  0.00    -0.081 HD
BRANCH  29  31
ATOM     31  C   UNL     1      -4.486   0.182   0.655  0.00  0.00    -0.040 C 
BRANCH  31  32
ATOM     32  C   UNL     1      -5.218   0.159   1.972  0.00  0.00    -0.026 A 
ATOM     33  C   UNL     1      -6.015   1.195   2.511  0.00  0.00    +0.043 A 
ATOM     34  C   UNL     1      -6.475   0.756   3.696  0.00  0.00    +0.195 A 
ATOM     35  O   UNL     1      -6.002  -0.484   3.902  0.00  0.00    -0.471 OA
ATOM     36  C   UNL     1      -5.243  -0.853   2.857  0.00  0.00    +0.196 A 
ENDBRANCH  31  32
ENDBRANCH  29  31
ENDBRANCH  27  29
ENDBRANCH  25  27
ENDBRANCH  20  21
ENDBRANCH   1  20
TORSDOF 9
