REMARK  Name = ZINC08762785
REMARK  8 active torsions:
REMARK  status: ('A' for Active; 'I' for Inactive)
REMARK    1  A    between atoms: C_1  and  O_2
REMARK    2  A    between atoms: O_2  and  C_3
REMARK    3  A    between atoms: C_3  and  C_5
REMARK    4  A    between atoms: C_5  and  C_31
REMARK    5  A    between atoms: C_10  and  C_12
REMARK    6  A    between atoms: N_21  and  C_24
REMARK    7  A    between atoms: C_24  and  C_25
REMARK    8  A    between atoms: C_31  and  C_32
REMARK                            x       y       z     vdW  Elec       q    Type
REMARK                         _______ _______ _______ _____ _____    ______ ____
ROOT
ATOM      1  C   UNL     1       1.367   1.556  -0.003  0.00  0.00    +0.048 C 
ATOM      2  C   UNL     1       1.208   3.000  -0.521  0.00  0.00    +0.086 C 
ATOM      3  C   UNL     1      -0.111   2.987  -1.339  0.00  0.00    +0.077 C 
ATOM      4  C   UNL     1      -0.625   1.536  -1.236  0.00  0.00    -0.025 C 
ATOM      5  C   UNL     1      -1.023   3.895  -0.544  0.00  0.00    +0.225 C 
ATOM      6  O   UNL     1      -2.168   4.166  -0.835  0.00  0.00    -0.275 OA
ATOM      7  N   UNL     1      -0.369   4.353   0.529  0.00  0.00    -0.237 N 
ATOM      8  C   UNL     1       0.907   3.917   0.643  0.00  0.00    +0.225 C 
ATOM      9  O   UNL     1       1.685   4.205   1.527  0.00  0.00    -0.275 OA
ATOM     10  N   UNL     1       0.004   1.026  -0.018  0.00  0.00    +0.396 N 
ATOM     11  H   UNL     1      -0.512   1.350   0.810  0.00  0.00    -0.083 HD
ATOM     12  H   UNL     1       0.022  -0.000  -0.030  0.00  0.00    -0.083 HD
ENDROOT
BRANCH   4  13
ATOM     13  C   UNL     1      -2.128   1.518  -1.129  0.00  0.00    -0.042 A 
ATOM     14  C   UNL     1      -2.733   1.521   0.114  0.00  0.00    +0.003 A 
ATOM     15  C   UNL     1      -4.112   1.509   0.212  0.00  0.00    +0.000 A 
ATOM     16  C   UNL     1      -4.887   1.483  -0.933  0.00  0.00    +0.001 A 
ATOM     17  C   UNL     1      -4.283   1.474  -2.176  0.00  0.00    +0.020 A 
ATOM     18  C   UNL     1      -2.903   1.491  -2.275  0.00  0.00    +0.043 A 
ATOM     19 CL   UNL     1      -2.145   1.481  -3.836  0.00  0.00    -0.083 Cl
ENDBRANCH   4  13
BRANCH   1  20
ATOM     20  C   UNL     1       2.246   0.756  -0.930  0.00  0.00    +0.297 C 
ATOM     21  O   UNL     1       3.095   1.311  -1.586  0.00  0.00    -0.252 OA
BRANCH  20  23
ATOM     22  C   UNL     1       2.965  -1.279  -1.940  0.00  0.00    +0.280 C 
ATOM     23  O   UNL     1       2.084  -0.573  -1.028  0.00  0.00    -0.469 OA
ENDBRANCH  20  23
ENDBRANCH   1  20
BRANCH   7  24
ATOM     24  C   UNL     1      -0.981   5.260   1.503  0.00  0.00    +0.151 C 
BRANCH  24  25
ATOM     25  C   UNL     1      -1.646   4.455   2.590  0.00  0.00    -0.030 A 
ATOM     26  C   UNL     1      -2.971   4.081   2.460  0.00  0.00    +0.005 A 
ATOM     27  C   UNL     1      -3.580   3.339   3.455  0.00  0.00    +0.000 A 
ATOM     28  C   UNL     1      -2.867   2.979   4.584  0.00  0.00    +0.000 A 
ATOM     29  C   UNL     1      -1.544   3.358   4.716  0.00  0.00    +0.000 A 
ATOM     30  C   UNL     1      -0.934   4.096   3.719  0.00  0.00    +0.005 A 
ENDBRANCH  24  25
ENDBRANCH   7  24
BRANCH   1  31
ATOM     31  C   UNL     1       1.951   1.559   1.412  0.00  0.00    +0.034 C 
BRANCH  31  32
ATOM     32  C   UNL     1       2.023   0.145   1.928  0.00  0.00    -0.048 A 
ATOM     33  C   UNL     1       0.956  -0.392   2.625  0.00  0.00    +0.003 A 
ATOM     34  C   UNL     1       1.020  -1.690   3.095  0.00  0.00    +0.000 A 
ATOM     35  C   UNL     1       2.155  -2.449   2.877  0.00  0.00    +0.000 A 
ATOM     36  C   UNL     1       3.224  -1.910   2.185  0.00  0.00    +0.000 A 
ATOM     37  C   UNL     1       3.158  -0.614   1.711  0.00  0.00    +0.003 A 
ENDBRANCH  31  32
ENDBRANCH   1  31
TORSDOF 7
