REMARK  Name = ZINC21238084
REMARK  12 active torsions:
REMARK  status: ('A' for Active; 'I' for Inactive)
REMARK    1  A    between atoms: C_1  and  C_2
REMARK    2  A    between atoms: C_2  and  C_3
REMARK    3  A    between atoms: C_3  and  O_4
REMARK    4  A    between atoms: O_4  and  C_5
REMARK    5  A    between atoms: C_8  and  C_13
REMARK    6  A    between atoms: C_10  and  O_11
REMARK    7  A    between atoms: O_11  and  C_12
REMARK    8  A    between atoms: C_24  and  C_27
REMARK    9  A    between atoms: C_30  and  C_33
REMARK   10  A    between atoms: C_33  and  C_34
REMARK   11  A    between atoms: C_33  and  C_35
REMARK   12  A    between atoms: C_33  and  C_36
REMARK                            x       y       z     vdW  Elec       q    Type
REMARK                         _______ _______ _______ _____ _____    ______ ____
ROOT
ATOM      1  C   UNL     1      -6.646   5.159   0.049  0.00  0.00    +0.063 C 
ATOM      2  C   UNL     1      -6.731   6.138  -1.123  0.00  0.00    +0.109 C 
ATOM      3  C   UNL     1      -6.282   5.441  -2.382  0.00  0.00    +0.218 C 
ATOM      4  O   UNL     1      -6.791   5.727  -3.445  0.00  0.00    -0.275 OA
ATOM      5  N   UNL     1      -5.320   4.504  -2.329  0.00  0.00    -0.289 N 
ATOM      6  C   UNL     1      -4.710   4.177  -1.145  0.00  0.00    +0.018 C 
ATOM      7  C   UNL     1      -5.300   4.474   0.033  0.00  0.00    +0.020 C 
ATOM      8  C   UNL     1      -4.689   4.156   1.257  0.00  0.00    +0.162 C 
ATOM      9  O   UNL     1      -5.255   4.429   2.297  0.00  0.00    -0.292 OA
ATOM     10  C   UNL     1      -3.342   3.484   1.301  0.00  0.00    +0.088 C 
ATOM     11  C   UNL     1      -2.553   3.869   0.045  0.00  0.00    +0.032 C 
ATOM     12  C   UNL     1      -3.374   3.479  -1.186  0.00  0.00    +0.059 C 
ATOM     13  H   UNL     1      -5.008   3.984  -3.247  0.00  0.00    +0.155 HD
ENDROOT
BRANCH   1  17
ATOM     14  C   UNL     1      -9.741   2.230  -0.314  0.00  0.00    +0.162 A 
ATOM     15  C   UNL     1      -8.790   2.365  -1.313  0.00  0.00    +0.050 A 
ATOM     16  C   UNL     1      -7.793   3.316  -1.195  0.00  0.00    +0.008 A 
ATOM     17  C   UNL     1      -7.737   4.127  -0.077  0.00  0.00    -0.036 A 
ATOM     18  C   UNL     1      -8.683   3.998   0.923  0.00  0.00    +0.053 A 
ATOM     19  C   UNL     1      -9.687   3.050   0.809  0.00  0.00    +0.162 A 
BRANCH  19  20
ATOM     20  O   UNL     1     -10.618   2.922   1.792  0.00  0.00    -0.491 OA
ATOM     21  C   UNL     1     -10.501   3.797   2.915  0.00  0.00    +0.277 C 
ENDBRANCH  19  20
BRANCH  14  22
ATOM     22  O   UNL     1     -10.724   1.298  -0.431  0.00  0.00    -0.488 OA
BRANCH  22  23
ATOM     23  C   UNL     1     -10.717   0.492  -1.611  0.00  0.00    +0.229 C 
BRANCH  23  25
ATOM     24  C   UNL     1     -11.881  -1.354  -2.827  0.00  0.00    +0.007 C 
ATOM     25  C   UNL     1     -11.889  -0.491  -1.564  0.00  0.00    +0.038 C 
ENDBRANCH  23  25
ENDBRANCH  22  23
ENDBRANCH  14  22
ENDBRANCH   1  17
BRANCH  11  26
ATOM     26  C   UNL     1      -1.238   3.133   0.030  0.00  0.00    -0.043 A 
ATOM     27  C   UNL     1      -1.219   1.751   0.017  0.00  0.00    +0.004 A 
ATOM     28  C   UNL     1      -0.013   1.076   0.008  0.00  0.00    +0.004 A 
ATOM     29  C   UNL     1       1.175   1.783   0.000  0.00  0.00    -0.042 A 
ATOM     30  C   UNL     1       1.156   3.165   0.008  0.00  0.00    +0.004 A 
ATOM     31  C   UNL     1      -0.050   3.840   0.022  0.00  0.00    +0.004 A 
BRANCH  29  32
ATOM     32  C   UNL     1       2.490   1.048  -0.016  0.00  0.00    -0.013 C 
ATOM     33  C   UNL     1       2.571   0.176  -1.271  0.00  0.00    +0.015 C 
ATOM     34  C   UNL     1       3.639   2.058  -0.022  0.00  0.00    +0.015 C 
ATOM     35  C   UNL     1       2.595   0.162   1.227  0.00  0.00    +0.015 C 
ENDBRANCH  29  32
ENDBRANCH  11  26
TORSDOF 7
