REMARK  Name = ZINC10544159
REMARK  5 active torsions:
REMARK  status: ('A' for Active; 'I' for Inactive)
REMARK    1  A    between atoms: C_1  and  C_2
REMARK    2  A    between atoms: C_2  and  C_23
REMARK    3  A    between atoms: C_4  and  N_13
REMARK    4  A    between atoms: N_13  and  S_14
REMARK    5  A    between atoms: S_14  and  C_17
REMARK                            x       y       z     vdW  Elec       q    Type
REMARK                         _______ _______ _______ _____ _____    ______ ____
ROOT
ATOM      1  C   UNL     1       2.809  -2.375   1.337  0.00  0.00    +0.055 C 
ATOM      2  C   UNL     1       1.565  -1.915   0.574  0.00  0.00    +0.107 C 
ATOM      3  C   UNL     1       1.369  -0.406   0.768  0.00  0.00    +0.072 C 
ATOM      4  C   UNL     1       0.059  -0.000   0.087  0.00  0.00    +0.114 C 
ATOM      5  C   UNL     1       0.009  -0.580  -1.304  0.00  0.00    +0.013 A 
ATOM      6  C   UNL     1      -0.888  -0.048  -2.215  0.00  0.00    +0.009 A 
ATOM      7  C   UNL     1      -0.963  -0.556  -3.497  0.00  0.00    +0.001 A 
ATOM      8  C   UNL     1      -0.140  -1.601  -3.875  0.00  0.00    +0.004 A 
ATOM      9  C   UNL     1       0.757  -2.134  -2.972  0.00  0.00    +0.046 A 
ATOM     10  C   UNL     1       0.836  -1.623  -1.680  0.00  0.00    +0.126 A 
ATOM     11  O   UNL     1       1.734  -2.171  -0.821  0.00  0.00    -0.486 OA
ATOM     12  C   UNL     1       0.336  -2.665   1.091  0.00  0.00    +0.055 C 
ENDROOT
BRANCH   4  13
ATOM     13  N   UNL     1      -0.018   1.461   0.010  0.00  0.00    -0.182 NA
ATOM     14  H   UNL     1       0.628   1.953  -0.520  0.00  0.00    +0.149 HD
BRANCH  13  15
ATOM     15  S   UNL     1      -1.212   2.271   0.822  0.00  0.00    +0.059 S 
ATOM     16  O   UNL     1      -1.009   3.654   0.569  0.00  0.00    -0.153 OA
ATOM     17  O   UNL     1      -2.432   1.611   0.515  0.00  0.00    -0.153 OA
BRANCH  15  18
ATOM     18  C   UNL     1      -0.928   2.027   2.544  0.00  0.00    +0.105 A 
ATOM     19  C   UNL     1      -1.506   0.953   3.195  0.00  0.00    +0.028 A 
ATOM     20  C   UNL     1      -1.280   0.759   4.545  0.00  0.00    +0.002 A 
ATOM     21  C   UNL     1      -0.483   1.646   5.246  0.00  0.00    +0.000 A 
ATOM     22  C   UNL     1       0.090   2.723   4.597  0.00  0.00    +0.002 A 
ATOM     23  C   UNL     1      -0.133   2.914   3.246  0.00  0.00    +0.028 A 
ENDBRANCH  15  18
ENDBRANCH  13  15
ENDBRANCH   4  13
TORSDOF 3
