REMARK  Name = ZINC62389315
REMARK  9 active torsions:
REMARK  status: ('A' for Active; 'I' for Inactive)
REMARK    1  A    between atoms: C_1  and  C_2
REMARK    2  A    between atoms: C_2  and  N_3
REMARK    3  A    between atoms: C_11  and  C_12
REMARK    4  A    between atoms: C_12  and  C_13
REMARK    5  A    between atoms: C_12  and  N_14
REMARK    6  A    between atoms: N_17  and  C_18
REMARK    7  A    between atoms: C_23  and  S_24
REMARK    8  A    between atoms: S_24  and  C_25
REMARK    9  A    between atoms: C_25  and  C_26
REMARK                            x       y       z     vdW  Elec       q    Type
REMARK                         _______ _______ _______ _____ _____    ______ ____
ROOT
ATOM      1  N   UNL     1       3.910  -1.732  -0.195  0.00  0.00    -0.290 N 
ATOM      2  C   UNL     1       4.553  -2.062   0.943  0.00  0.00    +0.304 C 
ATOM      3  O   UNL     1       4.391  -1.397   1.948  0.00  0.00    -0.252 OA
ATOM      4  N   UNL     1       5.374  -3.131   0.966  0.00  0.00    -0.268 N 
ATOM      5  H   UNL     1       4.039  -2.262  -0.997  0.00  0.00    +0.151 HD
ATOM      6  H   UNL     1       5.453  -3.699   0.184  0.00  0.00    +0.156 HD
ENDROOT
BRANCH   4   7
ATOM      7  C   UNL     1       6.114  -3.420   2.121  0.00  0.00    +0.048 A 
ATOM      8  C   UNL     1       5.577  -3.167   3.373  0.00  0.00    +0.024 A 
ATOM      9  C   UNL     1       6.308  -3.453   4.511  0.00  0.00    +0.002 A 
ATOM     10  C   UNL     1       7.578  -3.991   4.405  0.00  0.00    +0.001 A 
ATOM     11  C   UNL     1       8.122  -4.247   3.161  0.00  0.00    +0.016 A 
ATOM     12  C   UNL     1       7.392  -3.969   2.014  0.00  0.00    +0.030 A 
BRANCH  12  13
ATOM     13  S   UNL     1       8.081  -4.302   0.426  0.00  0.00    -0.114 S 
BRANCH  13  14
ATOM     14  C   UNL     1       9.717  -4.993   0.793  0.00  0.00    +0.169 C 
BRANCH  14  15
ATOM     15  C   UNL     1      10.423  -5.325  -0.496  0.00  0.00    +0.221 C 
ATOM     16  O   UNL     1       9.876  -5.117  -1.558  0.00  0.00    -0.275 OA
ATOM     17  N   UNL     1      11.662  -5.854  -0.469  0.00  0.00    -0.329 N 
ATOM     18  H   UNL     1      12.100  -6.021   0.380  0.00  0.00    +0.145 HD
ATOM     19  H   UNL     1      12.116  -6.069  -1.299  0.00  0.00    +0.145 HD
ENDBRANCH  14  15
ENDBRANCH  13  14
ENDBRANCH  12  13
ENDBRANCH   4   7
BRANCH   1  20
ATOM     20  C   UNL     1       3.017  -0.571  -0.221  0.00  0.00    +0.138 C 
ATOM     21  C   UNL     1       3.834   0.695  -0.487  0.00  0.00    +0.036 C 
BRANCH  20  30
ATOM     22  N   UNL     1       0.663  -0.503  -1.181  0.00  0.00    -0.326 N 
ATOM     23  C   UNL     1       0.072  -0.777  -2.399  0.00  0.00    +0.069 A 
ATOM     24  C   UNL     1      -1.229  -0.716  -2.878  0.00  0.00    +0.028 A 
ATOM     25  C   UNL     1      -1.494  -1.068  -4.184  0.00  0.00    +0.002 A 
ATOM     26  C   UNL     1      -0.468  -1.484  -5.022  0.00  0.00    +0.002 A 
ATOM     27  C   UNL     1       0.819  -1.551  -4.568  0.00  0.00    +0.030 A 
ATOM     28  C   UNL     1       1.110  -1.198  -3.248  0.00  0.00    +0.089 A 
ATOM     29  N   UNL     1       2.256  -1.159  -2.520  0.00  0.00    -0.230 NA
ATOM     30  C   UNL     1       1.994  -0.748  -1.313  0.00  0.00    +0.131 A 
BRANCH  22  32
ATOM     31  C   UNL     1      -0.045   1.499   0.031  0.00  0.00    +0.027 C 
ATOM     32  C   UNL     1      -0.018  -0.031   0.027  0.00  0.00    +0.120 C 
ENDBRANCH  22  32
ENDBRANCH  20  30
ENDBRANCH   1  20
TORSDOF 7
