REMARK  Name = ZINC20481408
REMARK  10 active torsions:
REMARK  status: ('A' for Active; 'I' for Inactive)
REMARK    1  A    between atoms: C_1  and  C_2
REMARK    2  A    between atoms: N_13  and  C_18
REMARK    3  A    between atoms: C_15  and  C_16
REMARK    4  A    between atoms: C_18  and  C_19
REMARK    5  A    between atoms: C_19  and  C_21
REMARK    6  A    between atoms: C_19  and  O_41
REMARK    7  A    between atoms: C_21  and  N_22
REMARK    8  A    between atoms: N_25  and  C_28
REMARK    9  A    between atoms: C_28  and  C_29
REMARK   10  A    between atoms: C_28  and  C_35
REMARK                            x       y       z     vdW  Elec       q    Type
REMARK                         _______ _______ _______ _____ _____    ______ ____
ROOT
ATOM      1  C   UNL     1      -4.409  -1.732   3.752  0.00  0.00    +0.148 C 
ENDROOT
BRANCH   1   2
ATOM      2  O   UNL     1      -4.901  -2.164   2.482  0.00  0.00    -0.389 OA
ATOM      3  H   UNL     1      -4.300  -2.003   1.575  0.00  0.00    +0.210 HD
ENDBRANCH   1   2
BRANCH   1   4
ATOM      4  C   UNL     1      -5.431  -2.073   4.838  0.00  0.00    +0.156 C 
BRANCH   4  17
ATOM      5  C   UNL     1      -6.248   3.035   6.920  0.00  0.00    +0.045 C 
ATOM      6  C   UNL     1      -6.968   2.017   6.073  0.00  0.00    -0.024 A 
ATOM      7  C   UNL     1      -8.217   2.280   5.590  0.00  0.00    +0.075 A 
ATOM      8  C   UNL     1      -8.876   1.327   4.804  0.00  0.00    +0.258 A 
ATOM      9  O   UNL     1      -9.993   1.569   4.375  0.00  0.00    -0.267 OA
ATOM     10  N   UNL     1      -8.295   0.146   4.514  0.00  0.00    -0.260 N 
ATOM     11  C   UNL     1      -8.746  -0.940   3.765  0.00  0.00    +0.075 A 
ATOM     12  C   UNL     1      -9.922  -1.184   3.071  0.00  0.00    +0.028 A 
ATOM     13  C   UNL     1     -10.092  -2.382   2.406  0.00  0.00    +0.002 A 
ATOM     14  C   UNL     1      -9.093  -3.341   2.428  0.00  0.00    +0.002 A 
ATOM     15  C   UNL     1      -7.919  -3.108   3.116  0.00  0.00    +0.028 A 
ATOM     16  C   UNL     1      -7.739  -1.906   3.788  0.00  0.00    +0.068 A 
ATOM     17  N   UNL     1      -6.696  -1.393   4.548  0.00  0.00    -0.322 N 
ATOM     18  C   UNL     1      -7.054  -0.150   4.985  0.00  0.00    +0.140 A 
ATOM     19  C   UNL     1      -6.362   0.783   5.770  0.00  0.00    +0.096 A 
BRANCH  19  20
ATOM     20  C   UNL     1      -5.052   0.481   6.265  0.00  0.00    +0.103 C 
ATOM     21  N   UNL     1      -4.014   0.242   6.657  0.00  0.00    -0.191 NA
ENDBRANCH  19  20
ENDBRANCH   4  17
ENDBRANCH   1   4
BRANCH   1  22
ATOM     22  C   UNL     1      -3.087  -2.442   4.054  0.00  0.00    +0.117 C 
BRANCH  22  23
ATOM     23  N   UNL     1      -2.064  -2.002   3.096  0.00  0.00    -0.303 NA
ATOM     24  C   UNL     1      -2.264  -2.635   1.785  0.00  0.00    +0.066 C 
ATOM     25  C   UNL     1      -1.135  -2.213   0.841  0.00  0.00    -0.062 C 
ATOM     26  N   UNL     1      -1.123  -0.749   0.719  0.00  0.00    +0.389 N 
ATOM     27  C   UNL     1      -0.924  -0.115   2.030  0.00  0.00    -0.062 C 
ATOM     28  C   UNL     1      -2.053  -0.537   2.974  0.00  0.00    +0.066 C 
ATOM     29  H   UNL     1      -2.104  -0.432   0.334  0.00  0.00    -0.080 HD
BRANCH  26  30
ATOM     30  C   UNL     1      -0.101  -0.309  -0.240  0.00  0.00    -0.007 C 
BRANCH  30  31
ATOM     31  C   UNL     1      -0.119   1.195  -0.338  0.00  0.00    -0.057 A 
ATOM     32  C   UNL     1      -1.324   1.873  -0.346  0.00  0.00    +0.002 A 
ATOM     33  C   UNL     1      -1.340   3.252  -0.431  0.00  0.00    +0.000 A 
ATOM     34  C   UNL     1      -0.152   3.954  -0.519  0.00  0.00    +0.000 A 
ATOM     35  C   UNL     1       1.053   3.275  -0.517  0.00  0.00    +0.000 A 
ATOM     36  C   UNL     1       1.069   1.896  -0.427  0.00  0.00    +0.002 A 
ENDBRANCH  30  31
BRANCH  30  37
ATOM     37  C   UNL     1      -0.391  -0.904  -1.593  0.00  0.00    -0.057 A 
ATOM     38  C   UNL     1      -1.694  -0.989  -2.046  0.00  0.00    +0.002 A 
ATOM     39  C   UNL     1      -1.960  -1.531  -3.289  0.00  0.00    +0.000 A 
ATOM     40  C   UNL     1      -0.924  -1.997  -4.076  0.00  0.00    +0.000 A 
ATOM     41  C   UNL     1       0.379  -1.917  -3.621  0.00  0.00    +0.000 A 
ATOM     42  C   UNL     1       0.646  -1.371  -2.380  0.00  0.00    +0.002 A 
ENDBRANCH  30  37
ENDBRANCH  26  30
ENDBRANCH  22  23
ENDBRANCH   1  22
TORSDOF 9
