REMARK  Name = ZINC15054629
REMARK  7 active torsions:
REMARK  status: ('A' for Active; 'I' for Inactive)
REMARK    1  A    between atoms: C_1  and  C_2
REMARK    2  A    between atoms: C_5  and  C_9
REMARK    3  A    between atoms: C_7  and  C_8
REMARK    4  A    between atoms: C_9  and  C_11
REMARK    5  A    between atoms: C_11  and  C_12
REMARK    6  A    between atoms: N_18  and  N_19
REMARK    7  A    between atoms: C_20  and  C_21
REMARK                            x       y       z     vdW  Elec       q    Type
REMARK                         _______ _______ _______ _____ _____    ______ ____
ROOT
ATOM      1  C   UNL     1      -4.958   9.055   0.096  0.00  0.00    +0.147 C 
ATOM      2  C   UNL     1      -3.806  10.047   0.090  0.00  0.00    +0.232 C 
ATOM      3  O   UNL     1      -3.988  11.245   0.098  0.00  0.00    -0.274 OA
ATOM      4  N   UNL     1      -2.593   9.521   0.076  0.00  0.00    -0.263 N 
ATOM      5  C   UNL     1      -2.380   8.159   0.068  0.00  0.00    +0.183 C 
ATOM      6  N   UNL     1      -1.230   7.516   0.053  0.00  0.00    -0.127 NA
ATOM      7  S   UNL     1      -4.028   7.471   0.073  0.00  0.00    -0.075 S 
ATOM      8  H   UNL     1      -1.826  10.114   0.072  0.00  0.00    +0.157 HD
ENDROOT
BRANCH   6   9
ATOM      9  N   UNL     1      -1.213   6.226   0.047  0.00  0.00    -0.155 NA
ATOM     10  C   UNL     1      -0.074   5.589   0.032  0.00  0.00    +0.143 C 
BRANCH  10  11
ATOM     11  C   UNL     1      -0.054   4.117   0.025  0.00  0.00    -0.005 A 
ATOM     12  C   UNL     1       1.165   3.432   0.009  0.00  0.00    +0.012 A 
ATOM     13  C   UNL     1       1.177   2.053   0.002  0.00  0.00    +0.039 A 
ATOM     14  C   UNL     1      -0.016   1.347   0.009  0.00  0.00    +0.123 A 
ATOM     15  C   UNL     1      -1.228   2.020   0.019  0.00  0.00    +0.039 A 
ATOM     16  C   UNL     1      -1.254   3.399   0.032  0.00  0.00    +0.012 A 
ATOM     17  F   UNL     1       0.002  -0.004   0.002  0.00  0.00    -0.205 F 
ENDBRANCH  10  11
ENDBRANCH   6   9
BRANCH   1  18
ATOM     18  C   UNL     1      -5.824   9.203  -1.156  0.00  0.00    +0.103 C 
BRANCH  18  19
ATOM     19  C   UNL     1      -7.018   8.290  -1.052  0.00  0.00    +0.165 C 
ATOM     20  O   UNL     1      -7.162   7.590  -0.073  0.00  0.00    -0.292 OA
BRANCH  19  25
ATOM     21  C   UNL     1     -10.891   8.129  -5.297  0.00  0.00    +0.044 C 
ATOM     22  C   UNL     1      -9.876   8.171  -4.184  0.00  0.00    -0.047 A 
ATOM     23  C   UNL     1      -8.780   9.011  -4.284  0.00  0.00    +0.004 A 
ATOM     24  C   UNL     1      -7.850   9.060  -3.267  0.00  0.00    +0.011 A 
ATOM     25  C   UNL     1      -8.010   8.249  -2.139  0.00  0.00    +0.018 A 
ATOM     26  C   UNL     1      -9.119   7.403  -2.046  0.00  0.00    +0.015 A 
ATOM     27  C   UNL     1     -10.044   7.370  -3.069  0.00  0.00    -0.047 A 
ATOM     28  C   UNL     1     -11.241   6.460  -2.971  0.00  0.00    +0.044 C 
ENDBRANCH  19  25
ENDBRANCH  18  19
ENDBRANCH   1  18
TORSDOF 5
