REMARK  Name = ZINC35483181
REMARK  11 active torsions:
REMARK  status: ('A' for Active; 'I' for Inactive)
REMARK    1  A    between atoms: C_1  and  C_2
REMARK    2  A    between atoms: C_2  and  N_3
REMARK    3  A    between atoms: N_3  and  C_4
REMARK    4  A    between atoms: N_3  and  C_6
REMARK    5  A    between atoms: C_4  and  C_5
REMARK    6  A    between atoms: C_6  and  C_7
REMARK    7  A    between atoms: C_7  and  N_8
REMARK    8  A    between atoms: C_9  and  C_24
REMARK    9  A    between atoms: C_27  and  O_30
REMARK   10  A    between atoms: O_30  and  C_31
REMARK   11  A    between atoms: C_31  and  C_32
REMARK                            x       y       z     vdW  Elec       q    Type
REMARK                         _______ _______ _______ _____ _____    ______ ____
ROOT
ATOM      1  N   UNL     1      -3.383  -3.467  -0.304  0.00  0.00    -0.285 N 
ATOM      2  C   UNL     1      -3.305  -4.353  -1.477  0.00  0.00    +0.144 C 
ATOM      3  C   UNL     1      -3.541  -5.734  -0.961  0.00  0.00    +0.072 A 
ATOM      4  C   UNL     1      -3.593  -7.028  -1.650  0.00  0.00    +0.199 A 
ATOM      5  O   UNL     1      -3.263  -7.177  -2.814  0.00  0.00    -0.287 OA
ATOM      6  C   UNL     1      -4.084  -8.138  -0.795  0.00  0.00    +0.064 A 
ATOM      7  C   UNL     1      -4.380  -9.381  -1.353  0.00  0.00    +0.015 A 
ATOM      8  C   UNL     1      -4.836 -10.392  -0.553  0.00  0.00    +0.001 A 
ATOM      9  C   UNL     1      -5.007 -10.182   0.808  0.00  0.00    +0.004 A 
ATOM     10  C   UNL     1      -4.718  -8.961   1.376  0.00  0.00    +0.047 A 
ATOM     11  C   UNL     1      -4.249  -7.915   0.582  0.00  0.00    +0.139 A 
ATOM     12  O   UNL     1      -3.963  -6.727   1.161  0.00  0.00    -0.450 OA
ATOM     13  C   UNL     1      -3.731  -5.647   0.389  0.00  0.00    +0.199 A 
ATOM     14  C   UNL     1      -3.627  -4.231   0.780  0.00  0.00    +0.283 C 
ATOM     15  O   UNL     1      -3.746  -3.812   1.915  0.00  0.00    -0.267 OA
ENDROOT
BRANCH   2  16
ATOM     16  C   UNL     1      -1.941  -4.258  -2.110  0.00  0.00    -0.022 A 
ATOM     17  C   UNL     1      -0.814  -4.185  -1.313  0.00  0.00    +0.009 A 
ATOM     18  C   UNL     1       0.438  -4.098  -1.891  0.00  0.00    +0.046 A 
ATOM     19  C   UNL     1       0.563  -4.085  -3.272  0.00  0.00    +0.121 A 
ATOM     20  C   UNL     1      -0.569  -4.159  -4.070  0.00  0.00    +0.046 A 
ATOM     21  C   UNL     1      -1.818  -4.251  -3.487  0.00  0.00    +0.009 A 
BRANCH  19  22
ATOM     22  O   UNL     1       1.794  -3.998  -3.843  0.00  0.00    -0.487 OA
BRANCH  22  23
ATOM     23  C   UNL     1       1.847  -3.990  -5.271  0.00  0.00    +0.264 C 
BRANCH  23  24
ATOM     24  C   UNL     1       3.282  -3.890  -5.720  0.00  0.00    -0.010 A 
ATOM     25  C   UNL     1       3.861  -2.650  -5.916  0.00  0.00    +0.007 A 
ATOM     26  C   UNL     1       5.177  -2.559  -6.327  0.00  0.00    +0.000 A 
ATOM     27  C   UNL     1       5.915  -3.708  -6.542  0.00  0.00    +0.000 A 
ATOM     28  C   UNL     1       5.337  -4.948  -6.345  0.00  0.00    +0.000 A 
ATOM     29  C   UNL     1       4.022  -5.039  -5.929  0.00  0.00    +0.007 A 
ENDBRANCH  23  24
ENDBRANCH  22  23
ENDBRANCH  19  22
ENDBRANCH   2  16
BRANCH   1  30
ATOM     30  C   UNL     1      -3.218  -2.011  -0.312  0.00  0.00    +0.090 C 
BRANCH  30  31
ATOM     31  C   UNL     1      -1.742  -1.664  -0.107  0.00  0.00    -0.060 C 
BRANCH  31  32
ATOM     32  N   UNL     1      -1.595  -0.208   0.018  0.00  0.00    +0.380 N 
ATOM     33  H   UNL     1      -2.017   0.243  -0.780  0.00  0.00    -0.082 HD
BRANCH  32  35
ATOM     34  C   UNL     1      -2.215   1.775   1.315  0.00  0.00    -0.017 C 
ATOM     35  C   UNL     1      -2.260   0.247   1.246  0.00  0.00    -0.082 C 
ENDBRANCH  32  35
BRANCH  32  36
ATOM     36  C   UNL     1      -0.168   0.136   0.078  0.00  0.00    -0.082 C 
ATOM     37  C   UNL     1       0.495  -0.203  -1.258  0.00  0.00    -0.017 C 
ENDBRANCH  32  36
ENDBRANCH  31  32
ENDBRANCH  30  31
ENDBRANCH   1  30
TORSDOF 9
