REMARK  Name = ZINC44870104
REMARK  6 active torsions:
REMARK  status: ('A' for Active; 'I' for Inactive)
REMARK    1  A    between atoms: C_1  and  C_2
REMARK    2  A    between atoms: C_2  and  C_3
REMARK    3  A    between atoms: C_2  and  C_4
REMARK    4  A    between atoms: C_4  and  C_6
REMARK    5  A    between atoms: C_4  and  C_10
REMARK    6  A    between atoms: N_7  and  O_8
REMARK                            x       y       z     vdW  Elec       q    Type
REMARK                         _______ _______ _______ _____ _____    ______ ____
ROOT
ATOM      1  C   UNL     1      -2.150   0.045  -1.046  0.00  0.00    +0.226 C 
ATOM      2  O   UNL     1      -2.790  -0.700  -1.757  0.00  0.00    -0.275 OA
ATOM      3  N   UNL     1      -2.168   1.374  -1.273  0.00  0.00    -0.301 N 
ATOM      4  C   UNL     1      -1.490   2.300  -0.356  0.00  0.00    +0.108 C 
ATOM      5  C   UNL     1      -2.491   3.367   0.097  0.00  0.00    +0.023 C 
ATOM      6  C   UNL     1      -3.104   4.042  -1.133  0.00  0.00    -0.005 C 
ATOM      7  C   UNL     1      -4.089   5.121  -0.677  0.00  0.00    +0.004 C 
ATOM      8  C   UNL     1      -5.186   4.479   0.175  0.00  0.00    +0.000 C 
ATOM      9  C   UNL     1      -5.929   3.429  -0.653  0.00  0.00    +0.000 C 
ATOM     10  C   UNL     1      -4.944   2.353  -1.117  0.00  0.00    +0.005 C 
ATOM     11  C   UNL     1      -3.844   2.998  -1.973  0.00  0.00    +0.010 C 
ATOM     12  C   UNL     1      -2.862   1.925  -2.445  0.00  0.00    +0.111 C 
ENDROOT
BRANCH   1  13
ATOM     13  C   UNL     1      -1.335  -0.514   0.091  0.00  0.00    +0.144 C 
BRANCH  13  14
ATOM     14  C   UNL     1      -2.231  -0.761   1.278  0.00  0.00    +0.144 C 
ATOM     15  N   UNL     1      -2.737  -1.934   1.471  0.00  0.00    -0.076 NA
ATOM     16  N   UNL     1      -2.510   0.263   2.155  0.00  0.00    -0.343 N 
ATOM     17  H   UNL     1      -2.129   1.143   2.010  0.00  0.00    +0.144 HD
ATOM     18  H   UNL     1      -3.086   0.104   2.919  0.00  0.00    +0.144 HD
BRANCH  15  19
ATOM     19  O   UNL     1      -3.579  -2.166   2.586  0.00  0.00    -0.408 OA
ATOM     20  H   UNL     1      -3.910  -3.073   2.647  0.00  0.00    +0.328 HD
ENDBRANCH  15  19
ENDBRANCH  13  14
BRANCH  13  22
ATOM     21  C   UNL     1       0.197  -1.585  -1.566  0.00  0.00    +0.008 C 
ATOM     22  C   UNL     1      -0.689  -1.831  -0.344  0.00  0.00    +0.002 C 
ATOM     23  C   UNL     1       0.163  -2.384   0.801  0.00  0.00    +0.008 C 
ENDBRANCH  13  22
ENDBRANCH   1  13
TORSDOF 4
