REMARK  Name = ZINC39685746
REMARK  11 active torsions:
REMARK  status: ('A' for Active; 'I' for Inactive)
REMARK    1  A    between atoms: C_1  and  C_2
REMARK    2  A    between atoms: C_2  and  C_3
REMARK    3  A    between atoms: C_2  and  C_4
REMARK    4  A    between atoms: C_4  and  C_6
REMARK    5  A    between atoms: C_4  and  N_13
REMARK    6  A    between atoms: N_8  and  C_9
REMARK    7  A    between atoms: C_9  and  C_10
REMARK    8  A    between atoms: C_9  and  C_11
REMARK    9  A    between atoms: C_9  and  C_12
REMARK   10  A    between atoms: C_14  and  C_16
REMARK   11  A    between atoms: C_27  and  C_29
REMARK                            x       y       z     vdW  Elec       q    Type
REMARK                         _______ _______ _______ _____ _____    ______ ____
ROOT
ATOM      1  C   UNL     1      -1.736  -4.488   1.270  0.00  0.00    +0.100 C 
ATOM      2  C   UNL     1      -2.783  -5.309   0.484  0.00  0.00    +0.121 C 
ATOM      3  N   UNL     1      -2.957  -6.549   1.276  0.00  0.00    -0.296 N 
ATOM      4  C   UNL     1      -2.923  -6.093   2.687  0.00  0.00    +0.115 C 
ATOM      5  C   UNL     1      -1.832  -5.005   2.715  0.00  0.00    -0.004 C 
ATOM      6  C   UNL     1      -2.240  -3.874   3.655  0.00  0.00    -0.010 C 
ATOM      7  C   UNL     1      -2.271  -4.398   5.093  0.00  0.00    -0.082 C 
ATOM      8  N   UNL     1      -0.946  -4.911   5.458  0.00  0.00    +0.379 N 
ATOM      9  C   UNL     1      -0.601  -6.059   4.610  0.00  0.00    -0.082 C 
ATOM     10  C   UNL     1      -0.499  -5.605   3.151  0.00  0.00    -0.010 C 
ATOM     11  C   UNL     1      -3.111  -7.808   0.818  0.00  0.00    +0.247 C 
ATOM     12  O   UNL     1      -2.999  -8.040  -0.369  0.00  0.00    -0.270 OA
ATOM     13  H   UNL     1      -0.258  -4.184   5.332  0.00  0.00    -0.086 HD
ATOM     14  H   UNL     1      -0.953  -5.200   6.425  0.00  0.00    -0.086 HD
ENDROOT
BRANCH  11  15
ATOM     15  C   UNL     1      -3.415  -8.905   1.761  0.00  0.00    +0.040 A 
ATOM     16  C   UNL     1      -3.949  -8.621   3.019  0.00  0.00    +0.033 A 
ATOM     17  C   UNL     1      -4.231  -9.650   3.895  0.00  0.00    +0.043 A 
ATOM     18  C   UNL     1      -3.986 -10.963   3.527  0.00  0.00    +0.040 A 
ATOM     19  C   UNL     1      -3.455 -11.251   2.281  0.00  0.00    +0.043 A 
ATOM     20  C   UNL     1      -3.175 -10.230   1.394  0.00  0.00    +0.033 A 
ATOM     21 CL   UNL     1      -3.149 -12.899   1.831  0.00  0.00    -0.083 Cl
ATOM     22 CL   UNL     1      -4.895  -9.299   5.460  0.00  0.00    -0.083 Cl
ENDBRANCH  11  15
BRANCH   1  24
ATOM     23  N   UNL     1      -3.333  -2.608   1.452  0.00  0.00    -0.303 N 
ATOM     24  C   UNL     1      -2.072  -3.020   1.214  0.00  0.00    +0.219 C 
ATOM     25  O   UNL     1      -1.207  -2.209   0.955  0.00  0.00    -0.275 OA
ATOM     26  H   UNL     1      -4.006  -3.245   1.737  0.00  0.00    +0.149 HD
BRANCH  23  27
ATOM     27  C   UNL     1      -3.686  -1.196   1.280  0.00  0.00    +0.161 C 
BRANCH  27  28
ATOM     28  C   UNL     1      -4.876  -0.868   2.145  0.00  0.00    +0.234 C 
ATOM     29  O   UNL     1      -5.434  -1.746   2.768  0.00  0.00    -0.274 OA
ATOM     30  N   UNL     1      -5.322   0.402   2.224  0.00  0.00    -0.309 N 
ATOM     31  H   UNL     1      -4.834   1.115   1.784  0.00  0.00    +0.149 HD
BRANCH  30  32
ATOM     32  C   UNL     1      -6.542   0.704   2.976  0.00  0.00    +0.026 C 
ATOM     33  C   UNL     1      -6.359   0.284   4.436  0.00  0.00    +0.031 C 
ATOM     34  C   UNL     1      -6.823   2.206   2.909  0.00  0.00    +0.031 C 
ATOM     35  C   UNL     1      -7.718  -0.063   2.368  0.00  0.00    +0.031 C 
ENDBRANCH  30  32
ENDBRANCH  27  28
BRANCH  27  37
ATOM     36  C   UNL     1      -2.799  -1.184  -1.055  0.00  0.00    +0.009 C 
ATOM     37  C   UNL     1      -4.033  -0.932  -0.186  0.00  0.00    +0.012 C 
ATOM     38  C   UNL     1      -5.162  -1.869  -0.621  0.00  0.00    +0.009 C 
ENDBRANCH  27  37
ENDBRANCH  23  27
ENDBRANCH   1  24
TORSDOF 6
