REMARK  Name = ZINC43265192
REMARK  6 active torsions:
REMARK  status: ('A' for Active; 'I' for Inactive)
REMARK    1  A    between atoms: C_3  and  O_11
REMARK    2  A    between atoms: C_6  and  C_7
REMARK    3  A    between atoms: O_11  and  C_12
REMARK    4  A    between atoms: C_12  and  C_14
REMARK    5  A    between atoms: C_12  and  C_16
REMARK    6  A    between atoms: C_14  and  N_15
REMARK                            x       y       z     vdW  Elec       q    Type
REMARK                         _______ _______ _______ _____ _____    ______ ____
ROOT
ATOM      1  C   UNL     1       4.755   1.344   0.074  0.00  0.00    +0.193 C 
ENDROOT
BRANCH   1   2
ATOM      2  C   UNL     1       5.773   2.117   0.873  0.00  0.00    +0.029 A 
ATOM      3  C   UNL     1       6.717   1.653   1.728  0.00  0.00    +0.016 A 
ATOM      4  C   UNL     1       7.553   2.557   2.358  0.00  0.00    +0.023 A 
ATOM      5  C   UNL     1       7.403   3.880   2.102  0.00  0.00    +0.055 A 
ATOM      6  S   UNL     1       6.053   3.879   0.933  0.00  0.00    -0.083 S 
ATOM      7 BR   UNL     1       8.376   5.346   2.796  0.00  0.00    -0.043 Br
ENDBRANCH   1   2
BRANCH   1   8
ATOM      8  O   UNL     1       3.548   2.104  -0.021  0.00  0.00    -0.486 OA
BRANCH   8  11
ATOM      9  C   UNL     1       1.201  -0.672   0.130  0.00  0.00    +0.016 A 
ATOM     10  C   UNL     1       2.391   0.027   0.069  0.00  0.00    +0.046 A 
ATOM     11  C   UNL     1       2.379   1.414   0.038  0.00  0.00    +0.121 A 
ATOM     12  C   UNL     1       1.171   2.095   0.069  0.00  0.00    +0.046 A 
ATOM     13  C   UNL     1      -0.016   1.392   0.129  0.00  0.00    +0.016 A 
ATOM     14  C   UNL     1      -0.002   0.010   0.160  0.00  0.00    +0.055 A 
BRANCH  14  15
ATOM     15  C   UNL     1      -1.298  -0.755   0.226  0.00  0.00    +0.417 C 
ATOM     16  F   UNL     1      -1.650  -0.962   1.564  0.00  0.00    -0.166 F 
ATOM     17  F   UNL     1      -2.305  -0.023  -0.413  0.00  0.00    -0.166 F 
ATOM     18  F   UNL     1      -1.144  -1.990  -0.412  0.00  0.00    -0.166 F 
ENDBRANCH  14  15
ENDBRANCH   8  11
ENDBRANCH   1   8
BRANCH   1  19
ATOM     19  C   UNL     1       5.303   1.079  -1.329  0.00  0.00    -0.036 C 
BRANCH  19  20
ATOM     20  N   UNL     1       4.311   0.326  -2.108  0.00  0.00    +0.381 N 
ATOM     21  H   UNL     1       4.120  -0.553  -1.650  0.00  0.00    -0.090 HD
ATOM     22  H   UNL     1       3.459   0.862  -2.175  0.00  0.00    -0.090 HD
ATOM     23  H   UNL     1       4.672   0.151  -3.034  0.00  0.00    -0.090 HD
ENDBRANCH  19  20
ENDBRANCH   1  19
TORSDOF 6
