REMARK  Name = ZINC40988351
REMARK  6 active torsions:
REMARK  status: ('A' for Active; 'I' for Inactive)
REMARK    1  A    between atoms: C_4  and  C_7
REMARK    2  A    between atoms: C_7  and  C_9
REMARK    3  A    between atoms: C_7  and  N_30
REMARK    4  A    between atoms: C_9  and  N_10
REMARK    5  A    between atoms: C_11  and  C_13
REMARK    6  A    between atoms: N_16  and  C_18
REMARK                            x       y       z     vdW  Elec       q    Type
REMARK                         _______ _______ _______ _____ _____    ______ ____
ROOT
ATOM      1  N   UNL     1       5.282  -1.983  -1.450  0.00  0.00    -0.311 N 
ATOM      2  C   UNL     1       5.798  -2.472  -2.595  0.00  0.00    +0.264 C 
ATOM      3  O   UNL     1       5.203  -2.318  -3.644  0.00  0.00    -0.268 OA
ATOM      4  H   UNL     1       5.756  -2.106  -0.613  0.00  0.00    +0.149 HD
ENDROOT
BRANCH   2   5
ATOM      5  C   UNL     1       7.085  -3.196  -2.575  0.00  0.00    +0.150 A 
ATOM      6  C   UNL     1       7.751  -3.755  -3.679  0.00  0.00    +0.006 A 
ATOM      7  C   UNL     1       8.884  -4.314  -3.187  0.00  0.00    +0.044 A 
ATOM      8  N   UNL     1       8.892  -4.096  -1.862  0.00  0.00    -0.263 N 
ATOM      9  N   UNL     1       7.839  -3.437  -1.516  0.00  0.00    -0.166 NA
ATOM     10  C   UNL     1       9.901  -5.036  -4.033  0.00  0.00    +0.055 C 
ATOM     11  C   UNL     1       9.251  -5.380  -5.380  0.00  0.00    +0.006 C 
ATOM     12  C   UNL     1       8.586  -4.131  -5.965  0.00  0.00    +0.005 C 
ATOM     13  C   UNL     1       7.352  -3.768  -5.129  0.00  0.00    +0.039 C 
BRANCH   8  14
ATOM     14  C   UNL     1       9.945  -4.536  -0.944  0.00  0.00    +0.130 C 
ATOM     15  C   UNL     1      10.556  -3.311  -0.242  0.00  0.00    +0.051 C 
ATOM     16  C   UNL     1      11.435  -3.817   0.937  0.00  0.00    +0.168 C 
ATOM     17  S   UNL     1      10.371  -5.170   1.595  0.00  0.00    -0.029 S 
ATOM     18  O   UNL     1       9.541  -4.648   2.623  0.00  0.00    -0.174 OA
ATOM     19  O   UNL     1      11.180  -6.308   1.860  0.00  0.00    -0.174 OA
ATOM     20  C   UNL     1       9.342  -5.499   0.107  0.00  0.00    +0.192 C 
ENDBRANCH   8  14
ENDBRANCH   2   5
BRANCH   1  21
ATOM     21  C   UNL     1       4.005  -1.266  -1.470  0.00  0.00    +0.094 C 
BRANCH  21  22
ATOM     22  C   UNL     1       3.713  -0.704  -0.077  0.00  0.00    -0.020 C 
BRANCH  22  23
ATOM     23  N   UNL     1       2.391  -0.064  -0.073  0.00  0.00    +0.385 N 
ATOM     24  C   UNL     1       2.137   0.523   1.248  0.00  0.00    -0.078 C 
ATOM     25  C   UNL     1       0.796   1.261   1.233  0.00  0.00    -0.019 C 
ATOM     26  C   UNL     1      -0.321   0.272   0.888  0.00  0.00    -0.004 C 
ATOM     27  C   UNL     1      -0.007  -0.389  -0.457  0.00  0.00    -0.019 C 
ATOM     28  C   UNL     1       1.363  -1.066  -0.380  0.00  0.00    -0.078 C 
ATOM     29  H   UNL     1       2.369   0.663  -0.772  0.00  0.00    -0.081 HD
ENDBRANCH  22  23
BRANCH  22  33
ATOM     30  C   UNL     1       6.695   2.178   0.947  0.00  0.00    +0.000 A 
ATOM     31  C   UNL     1       6.777   0.891   1.446  0.00  0.00    +0.000 A 
ATOM     32  C   UNL     1       5.812  -0.041   1.115  0.00  0.00    +0.002 A 
ATOM     33  C   UNL     1       4.765   0.313   0.285  0.00  0.00    -0.059 A 
ATOM     34  C   UNL     1       4.683   1.599  -0.213  0.00  0.00    +0.002 A 
ATOM     35  C   UNL     1       5.648   2.532   0.117  0.00  0.00    +0.000 A 
ENDBRANCH  22  33
ENDBRANCH  21  22
ENDBRANCH   1  21
TORSDOF 6
