REMARK  Name = ZINC40446013
REMARK  6 active torsions:
REMARK  status: ('A' for Active; 'I' for Inactive)
REMARK    1  A    between atoms: C_1  and  C_2
REMARK    2  A    between atoms: C_5  and  C_7
REMARK    3  A    between atoms: C_7  and  C_9
REMARK    4  A    between atoms: C_7  and  N_10
REMARK    5  A    between atoms: N_10  and  S_11
REMARK    6  A    between atoms: S_11  and  C_14
REMARK                            x       y       z     vdW  Elec       q    Type
REMARK                         _______ _______ _______ _____ _____    ______ ____
ROOT
ATOM      1  S   UNL     1       3.429  -4.170   1.825  0.00  0.00    +0.060 S 
ATOM      2  O   UNL     1       4.426  -3.671   2.707  0.00  0.00    -0.153 OA
ATOM      3  O   UNL     1       2.242  -4.795   2.294  0.00  0.00    -0.153 OA
ENDROOT
BRANCH   1   4
ATOM      4  C   UNL     1       4.227  -5.332   0.768  0.00  0.00    +0.119 A 
ATOM      5  C   UNL     1       3.676  -6.586   0.578  0.00  0.00    +0.031 A 
ATOM      6  C   UNL     1       4.301  -7.497  -0.251  0.00  0.00    +0.017 A 
ATOM      7  C   UNL     1       5.479  -7.156  -0.891  0.00  0.00    +0.019 A 
ATOM      8  C   UNL     1       6.030  -5.902  -0.702  0.00  0.00    +0.032 A 
ATOM      9  C   UNL     1       5.401  -4.988   0.124  0.00  0.00    +0.045 A 
ATOM     10 BR   UNL     1       6.151  -3.271   0.378  0.00  0.00    -0.048 Br
ATOM     11 BR   UNL     1       6.334  -8.404  -2.026  0.00  0.00    -0.050 Br
ENDBRANCH   1   4
BRANCH   1  12
ATOM     12  N   UNL     1       2.951  -2.896   0.881  0.00  0.00    -0.180 NA
ATOM     13  H   UNL     1       3.330  -2.015   1.028  0.00  0.00    +0.149 HD
BRANCH  12  14
ATOM     14  C   UNL     1       1.958  -3.100  -0.176  0.00  0.00    +0.139 C 
ATOM     15  C   UNL     1       2.561  -2.705  -1.526  0.00  0.00    +0.034 C 
BRANCH  14  20
ATOM     16  C   UNL     1      -0.903   0.821   1.193  0.00  0.00    +0.086 C 
ATOM     17  C   UNL     1      -0.497  -0.543   0.697  0.00  0.00    +0.102 A 
ATOM     18  C   UNL     1      -1.336  -1.518   0.304  0.00  0.00    +0.045 A 
ATOM     19  C   UNL     1      -0.534  -2.618  -0.080  0.00  0.00    +0.046 A 
ATOM     20  C   UNL     1       0.747  -2.248   0.101  0.00  0.00    +0.123 A 
ATOM     21  O   UNL     1       0.763  -0.988   0.566  0.00  0.00    -0.463 OA
ENDBRANCH  14  20
ENDBRANCH  12  14
ENDBRANCH   1  12
TORSDOF 4
