REMARK  Name = ZINC20151482
REMARK  6 active torsions:
REMARK  status: ('A' for Active; 'I' for Inactive)
REMARK    1  A    between atoms: C_10  and  C_11
REMARK    2  A    between atoms: N_13  and  C_14
REMARK    3  A    between atoms: C_14  and  C_15
REMARK    4  A    between atoms: C_15  and  C_16
REMARK    5  A    between atoms: C_16  and  N_17
REMARK    6  A    between atoms: C_18  and  C_20
REMARK                            x       y       z     vdW  Elec       q    Type
REMARK                         _______ _______ _______ _____ _____    ______ ____
ROOT
ATOM      1  C   UNL     1       5.011  -0.631   2.259  0.00  0.00    +0.032 A 
ATOM      2  C   UNL     1       3.727  -0.526   1.698  0.00  0.00    +0.005 A 
ATOM      3  C   UNL     1       3.281   0.681   1.133  0.00  0.00    +0.059 A 
ATOM      4  C   UNL     1       2.030   0.761   0.595  0.00  0.00    +0.167 A 
ATOM      5  C   UNL     1       1.179  -0.358   0.597  0.00  0.00    +0.168 A 
ATOM      6  C   UNL     1       1.591  -1.552   1.142  0.00  0.00    +0.078 A 
ATOM      7  C   UNL     1       2.873  -1.659   1.704  0.00  0.00    +0.077 A 
ATOM      8  N   UNL     1       3.288  -2.814   2.240  0.00  0.00    -0.231 NA
ATOM      9  C   UNL     1       4.485  -2.938   2.772  0.00  0.00    +0.137 A 
ATOM     10  C   UNL     1       5.391  -1.852   2.801  0.00  0.00    +0.092 A 
ATOM     11  N   UNL     1       4.865  -4.154   3.312  0.00  0.00    -0.328 N 
ATOM     12  O   UNL     1       0.002  -0.004   0.002  0.00  0.00    -0.453 OA
ATOM     13  C   UNL     1      -0.017   1.435   0.010  0.00  0.00    +0.466 C 
ATOM     14  O   UNL     1       1.375   1.801  -0.001  0.00  0.00    -0.453 OA
ATOM     15  H   UNL     1       5.863  -4.269   3.760  0.00  0.00    +0.147 HD
ENDROOT
BRANCH  10  16
ATOM     16  C   UNL     1       6.689  -2.010   3.385  0.00  0.00    +0.103 C 
ATOM     17  N   UNL     1       7.719  -2.136   3.849  0.00  0.00    -0.191 NA
ENDBRANCH  10  16
BRANCH  11  18
ATOM     18  C   UNL     1       3.937  -5.288   3.288  0.00  0.00    +0.104 C 
BRANCH  18  19
ATOM     19  C   UNL     1       4.599  -6.502   3.944  0.00  0.00    +0.037 C 
BRANCH  19  20
ATOM     20  C   UNL     1       3.630  -7.686   3.919  0.00  0.00    +0.105 C 
BRANCH  20  21
ATOM     21  N   UNL     1       4.263  -8.848   4.547  0.00  0.00    -0.315 N 
ATOM     22  C   UNL     1       3.592 -10.013   4.639  0.00  0.00    +0.219 C 
ATOM     23  O   UNL     1       2.465 -10.100   4.201  0.00  0.00    -0.275 OA
ATOM     24  H   UNL     1       5.286  -8.770   4.943  0.00  0.00    +0.149 HD
BRANCH  22  25
ATOM     25  C   UNL     1       4.244 -11.209   5.285  0.00  0.00    +0.048 C 
ATOM     26  C   UNL     1       5.516 -11.574   4.516  0.00  0.00    +0.019 C 
ATOM     27  C   UNL     1       6.177 -12.788   5.172  0.00  0.00    -0.009 C 
ATOM     28  C   UNL     1       5.208 -13.972   5.147  0.00  0.00    +0.007 C 
ATOM     29  C   UNL     1       3.937 -13.607   5.915  0.00  0.00    -0.009 C 
ATOM     30  C   UNL     1       3.275 -12.393   5.260  0.00  0.00    +0.019 C 
ATOM     31  C   UNL     1       4.295 -13.271   7.364  0.00  0.00    +0.007 C 
ATOM     32  C   UNL     1       5.264 -12.087   7.389  0.00  0.00    -0.009 C 
ATOM     33  C   UNL     1       6.535 -12.452   6.621  0.00  0.00    +0.007 C 
ATOM     34  C   UNL     1       4.602 -10.873   6.734  0.00  0.00    +0.019 C 
ENDBRANCH  22  25
ENDBRANCH  20  21
ENDBRANCH  19  20
ENDBRANCH  18  19
ENDBRANCH  11  18
TORSDOF 6
