REMARK  Name = ZINC40375606
REMARK  4 active torsions:
REMARK  status: ('A' for Active; 'I' for Inactive)
REMARK    1  A    between atoms: C_8  and  N_11
REMARK    2  A    between atoms: N_14  and  C_15
REMARK    3  A    between atoms: C_15  and  C_16
REMARK    4  A    between atoms: N_17  and  O_18
REMARK                            x       y       z     vdW  Elec       q    Type
REMARK                         _______ _______ _______ _____ _____    ______ ____
ROOT
ATOM      1  N   UNL     1       2.822  -0.454  -2.495  0.00  0.00    -0.294 N 
ATOM      2  C   UNL     1       4.104  -0.101  -2.714  0.00  0.00    +0.300 C 
ATOM      3  O   UNL     1       4.686   0.606  -1.914  0.00  0.00    -0.253 OA
ATOM      4  N   UNL     1       4.742  -0.532  -3.821  0.00  0.00    -0.292 N 
ATOM      5  H   UNL     1       2.358  -1.018  -3.134  0.00  0.00    +0.151 HD
ATOM      6  H   UNL     1       4.278  -1.096  -4.459  0.00  0.00    +0.151 HD
ENDROOT
BRANCH   1  14
ATOM      7  C   UNL     1      -0.058   1.494  -0.023  0.00  0.00    +0.007 C 
ATOM      8  C   UNL     1       1.374   2.033  -0.029  0.00  0.00    -0.008 C 
ATOM      9  C   UNL     1       2.113   1.532   1.214  0.00  0.00    +0.007 C 
ATOM     10  C   UNL     1       2.144   0.003   1.206  0.00  0.00    -0.008 C 
ATOM     11  C   UNL     1       0.712  -0.537   1.212  0.00  0.00    +0.007 C 
ATOM     12  C   UNL     1      -0.027  -0.035  -0.031  0.00  0.00    -0.008 C 
ATOM     13  C   UNL     1       0.697  -0.525  -1.286  0.00  0.00    +0.029 C 
ATOM     14  C   UNL     1       2.129   0.015  -1.292  0.00  0.00    +0.037 C 
ATOM     15  C   UNL     1       2.098   1.544  -1.285  0.00  0.00    +0.029 C 
ATOM     16  C   UNL     1       2.868  -0.487  -0.050  0.00  0.00    +0.029 C 
ENDBRANCH   1  14
BRANCH   4  17
ATOM     17  C   UNL     1       6.136  -0.149  -4.059  0.00  0.00    +0.180 C 
BRANCH  17  18
ATOM     18  C   UNL     1       6.652  -0.865  -5.280  0.00  0.00    +0.149 C 
ATOM     19  N   UNL     1       7.896  -0.759  -5.614  0.00  0.00    -0.075 NA
ATOM     20  N   UNL     1       5.798  -1.632  -6.041  0.00  0.00    -0.343 N 
ATOM     21  H   UNL     1       4.885  -1.777  -5.747  0.00  0.00    +0.144 HD
ATOM     22  H   UNL     1       6.110  -2.027  -6.870  0.00  0.00    +0.144 HD
BRANCH  19  23
ATOM     23  O   UNL     1       8.797  -0.060  -4.774  0.00  0.00    -0.408 OA
ATOM     24  H   UNL     1       9.704  -0.034  -5.106  0.00  0.00    +0.328 HD
ENDBRANCH  19  23
ENDBRANCH  17  18
ENDBRANCH   4  17
TORSDOF 4
