REMARK  Name = ZINC15016971
REMARK  5 active torsions:
REMARK  status: ('A' for Active; 'I' for Inactive)
REMARK    1  A    between atoms: N_6  and  C_7
REMARK    2  A    between atoms: C_7  and  C_9
REMARK    3  A    between atoms: C_7  and  C_21
REMARK    4  A    between atoms: C_14  and  N_15
REMARK    5  A    between atoms: C_30  and  O_31
REMARK                            x       y       z     vdW  Elec       q    Type
REMARK                         _______ _______ _______ _____ _____    ______ ____
ROOT
ATOM      1  C   UNL     1       2.368  -0.248  -0.031  0.00  0.00    +0.138 C 
ENDROOT
BRANCH   1   2
ATOM      2  C   UNL     1       3.749  -0.565  -0.543  0.00  0.00    +0.022 A 
ATOM      3  C   UNL     1       4.720  -1.024   0.343  0.00  0.00    +0.030 A 
ATOM      4  C   UNL     1       5.977  -1.324  -0.090  0.00  0.00    +0.051 A 
ATOM      5  C   UNL     1       6.305  -1.160  -1.447  0.00  0.00    +0.022 A 
ATOM      6  C   UNL     1       7.593  -1.454  -1.930  0.00  0.00    +0.013 A 
ATOM      7  C   UNL     1       7.840  -1.270  -3.261  0.00  0.00    +0.020 A 
ATOM      8  C   UNL     1       6.828  -0.803  -4.097  0.00  0.00    +0.111 A 
ATOM      9  N   UNL     1       5.629  -0.529  -3.643  0.00  0.00    -0.251 NA
ATOM     10  C   UNL     1       5.323  -0.688  -2.352  0.00  0.00    +0.114 A 
ATOM     11  C   UNL     1       4.031  -0.393  -1.868  0.00  0.00    +0.148 A 
ATOM     12 CL   UNL     1       7.171  -1.901   1.031  0.00  0.00    -0.083 Cl
BRANCH  11  13
ATOM     13  O   UNL     1       3.072   0.061  -2.717  0.00  0.00    -0.504 OA
ATOM     14  H   UNL     1       2.994   1.024  -2.744  0.00  0.00    +0.292 HD
ENDBRANCH  11  13
ENDBRANCH   1   2
BRANCH   1  20
ATOM     15  C   UNL     1      -1.407   1.541  -0.418  0.00  0.00    +0.005 A 
ATOM     16  C   UNL     1      -1.511   2.921  -0.307  0.00  0.00    +0.018 A 
ATOM     17  C   UNL     1      -0.373   3.669  -0.081  0.00  0.00    +0.084 A 
ATOM     18  C   UNL     1       0.946   1.774  -0.058  0.00  0.00    +0.097 A 
ATOM     19  C   UNL     1      -0.159   0.960  -0.285  0.00  0.00    +0.041 A 
ATOM     20  N   UNL     1       2.207   1.204   0.072  0.00  0.00    -0.320 N 
ATOM     21  H   UNL     1       2.980   1.768   0.231  0.00  0.00    +0.148 HD
ATOM     22  N   UNL     1       0.870   3.132   0.049  0.00  0.00    -0.350 N 
ATOM     23  H   UNL     1       1.700   3.713   0.217  0.00  0.00    +0.166 HD
ENDBRANCH   1  20
BRANCH   1  24
ATOM     24  C   UNL     1       2.181  -0.872   1.328  0.00  0.00    +0.011 A 
ATOM     25  C   UNL     1       2.330  -0.103   2.467  0.00  0.00    +0.057 A 
ATOM     26  C   UNL     1       2.154  -0.673   3.717  0.00  0.00    +0.167 A 
ATOM     27  C   UNL     1       1.837  -2.025   3.823  0.00  0.00    +0.168 A 
ATOM     28  C   UNL     1       1.693  -2.791   2.678  0.00  0.00    +0.082 A 
ATOM     29  C   UNL     1       1.866  -2.214   1.433  0.00  0.00    +0.135 A 
ATOM     30  O   UNL     1       1.722  -2.344   5.145  0.00  0.00    -0.453 OA
ATOM     31  C   UNL     1       1.570  -1.088   5.832  0.00  0.00    +0.466 C 
ATOM     32  O   UNL     1       2.239  -0.145   4.973  0.00  0.00    -0.453 OA
BRANCH  29  33
ATOM     33  N   UNL     1       1.712  -3.034   0.211  0.00  0.00    +0.057 N 
ATOM     34  O   UNL     1       1.321  -4.185   0.295  0.00  0.00    -0.126 OA
ATOM     35  O   UNL     1       1.976  -2.559  -0.879  0.00  0.00    -0.126 OA
ENDBRANCH  29  33
ENDBRANCH   1  24
TORSDOF 5
