REMARK  Name = ZINC03586635
REMARK  12 active torsions:
REMARK  status: ('A' for Active; 'I' for Inactive)
REMARK    1  A    between atoms: C_1  and  C_2
REMARK    2  A    between atoms: C_9  and  N_13
REMARK    3  A    between atoms: C_10  and  C_11
REMARK    4  A    between atoms: C_14  and  C_16
REMARK    5  A    between atoms: C_16  and  N_56
REMARK    6  A    between atoms: C_17  and  N_56
REMARK    7  A    between atoms: C_18  and  C_19
REMARK    8  A    between atoms: C_18  and  N_56
REMARK    9  A    between atoms: C_23  and  O_27
REMARK   10  A    between atoms: C_24  and  O_25
REMARK   11  A    between atoms: O_25  and  C_26
REMARK   12  A    between atoms: O_27  and  C_28
REMARK                            x       y       z     vdW  Elec       q    Type
REMARK                         _______ _______ _______ _____ _____    ______ ____
ROOT
ATOM      1  N   UNL     1       1.932  -5.847  -1.734  0.00  0.00    -0.281 N 
ATOM      2  C   UNL     1       2.229  -6.109  -3.022  0.00  0.00    +0.201 C 
ATOM      3  O   UNL     1       2.201  -5.218  -3.844  0.00  0.00    -0.278 OA
ATOM      4  H   UNL     1       1.955  -6.559  -1.076  0.00  0.00    +0.155 HD
ENDROOT
BRANCH   1  12
ATOM      5  C   UNL     1      -0.019   1.526   0.010  0.00  0.00    +0.008 C 
ATOM      6  C   UNL     1       0.002  -0.004   0.002  0.00  0.00    -0.009 C 
ATOM      7  C   UNL     1       0.742  -0.514   1.242  0.00  0.00    +0.008 C 
ATOM      8  C   UNL     1       0.556  -2.027   1.373  0.00  0.00    +0.037 C 
ATOM      9  C   UNL     1       0.941  -2.684   0.054  0.00  0.00    -0.018 A 
ATOM     10  C   UNL     1       1.008  -1.965  -1.089  0.00  0.00    -0.004 A 
ATOM     11  S   UNL     1       1.485  -3.134  -2.331  0.00  0.00    -0.077 S 
ATOM     12  C   UNL     1       1.593  -4.557  -1.349  0.00  0.00    +0.090 A 
ATOM     13  C   UNL     1       1.258  -4.095  -0.084  0.00  0.00    +0.084 A 
ATOM     14  C   UNL     1       0.736  -0.502  -1.252  0.00  0.00    +0.046 C 
BRANCH  13  15
ATOM     15  C   UNL     1       1.226  -4.977   1.044  0.00  0.00    +0.102 C 
ATOM     16  N   UNL     1       1.200  -5.676   1.938  0.00  0.00    -0.191 NA
ENDBRANCH  13  15
ENDBRANCH   1  12
BRANCH   2  17
ATOM     17  C   UNL     1       2.598  -7.509  -3.440  0.00  0.00    +0.019 C 
BRANCH  17  19
ATOM     18  C   UNL     1       1.661  -7.245  -5.657  0.00  0.00    -0.095 C 
ATOM     19  N   UNL     1       2.894  -7.512  -4.888  0.00  0.00    +0.386 N 
ATOM     20  H   UNL     1       3.579  -6.774  -5.089  0.00  0.00    -0.081 HD
BRANCH  19  21
ATOM     21  C   UNL     1       3.464  -8.817  -5.284  0.00  0.00    -0.039 C 
BRANCH  21  22
ATOM     22  C   UNL     1       3.959  -8.720  -6.704  0.00  0.00    -0.019 A 
ATOM     23  C   UNL     1       3.197  -9.233  -7.738  0.00  0.00    +0.005 A 
ATOM     24  C   UNL     1       3.648  -9.146  -9.042  0.00  0.00    +0.004 A 
ATOM     25  C   UNL     1       4.863  -8.545  -9.318  0.00  0.00    +0.049 A 
ATOM     26  C   UNL     1       5.630  -8.028  -8.287  0.00  0.00    +0.162 A 
ATOM     27  C   UNL     1       5.174  -8.112  -6.974  0.00  0.00    +0.163 A 
BRANCH  27  28
ATOM     28  O   UNL     1       5.921  -7.602  -5.959  0.00  0.00    -0.491 OA
ATOM     29  C   UNL     1       6.868  -8.480  -5.346  0.00  0.00    +0.277 C 
ENDBRANCH  27  28
BRANCH  26  30
ATOM     30  O   UNL     1       6.824  -7.436  -8.557  0.00  0.00    -0.491 OA
ATOM     31  C   UNL     1       7.226  -7.382  -9.927  0.00  0.00    +0.277 C 
ENDBRANCH  26  30
ENDBRANCH  21  22
ENDBRANCH  19  21
ENDBRANCH  17  19
ENDBRANCH   2  17
TORSDOF 8
