REMARK  Name = ZINC38966321
REMARK  6 active torsions:
REMARK  status: ('A' for Active; 'I' for Inactive)
REMARK    1  A    between atoms: C_1  and  C_2
REMARK    2  A    between atoms: C_2  and  O_3
REMARK    3  A    between atoms: O_3  and  C_4
REMARK    4  A    between atoms: C_4  and  C_6
REMARK    5  A    between atoms: C_7  and  N_27
REMARK    6  A    between atoms: C_18  and  C_20
REMARK                            x       y       z     vdW  Elec       q    Type
REMARK                         _______ _______ _______ _____ _____    ______ ____
ROOT
ATOM      1  C   UNL     1       1.444  -2.348   2.434  0.00  0.00    +0.102 C 
ATOM      2  C   UNL     1       1.477  -3.692   2.588  0.00  0.00    +0.196 C 
ATOM      3  O   UNL     1       2.098  -4.292   3.626  0.00  0.00    -0.429 OA
ATOM      4  C   UNL     1       2.883  -3.509   4.401  0.00  0.00    +0.204 C 
ATOM      5  N   UNL     1       4.022  -3.944   4.840  0.00  0.00    -0.131 NA
ATOM      6  C   UNL     1       4.842  -3.194   5.592  0.00  0.00    +0.332 C 
ATOM      7  O   UNL     1       5.887  -3.674   5.988  0.00  0.00    -0.250 OA
ATOM      8  N   UNL     1       4.538  -1.928   5.918  0.00  0.00    -0.238 N 
ATOM      9  C   UNL     1       3.383  -1.365   5.529  0.00  0.00    +0.233 C 
ATOM     10  O   UNL     1       3.151  -0.215   5.837  0.00  0.00    -0.274 OA
ATOM     11  C   UNL     1       2.372  -2.125   4.721  0.00  0.00    +0.171 C 
ATOM     12  C   UNL     1       2.123  -1.403   3.389  0.00  0.00    +0.082 C 
ATOM     13  H   UNL     1       5.165  -1.409   6.445  0.00  0.00    +0.159 HD
ENDROOT
BRANCH  12  14
ATOM     14  C   UNL     1       1.239  -0.206   3.625  0.00  0.00    -0.038 A 
ATOM     15  C   UNL     1      -0.021  -0.374   4.168  0.00  0.00    +0.006 A 
ATOM     16  C   UNL     1      -0.832   0.724   4.385  0.00  0.00    +0.020 A 
ATOM     17  C   UNL     1      -0.383   1.991   4.058  0.00  0.00    +0.041 A 
ATOM     18  C   UNL     1       0.879   2.159   3.515  0.00  0.00    +0.020 A 
ATOM     19  C   UNL     1       1.691   1.060   3.304  0.00  0.00    +0.006 A 
ATOM     20 CL   UNL     1      -1.401   3.371   4.330  0.00  0.00    -0.084 Cl
ENDBRANCH  12  14
BRANCH   2  21
ATOM     21  N   UNL     1       0.853  -4.476   1.655  0.00  0.00    -0.329 N 
ATOM     22  H   UNL     1       0.480  -4.073   0.855  0.00  0.00    +0.145 HD
ATOM     23  H   UNL     1       0.784  -5.433   1.794  0.00  0.00    +0.145 HD
ENDBRANCH   2  21
BRANCH   1  24
ATOM     24  C   UNL     1       0.755  -1.813   1.334  0.00  0.00    +0.341 C 
ATOM     25  O   UNL     1       1.373  -1.397   0.371  0.00  0.00    -0.245 OA
BRANCH  24  26
ATOM     26  O   UNL     1      -0.595  -1.761   1.344  0.00  0.00    -0.462 OA
BRANCH  26  28
ATOM     27  C   UNL     1      -2.748  -1.228   0.385  0.00  0.00    +0.048 C 
ATOM     28  C   UNL     1      -1.231  -1.204   0.192  0.00  0.00    +0.229 C 
ENDBRANCH  26  28
ENDBRANCH  24  26
ENDBRANCH   1  24
TORSDOF 5
