REMARK  Name = ZINC49741114
REMARK  4 active torsions:
REMARK  status: ('A' for Active; 'I' for Inactive)
REMARK    1  A    between atoms: C_4  and  C_7
REMARK    2  A    between atoms: C_7  and  O_8
REMARK    3  A    between atoms: O_8  and  C_9
REMARK    4  A    between atoms: N_11  and  C_12
REMARK                            x       y       z     vdW  Elec       q    Type
REMARK                         _______ _______ _______ _____ _____    ______ ____
ROOT
ATOM      1  C   UNL     1       6.931  -2.609   2.926  0.00  0.00    +0.037 A 
ATOM      2  C   UNL     1       7.705  -3.030   1.852  0.00  0.00    +0.025 A 
ATOM      3  C   UNL     1       8.847  -3.772   2.068  0.00  0.00    +0.025 A 
ATOM      4  C   UNL     1       9.235  -4.104   3.364  0.00  0.00    +0.038 A 
ATOM      5  C   UNL     1       8.455  -3.677   4.434  0.00  0.00    -0.009 A 
ATOM      6  C   UNL     1       7.316  -2.933   4.221  0.00  0.00    +0.030 A 
ATOM      7  C   UNL     1       9.137  -4.188   5.673  0.00  0.00    +0.074 C 
ATOM      8  C   UNL     1       8.211  -5.119   6.469  0.00  0.00    +0.021 C 
ATOM      9  C   UNL     1       8.571  -4.830   7.950  0.00  0.00    +0.001 C 
ATOM     10  C   UNL     1       8.830  -3.302   7.949  0.00  0.00    +0.001 C 
ATOM     11  C   UNL     1       9.537  -3.038   6.601  0.00  0.00    +0.021 C 
ATOM     12  C   UNL     1      10.348  -4.930   5.172  0.00  0.00    +0.228 C 
ATOM     13  O   UNL     1      11.176  -5.503   5.847  0.00  0.00    -0.274 OA
ATOM     14  N   UNL     1      10.333  -4.835   3.829  0.00  0.00    -0.284 N 
ATOM     15  H   UNL     1      11.006  -5.227   3.251  0.00  0.00    +0.155 HD
ENDROOT
BRANCH   1  18
ATOM     16  C   UNL     1       5.006  -2.100   1.621  0.00  0.00    +0.405 C 
ATOM     17  O   UNL     1       5.367  -2.912   0.793  0.00  0.00    -0.226 OA
ATOM     18  N   UNL     1       5.770  -1.857   2.704  0.00  0.00    -0.251 N 
ATOM     19  H   UNL     1       5.517  -1.161   3.331  0.00  0.00    +0.158 HD
BRANCH  16  20
ATOM     20  O   UNL     1       3.843  -1.442   1.457  0.00  0.00    -0.445 OA
BRANCH  20  21
ATOM     21  C   UNL     1       3.084  -1.749   0.286  0.00  0.00    +0.269 C 
BRANCH  21  25
ATOM     22  C   UNL     1      -0.488   0.593   0.246  0.00  0.00    +0.000 A 
ATOM     23  C   UNL     1       0.663   1.079  -0.345  0.00  0.00    +0.000 A 
ATOM     24  C   UNL     1       1.819   0.321  -0.332  0.00  0.00    +0.007 A 
ATOM     25  C   UNL     1       1.824  -0.922   0.273  0.00  0.00    -0.010 A 
ATOM     26  C   UNL     1       0.672  -1.408   0.864  0.00  0.00    +0.007 A 
ATOM     27  C   UNL     1      -0.484  -0.650   0.850  0.00  0.00    +0.000 A 
ENDBRANCH  21  25
ENDBRANCH  20  21
ENDBRANCH  16  20
ENDBRANCH   1  18
TORSDOF 4
