REMARK  Name = ZINC36955864
REMARK  5 active torsions:
REMARK  status: ('A' for Active; 'I' for Inactive)
REMARK    1  A    between atoms: C_1  and  C_2
REMARK    2  A    between atoms: C_2  and  C_3
REMARK    3  A    between atoms: C_3  and  C_5
REMARK    4  A    between atoms: C_3  and  N_11
REMARK    5  A    between atoms: C_18  and  N_22
REMARK                            x       y       z     vdW  Elec       q    Type
REMARK                         _______ _______ _______ _____ _____    ______ ____
ROOT
ATOM      1  N   UNL     1      -2.040  -0.208   1.306  0.00  0.00    -0.227 N 
ATOM      2  C   UNL     1      -1.503  -0.523   2.499  0.00  0.00    +0.254 C 
ATOM      3  O   UNL     1      -0.456  -1.113   2.673  0.00  0.00    -0.270 OA
ATOM      4  C   UNL     1      -2.404  -0.030   3.562  0.00  0.00    +0.051 A 
ATOM      5  C   UNL     1      -2.374  -0.062   4.946  0.00  0.00    +0.014 A 
ATOM      6  C   UNL     1      -3.409   0.510   5.674  0.00  0.00    +0.003 A 
ATOM      7  C   UNL     1      -4.469   1.113   5.032  0.00  0.00    +0.023 A 
ATOM      8  C   UNL     1      -4.518   1.156   3.637  0.00  0.00    +0.038 A 
ATOM      9  C   UNL     1      -3.485   0.585   2.896  0.00  0.00    +0.070 A 
ATOM     10  C   UNL     1      -3.203   0.450   1.457  0.00  0.00    +0.256 C 
ATOM     11  O   UNL     1      -3.906   0.862   0.556  0.00  0.00    -0.269 OA
ENDROOT
BRANCH   8  12
ATOM     12  N   UNL     1      -5.587   1.763   2.994  0.00  0.00    -0.357 N 
ATOM     13  H   UNL     1      -6.304   2.159   3.514  0.00  0.00    +0.142 HD
ATOM     14  H   UNL     1      -5.617   1.791   2.025  0.00  0.00    +0.142 HD
ENDBRANCH   8  12
BRANCH   1  15
ATOM     15  C   UNL     1      -1.433  -0.534   0.013  0.00  0.00    +0.114 C 
BRANCH  15  16
ATOM     16  C   UNL     1      -1.280  -2.028  -0.108  0.00  0.00    -0.027 A 
ATOM     17  C   UNL     1      -2.195  -2.868   0.498  0.00  0.00    +0.005 A 
ATOM     18  C   UNL     1      -2.055  -4.239   0.387  0.00  0.00    +0.000 A 
ATOM     19  C   UNL     1      -0.999  -4.769  -0.331  0.00  0.00    +0.000 A 
ATOM     20  C   UNL     1      -0.085  -3.929  -0.938  0.00  0.00    +0.000 A 
ATOM     21  C   UNL     1      -0.228  -2.558  -0.831  0.00  0.00    +0.005 A 
ENDBRANCH  15  16
BRANCH  15  23
ATOM     22  C   UNL     1      -0.225   1.651  -0.089  0.00  0.00    +0.006 C 
ATOM     23  C   UNL     1      -0.058   0.130  -0.087  0.00  0.00    +0.024 C 
ENDBRANCH  15  23
ENDBRANCH   1  15
TORSDOF 4
