REMARK  Name = ZINC06265718
REMARK  7 active torsions:
REMARK  status: ('A' for Active; 'I' for Inactive)
REMARK    1  A    between atoms: C_1  and  C_2
REMARK    2  A    between atoms: C_2  and  C_3
REMARK    3  A    between atoms: C_11  and  C_23
REMARK    4  A    between atoms: C_13  and  C_19
REMARK    5  A    between atoms: C_13  and  C_21
REMARK    6  A    between atoms: C_14  and  N_18
REMARK    7  A    between atoms: C_15  and  C_16
REMARK                            x       y       z     vdW  Elec       q    Type
REMARK                         _______ _______ _______ _____ _____    ______ ____
ROOT
ATOM      1  C   UNL     1       1.259  -0.963   1.549  0.00  0.00    -0.007 C 
ATOM      2  C   UNL     1       2.755  -0.676   1.355  0.00  0.00    +0.031 C 
ATOM      3  C   UNL     1       3.118  -1.077  -0.052  0.00  0.00    -0.021 C 
ATOM      4  C   UNL     1       2.515  -2.089  -0.645  0.00  0.00    -0.029 C 
ATOM      5  C   UNL     1       1.480  -2.949   0.018  0.00  0.00    +0.026 C 
ATOM      6  C   UNL     1       1.029  -2.463   1.375  0.00  0.00    +0.012 C 
ATOM      7  C   UNL     1       0.310  -3.124  -0.951  0.00  0.00    +0.033 C 
ATOM      8  C   UNL     1       0.803  -3.866  -2.193  0.00  0.00    +0.184 C 
ATOM      9  C   UNL     1       2.040  -3.239  -2.760  0.00  0.00    +0.054 C 
ATOM     10  C   UNL     1       2.858  -2.418  -2.054  0.00  0.00    +0.074 C 
ATOM     11  C   UNL     1      -0.799  -3.933  -0.274  0.00  0.00    +0.011 C 
ENDROOT
BRANCH   9  12
ATOM     12  N   UNL     1       2.363  -3.508  -4.061  0.00  0.00    -0.358 N 
ATOM     13  H   UNL     1       1.797  -4.092  -4.590  0.00  0.00    +0.142 HD
ATOM     14  H   UNL     1       3.158  -3.116  -4.454  0.00  0.00    +0.142 HD
ENDBRANCH   9  12
BRANCH   1  16
ATOM     15  C   UNL     1       0.593   1.310   0.755  0.00  0.00    +0.004 C 
ATOM     16  C   UNL     1       0.447  -0.192   0.506  0.00  0.00    +0.000 C 
ENDBRANCH   1  16
BRANCH  10  17
ATOM     17  C   UNL     1       4.037  -1.876  -2.658  0.00  0.00    +0.101 C 
ATOM     18  N   UNL     1       4.973  -1.445  -3.137  0.00  0.00    -0.191 NA
ENDBRANCH  10  17
BRANCH   8  19
ATOM     19  C   UNL     1       1.095  -5.264  -1.834  0.00  0.00    +0.091 C 
ATOM     20  N   UNL     1       1.320  -6.342  -1.556  0.00  0.00    -0.195 NA
ENDBRANCH   8  19
BRANCH   8  21
ATOM     21  C   UNL     1      -0.257  -3.847  -3.216  0.00  0.00    +0.091 C 
ATOM     22  N   UNL     1      -1.074  -3.833  -4.004  0.00  0.00    -0.195 NA
ENDBRANCH   8  21
TORSDOF 5
