REMARK  Name = ZINC16042759
REMARK  12 active torsions:
REMARK  status: ('A' for Active; 'I' for Inactive)
REMARK    1  A    between atoms: C_1  and  C_2
REMARK    2  A    between atoms: C_2  and  N_74
REMARK    3  A    between atoms: C_3  and  C_4
REMARK    4  A    between atoms: C_3  and  N_74
REMARK    5  A    between atoms: C_5  and  C_6
REMARK    6  A    between atoms: C_5  and  N_74
REMARK    7  A    between atoms: C_6  and  C_7
REMARK    8  A    between atoms: C_7  and  N_8
REMARK    9  A    between atoms: C_28  and  C_30
REMARK   10  A    between atoms: C_33  and  C_36
REMARK   11  A    between atoms: C_36  and  C_37
REMARK   12  A    between atoms: C_36  and  C_38
REMARK                            x       y       z     vdW  Elec       q    Type
REMARK                         _______ _______ _______ _____ _____    ______ ____
ROOT
ATOM      1  N   UNL     1      -5.405   2.560   3.560  0.00  0.00    -0.291 N 
ATOM      2  C   UNL     1      -5.422   3.628   4.545  0.00  0.00    +0.203 C 
ATOM      3  C   UNL     1      -4.509   4.750   4.172  0.00  0.00    +0.234 C 
ATOM      4  O   UNL     1      -4.421   5.686   4.939  0.00  0.00    -0.274 OA
ATOM      5  N   UNL     1      -3.783   4.792   3.053  0.00  0.00    -0.276 N 
ATOM      6  C   UNL     1      -3.857   3.767   2.013  0.00  0.00    +0.167 C 
ATOM      7  C   UNL     1      -4.707   2.609   2.427  0.00  0.00    +0.237 C 
ATOM      8  O   UNL     1      -4.765   1.653   1.683  0.00  0.00    -0.274 OA
ATOM      9  C   UNL     1      -4.425   4.390   0.730  0.00  0.00    +0.069 C 
ATOM     10  C   UNL     1      -3.743   5.712   0.487  0.00  0.00    -0.015 A 
ATOM     11  C   UNL     1      -3.694   6.485  -0.737  0.00  0.00    +0.003 A 
ATOM     12  C   UNL     1      -4.223   6.272  -2.014  0.00  0.00    +0.010 A 
ATOM     13  C   UNL     1      -3.977   7.239  -2.957  0.00  0.00    +0.001 A 
ATOM     14  C   UNL     1      -3.239   8.376  -2.670  0.00  0.00    +0.002 A 
ATOM     15  C   UNL     1      -2.703   8.611  -1.415  0.00  0.00    +0.026 A 
ATOM     16  C   UNL     1      -2.937   7.646  -0.438  0.00  0.00    +0.047 A 
ATOM     17  N   UNL     1      -2.563   7.561   0.872  0.00  0.00    -0.356 N 
ATOM     18  H   UNL     1      -2.034   8.221   1.346  0.00  0.00    +0.166 HD
ATOM     19  C   UNL     1      -3.048   6.402   1.417  0.00  0.00    +0.046 A 
ATOM     20  C   UNL     1      -2.858   5.926   2.840  0.00  0.00    +0.154 C 
ENDROOT
BRANCH  20  21
ATOM     21  C   UNL     1      -1.436   5.472   3.043  0.00  0.00    -0.021 A 
ATOM     22  C   UNL     1      -0.875   4.550   2.180  0.00  0.00    +0.006 A 
ATOM     23  C   UNL     1       0.429   4.129   2.370  0.00  0.00    +0.004 A 
ATOM     24  C   UNL     1       1.174   4.639   3.416  0.00  0.00    -0.045 A 
ATOM     25  C   UNL     1       0.615   5.566   4.276  0.00  0.00    +0.004 A 
ATOM     26  C   UNL     1      -0.690   5.983   4.089  0.00  0.00    +0.006 A 
BRANCH  24  27
ATOM     27  C   UNL     1       2.597   4.185   3.620  0.00  0.00    +0.013 C 
ATOM     28  C   UNL     1       3.535   5.390   3.526  0.00  0.00    +0.012 C 
ATOM     29  C   UNL     1       2.733   3.538   5.000  0.00  0.00    +0.012 C 
ENDBRANCH  24  27
ENDBRANCH  20  21
BRANCH   1  30
ATOM     30  C   UNL     1      -6.202   1.360   3.828  0.00  0.00    +0.106 C 
BRANCH  30  31
ATOM     31  C   UNL     1      -5.351   0.343   4.591  0.00  0.00    +0.000 C 
BRANCH  31  32
ATOM     32  C   UNL     1      -6.183  -0.910   4.871  0.00  0.00    -0.077 C 
BRANCH  32  33
ATOM     33  N   UNL     1      -5.342  -1.890   5.589  0.00  0.00    +0.379 N 
ATOM     34  H   UNL     1      -4.467  -2.023   5.068  0.00  0.00    -0.082 HD
BRANCH  33  36
ATOM     35  C   UNL     1      -6.306  -1.057   7.707  0.00  0.00    -0.017 C 
ATOM     36  C   UNL     1      -5.024  -1.388   6.942  0.00  0.00    -0.082 C 
ENDBRANCH  33  36
BRANCH  33  37
ATOM     37  C   UNL     1      -6.046  -3.187   5.684  0.00  0.00    -0.082 C 
ATOM     38  C   UNL     1      -5.041  -4.262   6.101  0.00  0.00    -0.017 C 
ENDBRANCH  33  37
ENDBRANCH  32  33
ENDBRANCH  31  32
ENDBRANCH  30  31
ENDBRANCH   1  30
TORSDOF 8
