REMARK  Name = ZINC63140731
REMARK  7 active torsions:
REMARK  status: ('A' for Active; 'I' for Inactive)
REMARK    1  A    between atoms: C_1  and  C_2
REMARK    2  A    between atoms: C_2  and  O_3
REMARK    3  A    between atoms: O_3  and  C_4
REMARK    4  A    between atoms: C_9  and  C_10
REMARK    5  A    between atoms: N_29  and  C_32
REMARK    6  A    between atoms: C_32  and  C_33
REMARK    7  A    between atoms: C_33  and  C_34
REMARK                            x       y       z     vdW  Elec       q    Type
REMARK                         _______ _______ _______ _____ _____    ______ ____
ROOT
ATOM      1  C   UNL     1       1.990  -1.397  -3.491  0.00  0.00    +0.137 C 
ATOM      2  C   UNL     1       0.905  -1.007  -4.499  0.00  0.00    +0.131 C 
ATOM      3  C   UNL     1       0.600  -2.254  -5.319  0.00  0.00    -0.034 C 
ATOM      4  C   UNL     1      -0.706  -2.466  -5.206  0.00  0.00    -0.001 A 
ATOM      5  C   UNL     1      -1.593  -3.466  -5.823  0.00  0.00    +0.010 A 
ATOM      6  C   UNL     1      -2.905  -3.402  -5.471  0.00  0.00    +0.001 A 
ATOM      7  C   UNL     1      -3.416  -2.456  -4.577  0.00  0.00    +0.002 A 
ATOM      8  C   UNL     1      -2.674  -1.496  -3.968  0.00  0.00    +0.026 A 
ATOM      9  C   UNL     1      -1.280  -1.458  -4.263  0.00  0.00    +0.043 A 
ATOM     10  N   UNL     1      -0.345  -0.629  -3.839  0.00  0.00    -0.375 N 
ATOM     11  C   UNL     1       1.678  -3.052  -6.009  0.00  0.00    +0.065 C 
ATOM     12  C   UNL     1       2.772  -3.316  -4.957  0.00  0.00    +0.167 C 
ATOM     13  N   UNL     1       3.071  -2.082  -4.234  0.00  0.00    -0.279 N 
ATOM     14  C   UNL     1       4.291  -1.533  -4.214  0.00  0.00    +0.234 C 
ATOM     15  O   UNL     1       4.432  -0.496  -3.601  0.00  0.00    -0.274 OA
ATOM     16  C   UNL     1       5.492  -2.106  -4.891  0.00  0.00    +0.203 C 
ATOM     17  N   UNL     1       5.192  -3.350  -5.581  0.00  0.00    -0.291 N 
ATOM     18  C   UNL     1       3.976  -3.900  -5.618  0.00  0.00    +0.237 C 
ATOM     19  O   UNL     1       3.840  -4.941  -6.226  0.00  0.00    -0.274 OA
ATOM     20  H   UNL     1      -0.455   0.095  -3.203  0.00  0.00    +0.160 HD
ENDROOT
BRANCH   1  26
ATOM     21  C   UNL     1       1.437  -1.971  -1.114  0.00  0.00    +0.125 A 
ATOM     22  C   UNL     1       0.900  -2.827  -0.163  0.00  0.00    +0.046 A 
ATOM     23  C   UNL     1       0.350  -4.033  -0.552  0.00  0.00    +0.004 A 
ATOM     24  C   UNL     1       0.334  -4.387  -1.889  0.00  0.00    +0.001 A 
ATOM     25  C   UNL     1       0.868  -3.537  -2.838  0.00  0.00    +0.009 A 
ATOM     26  C   UNL     1       1.414  -2.327  -2.455  0.00  0.00    +0.017 A 
BRANCH  21  27
ATOM     27  O   UNL     1       1.978  -0.784  -0.734  0.00  0.00    -0.492 OA
BRANCH  27  29
ATOM     28  C   UNL     1       2.613   0.883   0.897  0.00  0.00    +0.048 C 
ATOM     29  C   UNL     1       1.967  -0.484   0.663  0.00  0.00    +0.225 C 
ENDBRANCH  27  29
ENDBRANCH  21  27
ENDBRANCH   1  26
BRANCH  17  30
ATOM     30  C   UNL     1       6.283  -4.037  -6.276  0.00  0.00    +0.113 C 
BRANCH  30  31
ATOM     31  C   UNL     1       6.963  -5.015  -5.316  0.00  0.00    +0.054 C 
BRANCH  31  32
ATOM     32  C   UNL     1       8.086  -5.721  -6.031  0.00  0.00    -0.043 A 
ATOM     33  C   UNL     1       7.841  -6.904  -6.703  0.00  0.00    +0.004 A 
ATOM     34  C   UNL     1       8.870  -7.553  -7.359  0.00  0.00    +0.003 A 
ATOM     35  C   UNL     1      10.146  -7.021  -7.343  0.00  0.00    +0.038 A 
ATOM     36  C   UNL     1      10.392  -5.837  -6.670  0.00  0.00    +0.124 A 
ATOM     37  C   UNL     1       9.359  -5.184  -6.018  0.00  0.00    +0.042 A 
ATOM     38  F   UNL     1      11.639  -5.316  -6.653  0.00  0.00    -0.205 F 
ENDBRANCH  31  32
ENDBRANCH  30  31
ENDBRANCH  17  30
TORSDOF 6
