REMARK  Name = ZINC41088172
REMARK  5 active torsions:
REMARK  status: ('A' for Active; 'I' for Inactive)
REMARK    1  A    between atoms: C_1  and  C_2
REMARK    2  A    between atoms: C_7  and  O_10
REMARK    3  A    between atoms: O_10  and  C_11
REMARK    4  A    between atoms: C_11  and  C_13
REMARK    5  A    between atoms: C_17  and  N_22
REMARK                            x       y       z     vdW  Elec       q    Type
REMARK                         _______ _______ _______ _____ _____    ______ ____
ROOT
ATOM      1  C   UNL     1       2.836  -4.238   3.426  0.00  0.00    +0.213 A 
ATOM      2  C   UNL     1       3.530  -5.407   3.427  0.00  0.00    +0.065 A 
ATOM      3  C   UNL     1       4.088  -5.546   4.771  0.00  0.00    +0.023 A 
ATOM      4  C   UNL     1       4.881  -6.510   5.399  0.00  0.00    +0.034 A 
ATOM      5  C   UNL     1       5.246  -6.336   6.721  0.00  0.00    +0.025 A 
ATOM      6  C   UNL     1       4.823  -5.207   7.421  0.00  0.00    +0.026 A 
ATOM      7  C   UNL     1       4.041  -4.252   6.810  0.00  0.00    +0.048 A 
ATOM      8  C   UNL     1       3.664  -4.407   5.481  0.00  0.00    +0.136 A 
ATOM      9  O   UNL     1       2.927  -3.654   4.639  0.00  0.00    -0.448 OA
ENDROOT
BRANCH   5  10
ATOM     10  N   UNL     1       6.040  -7.296   7.358  0.00  0.00    -0.358 N 
ATOM     11  H   UNL     1       6.334  -8.082   6.872  0.00  0.00    +0.142 HD
ATOM     12  H   UNL     1       6.296  -7.175   8.286  0.00  0.00    +0.142 HD
ENDBRANCH   5  10
BRANCH   1  13
ATOM     13  C   UNL     1       2.104  -3.690   2.277  0.00  0.00    +0.375 C 
ATOM     14  O   UNL     1       2.085  -4.296   1.224  0.00  0.00    -0.241 OA
BRANCH  13  15
ATOM     15  O   UNL     1       1.454  -2.514   2.391  0.00  0.00    -0.456 OA
BRANCH  15  21
ATOM     16  C   UNL     1      -0.019   1.526   0.010  0.00  0.00    +0.007 C 
ATOM     17  C   UNL     1       0.002  -0.004   0.002  0.00  0.00    -0.011 C 
ATOM     18  C   UNL     1      -1.433  -0.534   0.013  0.00  0.00    +0.003 C 
ATOM     19  C   UNL     1      -1.413  -2.063   0.004  0.00  0.00    +0.004 C 
ATOM     20  C   UNL     1      -0.673  -2.570   1.244  0.00  0.00    +0.045 C 
ATOM     21  C   UNL     1       0.763  -2.041   1.233  0.00  0.00    +0.177 C 
ATOM     22  C   UNL     1       0.742  -0.511   1.242  0.00  0.00    +0.048 C 
ENDBRANCH  15  21
ENDBRANCH  13  15
ENDBRANCH   1  13
TORSDOF 4
