REMARK  Name = ZINC04109208
REMARK  12 active torsions:
REMARK  status: ('A' for Active; 'I' for Inactive)
REMARK    1  A    between atoms: C_1  and  C_2
REMARK    2  A    between atoms: C_2  and  C_3
REMARK    3  A    between atoms: C_3  and  C_4
REMARK    4  A    between atoms: C_4  and  C_5
REMARK    5  A    between atoms: C_17  and  O_33
REMARK    6  A    between atoms: N_20  and  C_32
REMARK    7  A    between atoms: C_23  and  C_27
REMARK    8  A    between atoms: C_23  and  O_31
REMARK    9  A    between atoms: C_24  and  O_26
REMARK   10  A    between atoms: C_27  and  O_29
REMARK   11  A    between atoms: O_29  and  C_30
REMARK   12  A    between atoms: O_33  and  C_34
REMARK                            x       y       z     vdW  Elec       q    Type
REMARK                         _______ _______ _______ _____ _____    ______ ____
ROOT
ATOM      1  C   UNL     1       1.393   0.325   0.434  0.00  0.00    +0.007 C 
ATOM      2  C   UNL     1       0.938   1.752   0.570  0.00  0.00    -0.025 C 
ATOM      3  C   UNL     1      -0.355   1.963   0.484  0.00  0.00    -0.049 C 
ATOM      4  C   UNL     1      -1.345   0.855   0.264  0.00  0.00    -0.051 C 
ATOM      5  C   UNL     1       0.609  -0.295  -0.715  0.00  0.00    -0.043 C 
ATOM      6  C   UNL     1       1.007  -1.749  -0.901  0.00  0.00    +0.007 C 
ATOM      7  C   UNL     1       0.169  -2.518   0.125  0.00  0.00    -0.007 C 
ATOM      8  C   UNL     1      -1.124  -1.657   0.235  0.00  0.00    -0.077 C 
ATOM      9  C   UNL     1       0.715  -2.367  -2.243  0.00  0.00    -0.020 A 
ATOM     10  C   UNL     1      -0.267  -2.146  -3.175  0.00  0.00    +0.009 A 
ATOM     11  C   UNL     1      -0.263  -2.961  -4.302  0.00  0.00    +0.046 A 
ATOM     12  C   UNL     1       0.686  -3.956  -4.471  0.00  0.00    +0.122 A 
ATOM     13  C   UNL     1       1.690  -4.181  -3.532  0.00  0.00    +0.069 A 
ATOM     14  C   UNL     1       1.709  -3.361  -2.414  0.00  0.00    +0.037 A 
ATOM     15  N   UNL     1       2.609  -3.337  -1.326  0.00  0.00    -0.325 N 
ATOM     16  C   UNL     1       2.516  -1.934  -0.895  0.00  0.00    +0.127 C 
ATOM     17  C   UNL     1       3.289  -1.378   0.242  0.00  0.00    +0.208 C 
ATOM     18  C   UNL     1       2.863   0.086   0.494  0.00  0.00    +0.167 C 
ATOM     19  C   UNL     1       3.965  -3.664  -1.788  0.00  0.00    +0.129 C 
ATOM     20  N   UNL     1      -0.837  -0.381  -0.451  0.00  0.00    +0.385 N 
ATOM     21  H   UNL     1      -1.317  -0.415  -1.358  0.00  0.00    -0.081 HD
ENDROOT
BRANCH  18  22
ATOM     22  O   UNL     1       3.351   0.498   1.780  0.00  0.00    -0.388 OA
ATOM     23  H   UNL     1       4.303   0.375   1.898  0.00  0.00    +0.210 HD
ENDBRANCH  18  22
BRANCH  17  24
ATOM     24  C   UNL     1       3.217  -2.233   1.478  0.00  0.00    +0.343 C 
ATOM     25  O   UNL     1       2.339  -3.056   1.593  0.00  0.00    -0.247 OA
BRANCH  24  26
ATOM     26  O   UNL     1       4.127  -2.083   2.452  0.00  0.00    -0.466 OA
ATOM     27  C   UNL     1       3.996  -2.943   3.615  0.00  0.00    +0.280 C 
ENDBRANCH  24  26
ENDBRANCH  17  24
BRANCH  17  28
ATOM     28  O   UNL     1       4.692  -1.333  -0.142  0.00  0.00    -0.374 OA
ATOM     29  H   UNL     1       5.272  -0.948   0.530  0.00  0.00    +0.211 HD
ENDBRANCH  17  28
BRANCH  12  30
ATOM     30  O   UNL     1       0.640  -4.732  -5.586  0.00  0.00    -0.495 OA
ATOM     31  C   UNL     1      -0.404  -4.461  -6.523  0.00  0.00    +0.277 C 
ENDBRANCH  12  30
BRANCH   1  32
ATOM     32  C   UNL     1       0.875  -0.215   1.756  0.00  0.00    +0.012 C 
BRANCH  32  33
ATOM     33  C   UNL     1       1.485   0.587   2.908  0.00  0.00    +0.001 C 
BRANCH  33  35
ATOM     34  C   UNL     1       1.162   1.332   5.271  0.00  0.00    +0.004 C 
ATOM     35  C   UNL     1       0.552   0.530   4.119  0.00  0.00    -0.003 C 
ENDBRANCH  33  35
ENDBRANCH  32  33
ENDBRANCH   1  32
TORSDOF 8
