REMARK  Name = ZINC39669460
REMARK  7 active torsions:
REMARK  status: ('A' for Active; 'I' for Inactive)
REMARK    1  A    between atoms: C_1  and  C_2
REMARK    2  A    between atoms: C_2  and  C_3
REMARK    3  A    between atoms: C_3  and  C_5
REMARK    4  A    between atoms: C_3  and  C_11
REMARK    5  A    between atoms: C_15  and  C_24
REMARK    6  A    between atoms: N_26  and  C_27
REMARK    7  A    between atoms: C_27  and  C_28
REMARK                            x       y       z     vdW  Elec       q    Type
REMARK                         _______ _______ _______ _____ _____    ______ ____
ROOT
ATOM      1  C   UNL     1       0.836  -2.171   1.177  0.00  0.00    +0.223 C 
ATOM      2  O   UNL     1       0.405  -2.883   2.059  0.00  0.00    -0.275 OA
ATOM      3  N   UNL     1       1.528  -2.709   0.153  0.00  0.00    -0.300 N 
ATOM      4  C   UNL     1       2.133  -2.007  -1.003  0.00  0.00    +0.121 C 
ATOM      5  C   UNL     1       3.483  -2.723  -1.232  0.00  0.00    +0.100 C 
ATOM      6  C   UNL     1       3.294  -4.121  -0.619  0.00  0.00    -0.004 C 
ATOM      7  C   UNL     1       1.862  -4.137  -0.067  0.00  0.00    +0.115 C 
ATOM      8  C   UNL     1       3.461  -5.194  -1.691  0.00  0.00    -0.010 C 
ATOM      9  C   UNL     1       3.326  -6.577  -1.046  0.00  0.00    -0.082 C 
ATOM     10  N   UNL     1       4.348  -6.735  -0.005  0.00  0.00    +0.379 N 
ATOM     11  C   UNL     1       4.125  -5.758   1.068  0.00  0.00    -0.082 C 
ATOM     12  C   UNL     1       4.293  -4.341   0.513  0.00  0.00    -0.010 C 
ATOM     13  H   UNL     1       4.298  -7.668   0.376  0.00  0.00    -0.086 HD
ATOM     14  H   UNL     1       5.262  -6.588  -0.407  0.00  0.00    -0.086 HD
ENDROOT
BRANCH   5  15
ATOM     15  C   UNL     1       3.777  -2.829  -2.706  0.00  0.00    +0.218 C 
ATOM     16  O   UNL     1       2.866  -2.920  -3.502  0.00  0.00    -0.275 OA
ATOM     17  N   UNL     1       5.053  -2.823  -3.140  0.00  0.00    -0.315 N 
ATOM     18  H   UNL     1       5.782  -2.750  -2.504  0.00  0.00    +0.149 HD
BRANCH  17  19
ATOM     19  C   UNL     1       5.340  -2.925  -4.574  0.00  0.00    +0.109 C 
BRANCH  19  20
ATOM     20  C   UNL     1       6.853  -2.895  -4.795  0.00  0.00    +0.024 C 
ATOM     21  C   UNL     1       7.150  -2.878  -6.296  0.00  0.00    +0.008 C 
ATOM     22  C   UNL     1       8.663  -2.814  -6.518  0.00  0.00    +0.019 C 
ATOM     23  C   UNL     1       9.317  -4.059  -5.910  0.00  0.00    +0.108 C 
ATOM     24  N   UNL     1       8.918  -4.161  -4.499  0.00  0.00    -0.299 N 
ATOM     25  C   UNL     1       7.487  -4.140  -4.166  0.00  0.00    +0.113 C 
ATOM     26  C   UNL     1       9.872  -4.276  -3.503  0.00  0.00    +0.218 A 
ATOM     27  N   UNL     1       9.480  -4.372  -2.241  0.00  0.00    -0.223 NA
ATOM     28  C   UNL     1      10.366  -4.483  -1.265  0.00  0.00    +0.116 A 
ATOM     29  C   UNL     1      11.717  -4.499  -1.576  0.00  0.00    +0.039 A 
ATOM     30  C   UNL     1      12.091  -4.396  -2.907  0.00  0.00    +0.116 A 
ATOM     31  N   UNL     1      11.155  -4.293  -3.835  0.00  0.00    -0.223 NA
ENDBRANCH  19  20
ENDBRANCH  17  19
ENDBRANCH   5  15
BRANCH   1  32
ATOM     32  C   UNL     1       0.597  -0.684   1.225  0.00  0.00    +0.105 C 
BRANCH  32  33
ATOM     33  C   UNL     1      -0.195  -0.342   2.461  0.00  0.00    -0.036 A 
ATOM     34  C   UNL     1      -1.449  -0.893   2.652  0.00  0.00    +0.004 A 
ATOM     35  C   UNL     1      -2.175  -0.579   3.786  0.00  0.00    +0.000 A 
ATOM     36  C   UNL     1      -1.648   0.284   4.728  0.00  0.00    +0.000 A 
ATOM     37  C   UNL     1      -0.395   0.834   4.537  0.00  0.00    +0.000 A 
ATOM     38  C   UNL     1       0.334   0.517   3.405  0.00  0.00    +0.004 A 
ENDBRANCH  32  33
BRANCH  32  40
ATOM     39  C   UNL     1      -0.319   1.272  -0.031  0.00  0.00    +0.005 C 
ATOM     40  C   UNL     1      -0.185  -0.252  -0.018  0.00  0.00    +0.014 C 
ENDBRANCH  32  40
ENDBRANCH   1  32
TORSDOF 6
