REMARK  Name = ZINC38975672
REMARK  7 active torsions:
REMARK  status: ('A' for Active; 'I' for Inactive)
REMARK    1  A    between atoms: C_1  and  C_2
REMARK    2  A    between atoms: C_5  and  N_9
REMARK    3  A    between atoms: C_7  and  C_8
REMARK    4  A    between atoms: N_9  and  C_10
REMARK    5  A    between atoms: C_12  and  C_21
REMARK    6  A    between atoms: C_26  and  O_33
REMARK    7  A    between atoms: O_33  and  C_34
REMARK                            x       y       z     vdW  Elec       q    Type
REMARK                         _______ _______ _______ _____ _____    ______ ____
ROOT
ATOM      1  C   UNL     1      -0.265  -5.095  -1.177  0.00  0.00    +0.188 C 
ATOM      2  C   UNL     1       0.858  -6.144  -1.268  0.00  0.00    +0.135 C 
ATOM      3  N   UNL     1       0.154  -7.397  -1.558  0.00  0.00    -0.366 N 
ATOM      4  C   UNL     1      -1.144  -7.186  -1.635  0.00  0.00    +0.100 C 
ATOM      5  N   UNL     1      -1.490  -5.873  -1.430  0.00  0.00    -0.272 N 
ATOM      6  C   UNL     1      -2.794  -5.474  -1.476  0.00  0.00    +0.078 C 
ATOM      7  C   UNL     1      -3.781  -6.358  -1.726  0.00  0.00    +0.015 C 
ATOM      8  C   UNL     1      -3.474  -7.712  -1.944  0.00  0.00    +0.005 C 
ATOM      9  C   UNL     1      -2.176  -8.131  -1.899  0.00  0.00    +0.042 C 
ATOM     10  H   UNL     1       0.583  -8.259  -1.677  0.00  0.00    +0.161 HD
ENDROOT
BRANCH   2  11
ATOM     11  C   UNL     1       1.608  -6.243   0.062  0.00  0.00    +0.124 C 
ATOM     12  C   UNL     1       2.195  -4.879   0.368  0.00  0.00    -0.002 C 
ATOM     13  C   UNL     1       3.546  -4.804   0.535  0.00  0.00    -0.003 A 
ATOM     14  C   UNL     1       4.194  -3.526   0.832  0.00  0.00    +0.055 A 
ATOM     15  C   UNL     1       5.546  -3.498   0.991  0.00  0.00    +0.121 A 
ATOM     16  C   UNL     1       6.316  -4.662   0.877  0.00  0.00    +0.047 A 
ATOM     17  C   UNL     1       5.771  -5.875   0.603  0.00  0.00    +0.027 A 
ATOM     18  C   UNL     1       4.382  -6.011   0.420  0.00  0.00    +0.041 A 
ATOM     19  N   UNL     1       3.861  -7.209   0.152  0.00  0.00    -0.284 N 
ATOM     20  C   UNL     1       2.568  -7.408  -0.032  0.00  0.00    +0.226 C 
ATOM     21  O   UNL     1       2.151  -8.525  -0.274  0.00  0.00    -0.275 OA
ATOM     22  H   UNL     1       4.460  -7.969   0.088  0.00  0.00    +0.155 HD
BRANCH  15  23
ATOM     23  O   UNL     1       6.161  -2.317   1.267  0.00  0.00    -0.495 OA
ATOM     24  C   UNL     1       7.581  -2.346   1.424  0.00  0.00    +0.277 C 
ENDBRANCH  15  23
ENDBRANCH   2  11
BRANCH   1  25
ATOM     25  N   UNL     1      -0.302  -4.494   0.158  0.00  0.00    -0.324 N 
ATOM     26  H   UNL     1      -0.141  -5.042   0.941  0.00  0.00    +0.148 HD
BRANCH  25  31
ATOM     27  C   UNL     1      -1.389   1.041   0.745  0.00  0.00    +0.044 C 
ATOM     28  C   UNL     1      -1.100  -0.430   0.589  0.00  0.00    -0.047 A 
ATOM     29  C   UNL     1      -1.208  -1.026  -0.655  0.00  0.00    +0.005 A 
ATOM     30  C   UNL     1      -0.944  -2.373  -0.801  0.00  0.00    +0.023 A 
ATOM     31  C   UNL     1      -0.569  -3.130   0.302  0.00  0.00    +0.029 A 
ATOM     32  C   UNL     1      -0.462  -2.528   1.549  0.00  0.00    +0.026 A 
ATOM     33  C   UNL     1      -0.722  -1.179   1.688  0.00  0.00    -0.046 A 
ATOM     34  C   UNL     1      -0.600  -0.523   3.039  0.00  0.00    +0.044 C 
ENDBRANCH  25  31
ENDBRANCH   1  25
TORSDOF 4
