REMARK  Name = ZINC11538518
REMARK  11 active torsions:
REMARK  status: ('A' for Active; 'I' for Inactive)
REMARK    1  A    between atoms: C_1  and  C_2
REMARK    2  A    between atoms: C_2  and  C_3
REMARK    3  A    between atoms: C_3  and  C_5
REMARK    4  A    between atoms: C_3  and  C_6
REMARK    5  A    between atoms: C_9  and  N_12
REMARK    6  A    between atoms: C_22  and  S_23
REMARK    7  A    between atoms: S_23  and  C_24
REMARK    8  A    between atoms: C_24  and  C_25
REMARK    9  A    between atoms: N_27  and  C_28
REMARK   10  A    between atoms: C_33  and  C_34
REMARK   11  A    between atoms: C_33  and  N_68
REMARK                            x       y       z     vdW  Elec       q    Type
REMARK                         _______ _______ _______ _____ _____    ______ ____
ROOT
ATOM      1  N   UNL     1      -2.893   2.509   7.165  0.00  0.00    -0.255 N 
ATOM      2  C   UNL     1      -3.435   1.543   7.943  0.00  0.00    +0.267 A 
ATOM      3  O   UNL     1      -3.312   0.365   7.663  0.00  0.00    -0.267 OA
ATOM      4  C   UNL     1      -4.172   1.969   9.140  0.00  0.00    +0.065 A 
ATOM      5  C   UNL     1      -4.763   1.050  10.006  0.00  0.00    +0.015 A 
ATOM      6  C   UNL     1      -5.443   1.500  11.104  0.00  0.00    +0.001 A 
ATOM      7  C   UNL     1      -5.550   2.860  11.364  0.00  0.00    +0.002 A 
ATOM      8  C   UNL     1      -4.981   3.782  10.532  0.00  0.00    +0.028 A 
ATOM      9  C   UNL     1      -4.279   3.354   9.401  0.00  0.00    +0.079 A 
ATOM     10  N   UNL     1      -3.700   4.232   8.550  0.00  0.00    -0.223 NA
ATOM     11  C   UNL     1      -3.044   3.829   7.490  0.00  0.00    +0.177 A 
ENDROOT
BRANCH   1  15
ATOM     12  C   UNL     1      -0.762   1.455   3.742  0.00  0.00    -0.044 A 
ATOM     13  C   UNL     1      -2.124   1.679   3.665  0.00  0.00    +0.006 A 
ATOM     14  C   UNL     1      -2.834   2.023   4.799  0.00  0.00    +0.026 A 
ATOM     15  C   UNL     1      -2.177   2.154   6.015  0.00  0.00    +0.052 A 
ATOM     16  C   UNL     1      -0.808   1.933   6.088  0.00  0.00    +0.026 A 
ATOM     17  C   UNL     1      -0.104   1.584   4.952  0.00  0.00    +0.006 A 
BRANCH  12  18
ATOM     18  C   UNL     1       0.009   1.075   2.504  0.00  0.00    +0.016 C 
ATOM     19  C   UNL     1      -0.131   2.181   1.457  0.00  0.00    +0.012 C 
BRANCH  18  21
ATOM     20  C   UNL     1       0.315  -0.685   0.758  0.00  0.00    +0.004 C 
ATOM     21  C   UNL     1      -0.545  -0.235   1.940  0.00  0.00    +0.004 C 
ENDBRANCH  18  21
ENDBRANCH  12  18
ENDBRANCH   1  15
BRANCH  11  22
ATOM     22  S   UNL     1      -2.322   5.042   6.436  0.00  0.00    -0.078 S 
BRANCH  22  23
ATOM     23  C   UNL     1      -2.813   6.549   7.309  0.00  0.00    +0.173 C 
BRANCH  23  24
ATOM     24  C   UNL     1      -2.291   7.753   6.568  0.00  0.00    +0.224 C 
ATOM     25  O   UNL     1      -1.649   7.605   5.549  0.00  0.00    -0.275 OA
ATOM     26  N   UNL     1      -2.536   8.992   7.036  0.00  0.00    -0.312 N 
ATOM     27  H   UNL     1      -3.049   9.110   7.851  0.00  0.00    +0.149 HD
BRANCH  26  28
ATOM     28  C   UNL     1      -2.028  10.162   6.315  0.00  0.00    +0.069 C 
ATOM     29  C   UNL     1      -0.589  10.448   6.754  0.00  0.00    +0.003 C 
ATOM     30  C   UNL     1      -0.085  11.706   6.044  0.00  0.00    -0.077 C 
ATOM     31  C   UNL     1      -2.330  12.609   5.926  0.00  0.00    -0.077 C 
ATOM     32  C   UNL     1      -2.901  11.378   6.633  0.00  0.00    +0.003 C 
ATOM     33  N   UNL     1      -0.953  12.845   6.410  0.00  0.00    +0.380 N 
ATOM     34  H   UNL     1      -0.971  12.935   7.433  0.00  0.00    -0.082 HD
BRANCH  33  35
ATOM     35  C   UNL     1      -0.420  14.094   5.827  0.00  0.00    -0.082 C 
ATOM     36  C   UNL     1       1.081  14.179   6.112  0.00  0.00    -0.017 C 
ENDBRANCH  33  35
ENDBRANCH  26  28
ENDBRANCH  23  24
ENDBRANCH  22  23
ENDBRANCH  11  22
TORSDOF 8
