REMARK  Name = ZINC39467134
REMARK  8 active torsions:
REMARK  status: ('A' for Active; 'I' for Inactive)
REMARK    1  A    between atoms: C_1  and  C_2
REMARK    2  A    between atoms: C_2  and  C_3
REMARK    3  A    between atoms: C_2  and  S_4
REMARK    4  A    between atoms: S_4  and  C_7
REMARK    5  A    between atoms: C_19  and  C_20
REMARK    6  A    between atoms: C_25  and  O_26
REMARK    7  A    between atoms: P_29  and  C_32
REMARK    8  A    between atoms: C_37  and  O_38
REMARK                            x       y       z     vdW  Elec       q    Type
REMARK                         _______ _______ _______ _____ _____    ______ ____
ROOT
ATOM      1  C   UNL     1      -1.502  -2.389   0.303  0.00  0.00    +0.092 C 
ATOM      2  C   UNL     1      -2.055  -2.956   1.369  0.00  0.00    +0.003 C 
ATOM      3  C   UNL     1      -1.878  -4.432   1.604  0.00  0.00    +0.006 C 
ATOM      4  C   UNL     1      -2.072  -4.768   3.076  0.00  0.00    -0.046 C 
ATOM      5  N   UNL     1      -1.068  -4.091   3.913  0.00  0.00    +0.398 N 
ATOM      6  C   UNL     1       0.281  -4.519   3.535  0.00  0.00    -0.020 C 
ATOM      7  C   UNL     1       0.552  -4.178   2.065  0.00  0.00    -0.003 C 
ATOM      8  C   UNL     1      -0.468  -4.856   1.182  0.00  0.00    +0.016 C 
ATOM      9  C   UNL     1      -0.224  -4.396  -0.235  0.00  0.00    -0.013 C 
ATOM     10  C   UNL     1      -0.732  -3.221  -0.647  0.00  0.00    +0.006 C 
ATOM     11  C   UNL     1       1.353  -3.799   4.363  0.00  0.00    +0.157 C 
ATOM     12  O   UNL     1       1.182  -4.121   5.755  0.00  0.00    -0.316 OA
ATOM     13  P   UNL     1      -0.305  -3.946   6.392  0.00  0.00    +0.291 P 
ATOM     14  O   UNL     1      -0.558  -2.526   6.722  0.00  0.00    -0.269 OA
ATOM     15  N   UNL     1      -1.346  -4.459   5.212  0.00  0.00    -0.288 NA
ATOM     16  H   UNL     1      -2.126  -4.995   5.424  0.00  0.00    +0.111 HD
ATOM     17  H   UNL     1      -1.161  -3.091   3.815  0.00  0.00    -0.055 HD
ENDROOT
BRANCH  10  18
ATOM     18  C   UNL     1      -0.518  -2.760  -2.041  0.00  0.00    +0.025 A 
ATOM     19  C   UNL     1      -1.562  -2.811  -2.962  0.00  0.00    +0.012 A 
ATOM     20  C   UNL     1      -1.358  -2.380  -4.258  0.00  0.00    +0.001 A 
ATOM     21  C   UNL     1      -0.120  -1.897  -4.645  0.00  0.00    +0.004 A 
ATOM     22  C   UNL     1       0.922  -1.843  -3.739  0.00  0.00    +0.046 A 
ATOM     23  C   UNL     1       0.730  -2.266  -2.433  0.00  0.00    +0.125 A 
BRANCH  23  24
ATOM     24  O   UNL     1       1.752  -2.208  -1.540  0.00  0.00    -0.506 OA
ATOM     25  H   UNL     1       2.297  -3.006  -1.514  0.00  0.00    +0.292 HD
ENDBRANCH  23  24
ENDBRANCH  10  18
BRANCH  13  26
ATOM     26  C   UNL     1      -0.479  -4.976   7.875  0.00  0.00    +0.091 A 
ATOM     27  C   UNL     1      -0.936  -6.275   7.765  0.00  0.00    +0.018 A 
ATOM     28  C   UNL     1      -1.069  -7.060   8.895  0.00  0.00    +0.001 A 
ATOM     29  C   UNL     1      -0.746  -6.548  10.138  0.00  0.00    +0.004 A 
ATOM     30  C   UNL     1      -0.288  -5.250  10.254  0.00  0.00    +0.046 A 
ATOM     31  C   UNL     1      -0.148  -4.461   9.121  0.00  0.00    +0.131 A 
BRANCH  31  32
ATOM     32  O   UNL     1       0.307  -3.185   9.231  0.00  0.00    -0.506 OA
ATOM     33  H   UNL     1      -0.391  -2.529   9.364  0.00  0.00    +0.292 HD
ENDBRANCH  31  32
ENDBRANCH  13  26
BRANCH   1  34
ATOM     34  S   UNL     1      -1.689  -0.660   0.019  0.00  0.00    -0.001 S 
ATOM     35  O   UNL     1      -2.484  -0.199   1.103  0.00  0.00    -0.169 OA
ATOM     36  O   UNL     1      -2.160  -0.560  -1.318  0.00  0.00    -0.169 OA
BRANCH  34  38
ATOM     37  C   UNL     1      -0.048   1.524  -0.124  0.00  0.00    +0.032 C 
ATOM     38  C   UNL     1      -0.011   0.018   0.143  0.00  0.00    +0.130 C 
ATOM     39  C   UNL     1       0.540  -0.238   1.547  0.00  0.00    +0.032 C 
ENDBRANCH  34  38
ENDBRANCH   1  34
TORSDOF 6
