REMARK  Name = ZINC04577580
REMARK  4 active torsions:
REMARK  status: ('A' for Active; 'I' for Inactive)
REMARK    1  A    between atoms: C_1  and  C_2
REMARK    2  A    between atoms: N_13  and  N_14
REMARK    3  A    between atoms: N_14  and  C_15
REMARK    4  A    between atoms: C_18  and  N_21
REMARK                            x       y       z     vdW  Elec       q    Type
REMARK                         _______ _______ _______ _____ _____    ______ ____
ROOT
ATOM      1  C   UNL     1      -0.018   1.503   0.010  0.00  0.00    +0.045 C 
ATOM      2  C   UNL     1       0.002  -0.004   0.002  0.00  0.00    -0.036 A 
ATOM      3  C   UNL     1       0.006  -0.687  -1.198  0.00  0.00    +0.016 A 
ATOM      4  C   UNL     1       0.025  -2.077  -1.200  0.00  0.00    +0.028 A 
ATOM      5  C   UNL     1       0.041  -2.788   0.007  0.00  0.00    +0.044 A 
ATOM      6  C   UNL     1       0.037  -2.084   1.206  0.00  0.00    +0.039 A 
ATOM      7  C   UNL     1       0.023  -0.702   1.198  0.00  0.00    +0.023 A 
ATOM      8 BR   UNL     1       0.025   0.244   2.836  0.00  0.00    -0.050 Br
ATOM      9  N   UNL     1       0.059  -4.151  -0.264  0.00  0.00    -0.280 N 
ATOM     10  C   UNL     1       0.055  -4.388  -1.586  0.00  0.00    +0.269 C 
ATOM     11  O   UNL     1       0.069  -5.484  -2.117  0.00  0.00    -0.268 OA
ATOM     12  C   UNL     1       0.034  -3.090  -2.281  0.00  0.00    +0.152 C 
ATOM     13  N   UNL     1       0.024  -2.876  -3.578  0.00  0.00    -0.177 NA
ATOM     14  H   UNL     1       0.072  -4.843   0.416  0.00  0.00    +0.155 HD
ENDROOT
BRANCH  13  15
ATOM     15  N   UNL     1       0.034  -3.874  -4.396  0.00  0.00    -0.237 N 
ATOM     16  H   UNL     1       0.049  -4.781  -4.054  0.00  0.00    +0.174 HD
BRANCH  15  17
ATOM     17  C   UNL     1       0.024  -3.647  -5.772  0.00  0.00    +0.048 A 
ATOM     18  C   UNL     1       0.009  -2.347  -6.264  0.00  0.00    +0.027 A 
ATOM     19  C   UNL     1      -0.001  -2.127  -7.627  0.00  0.00    +0.034 A 
ATOM     20  C   UNL     1       0.005  -3.197  -8.503  0.00  0.00    +0.126 A 
ATOM     21  C   UNL     1       0.019  -4.492  -8.017  0.00  0.00    +0.034 A 
ATOM     22  C   UNL     1       0.035  -4.720  -6.655  0.00  0.00    +0.027 A 
BRANCH  20  23
ATOM     23  N   UNL     1      -0.006  -2.957  -9.963  0.00  0.00    +0.056 N 
ATOM     24  O   UNL     1      -0.019  -1.825 -10.389  0.00  0.00    -0.126 OA
ATOM     25  O   UNL     1      -0.001  -3.891 -10.730  0.00  0.00    -0.126 OA
ENDBRANCH  20  23
ENDBRANCH  15  17
ENDBRANCH  13  15
TORSDOF 3
