REMARK  Name = ZINC09662193
REMARK  8 active torsions:
REMARK  status: ('A' for Active; 'I' for Inactive)
REMARK    1  A    between atoms: C_1  and  O_2
REMARK    2  A    between atoms: O_2  and  C_3
REMARK    3  A    between atoms: C_6  and  N_9
REMARK    4  A    between atoms: N_9  and  S_10
REMARK    5  A    between atoms: S_10  and  C_13
REMARK    6  A    between atoms: C_17  and  N_19
REMARK    7  A    between atoms: N_19  and  C_20
REMARK    8  A    between atoms: N_25  and  C_28
REMARK                            x       y       z     vdW  Elec       q    Type
REMARK                         _______ _______ _______ _____ _____    ______ ____
ROOT
ATOM      1  C   UNL     1       2.549  -5.123   4.381  0.00  0.00    +0.110 A 
ATOM      2  C   UNL     1       1.395  -5.027   3.624  0.00  0.00    +0.029 A 
ATOM      3  C   UNL     1       1.159  -5.926   2.601  0.00  0.00    +0.004 A 
ATOM      4  C   UNL     1       2.075  -6.925   2.332  0.00  0.00    +0.023 A 
ATOM      5  C   UNL     1       3.235  -7.024   3.090  0.00  0.00    +0.030 A 
ATOM      6  C   UNL     1       3.471  -6.115   4.114  0.00  0.00    +0.051 A 
ENDROOT
BRANCH   1   7
ATOM      7  S   UNL     1       2.844  -3.974   5.684  0.00  0.00    +0.072 S 
ATOM      8  O   UNL     1       3.831  -4.558   6.524  0.00  0.00    -0.150 OA
ATOM      9  O   UNL     1       1.570  -3.575   6.170  0.00  0.00    -0.150 OA
BRANCH   7  10
ATOM     10  N   UNL     1       3.534  -2.631   5.005  0.00  0.00    -0.216 N 
ATOM     11  H   UNL     1       3.083  -1.774   5.060  0.00  0.00    +0.174 HD
BRANCH  10  15
ATOM     12  C   UNL     1       7.209  -2.930   3.062  0.00  0.00    +0.120 A 
ATOM     13  C   UNL     1       6.166  -2.236   2.468  0.00  0.00    +0.047 A 
ATOM     14  C   UNL     1       4.948  -2.136   3.111  0.00  0.00    +0.028 A 
ATOM     15  C   UNL     1       4.768  -2.732   4.353  0.00  0.00    +0.048 A 
ATOM     16  C   UNL     1       5.813  -3.426   4.947  0.00  0.00    +0.028 A 
ATOM     17  C   UNL     1       7.029  -3.530   4.300  0.00  0.00    +0.047 A 
BRANCH  12  19
ATOM     18  C   UNL     1       8.524  -2.386   1.157  0.00  0.00    +0.277 C 
ATOM     19  O   UNL     1       8.409  -3.028   2.428  0.00  0.00    -0.495 OA
ENDBRANCH  12  19
ENDBRANCH  10  15
ENDBRANCH   7  10
ENDBRANCH   1   7
BRANCH   5  20
ATOM     20  N   UNL     1       4.163  -8.032   2.821  0.00  0.00    -0.332 N 
ATOM     21  H   UNL     1       4.973  -8.100   3.351  0.00  0.00    +0.147 HD
BRANCH  20  22
ATOM     22  C   UNL     1       3.915  -8.986   1.737  0.00  0.00    +0.166 C 
ATOM     23  C   UNL     1       5.238  -9.609   1.248  0.00  0.00    +0.128 C 
ATOM     24  C   UNL     1       5.062 -11.085   1.530  0.00  0.00    +0.228 C 
ATOM     25  O   UNL     1       5.880 -11.947   1.295  0.00  0.00    -0.275 OA
ATOM     26  N   UNL     1       3.859 -11.287   2.082  0.00  0.00    -0.209 N 
ATOM     27  C   UNL     1       3.126 -10.174   2.244  0.00  0.00    +0.247 C 
ATOM     28  O   UNL     1       2.012 -10.126   2.720  0.00  0.00    -0.273 OA
BRANCH  26  29
ATOM     29  C   UNL     1       3.400 -12.557   2.459  0.00  0.00    +0.044 A 
ATOM     30  C   UNL     1       2.341 -13.143   1.780  0.00  0.00    +0.025 A 
ATOM     31  C   UNL     1       1.891 -14.395   2.153  0.00  0.00    +0.022 A 
ATOM     32  C   UNL     1       2.496 -15.065   3.202  0.00  0.00    +0.041 A 
ATOM     33  C   UNL     1       3.552 -14.482   3.880  0.00  0.00    +0.022 A 
ATOM     34  C   UNL     1       4.009 -13.233   3.507  0.00  0.00    +0.025 A 
ATOM     35 CL   UNL     1       1.928 -16.638   3.668  0.00  0.00    -0.084 Cl
ENDBRANCH  26  29
ENDBRANCH  20  22
ENDBRANCH   5  20
TORSDOF 7
