REMARK  Name = ZINC01111177
REMARK  1 active torsions:
REMARK  status: ('A' for Active; 'I' for Inactive)
REMARK    1  A    between atoms: C_4  and  C_8
REMARK                            x       y       z     vdW  Elec       q    Type
REMARK                         _______ _______ _______ _____ _____    ______ ____
ROOT
ATOM      1  C   UNL     1       4.832   4.290   0.011  0.00  0.00    +0.062 C 
ATOM      2  C   UNL     1       4.559   5.696   0.551  0.00  0.00    +0.109 C 
ATOM      3  C   UNL     1       3.389   6.299  -0.182  0.00  0.00    +0.218 C 
ATOM      4  O   UNL     1       3.374   7.490  -0.415  0.00  0.00    -0.275 OA
ATOM      5  N   UNL     1       2.361   5.528  -0.583  0.00  0.00    -0.285 N 
ATOM      6  C   UNL     1       2.349   4.159  -0.282  0.00  0.00    +0.041 A 
ATOM      7  C   UNL     1       3.543   3.508   0.001  0.00  0.00    -0.015 A 
ATOM      8  C   UNL     1       3.545   2.155   0.272  0.00  0.00    +0.055 A 
ATOM      9  C   UNL     1       2.354   1.442   0.271  0.00  0.00    +0.162 A 
ATOM     10  C   UNL     1       1.156   2.094   0.002  0.00  0.00    +0.164 A 
ATOM     11  C   UNL     1       1.157   3.452  -0.278  0.00  0.00    +0.073 A 
ATOM     12  O   UNL     1      -0.017   1.415   0.010  0.00  0.00    -0.485 OA
ATOM     13  C   UNL     1       0.002  -0.004   0.002  0.00  0.00    +0.270 C 
ATOM     14  C   UNL     1       1.156  -0.556   0.825  0.00  0.00    +0.270 C 
ATOM     15  O   UNL     1       2.374   0.111   0.535  0.00  0.00    -0.485 OA
ATOM     16  H   UNL     1       1.626   5.920  -1.080  0.00  0.00    +0.155 HD
ENDROOT
BRANCH   1  20
ATOM     17  C   UNL     1       7.679   2.320   2.517  0.00  0.00    +0.018 A 
ATOM     18  C   UNL     1       7.960   2.519   1.179  0.00  0.00    +0.040 A 
ATOM     19  C   UNL     1       7.038   3.157   0.366  0.00  0.00    +0.127 A 
ATOM     20  C   UNL     1       5.836   3.595   0.895  0.00  0.00    -0.003 A 
ATOM     21  C   UNL     1       5.559   3.400   2.235  0.00  0.00    +0.022 A 
ATOM     22  C   UNL     1       6.479   2.759   3.045  0.00  0.00    +0.018 A 
ATOM     23 BR   UNL     1       6.096   2.487   4.877  0.00  0.00    -0.050 Br
ATOM     24  F   UNL     1       7.311   3.351  -0.943  0.00  0.00    -0.205 F 
ENDBRANCH   1  20
TORSDOF 1
