REMARK  Name = ZINC36589830
REMARK  7 active torsions:
REMARK  status: ('A' for Active; 'I' for Inactive)
REMARK    1  A    between atoms: C_1  and  C_2
REMARK    2  A    between atoms: C_4  and  C_17
REMARK    3  A    between atoms: C_5  and  C_16
REMARK    4  A    between atoms: N_6  and  C_7
REMARK    5  A    between atoms: C_10  and  O_14
REMARK    6  A    between atoms: O_14  and  C_15
REMARK    7  A    between atoms: C_27  and  C_29
REMARK                            x       y       z     vdW  Elec       q    Type
REMARK                         _______ _______ _______ _____ _____    ______ ____
ROOT
ATOM      1  C   UNL     1       0.041  -3.340  -1.427  0.00  0.00    +0.026 C 
ATOM      2  C   UNL     1      -0.650  -3.368  -2.621  0.00  0.00    +0.081 C 
ATOM      3  C   UNL     1      -0.760  -4.610  -3.434  0.00  0.00    +0.153 C 
ATOM      4  N   UNL     1      -0.814  -5.808  -2.913  0.00  0.00    -0.283 NA
ATOM      5  N   UNL     1      -0.800  -4.368  -4.824  0.00  0.00    -0.152 N 
ATOM      6  C   UNL     1      -1.226  -3.125  -5.242  0.00  0.00    +0.181 C 
ATOM      7  N   UNL     1      -1.513  -2.088  -4.495  0.00  0.00    -0.152 NA
ATOM      8  C   UNL     1      -1.326  -2.164  -3.160  0.00  0.00    +0.273 C 
ATOM      9  O   UNL     1      -1.698  -1.268  -2.419  0.00  0.00    -0.268 OA
ATOM     10  S   UNL     1      -1.252  -3.309  -7.005  0.00  0.00    -0.033 S 
ATOM     11  C   UNL     1      -0.606  -4.974  -7.078  0.00  0.00    +0.130 C 
ATOM     12  N   UNL     1      -0.461  -5.272  -5.809  0.00  0.00    -0.164 NA
ATOM     13  H   UNL     1      -0.886  -6.585  -3.488  0.00  0.00    +0.188 HD
ENDROOT
BRANCH   1  17
ATOM     14  C   UNL     1       0.908   1.558  -0.546  0.00  0.00    +0.064 C 
ATOM     15  C   UNL     1       0.651   0.082  -0.384  0.00  0.00    +0.022 A 
ATOM     16  C   UNL     1       0.488  -0.794  -1.389  0.00  0.00    +0.031 A 
ATOM     17  C   UNL     1       0.264  -2.106  -0.765  0.00  0.00    -0.003 A 
ATOM     18  C   UNL     1       0.315  -1.889   0.603  0.00  0.00    +0.028 A 
ATOM     19  N   UNL     1       0.553  -0.578   0.809  0.00  0.00    -0.317 N 
ATOM     20  C   UNL     1       0.141  -2.936   1.672  0.00  0.00    +0.064 C 
BRANCH  19  21
ATOM     21  C   UNL     1       0.677   0.024   2.070  0.00  0.00    +0.048 A 
ATOM     22  C   UNL     1       1.740  -0.313   2.898  0.00  0.00    +0.030 A 
ATOM     23  C   UNL     1       1.862   0.279   4.140  0.00  0.00    +0.049 A 
ATOM     24  C   UNL     1       0.924   1.211   4.560  0.00  0.00    +0.138 A 
ATOM     25  C   UNL     1      -0.138   1.548   3.732  0.00  0.00    +0.084 A 
ATOM     26  C   UNL     1      -0.258   0.960   2.488  0.00  0.00    +0.049 A 
ATOM     27 CL   UNL     1      -1.312   2.714   4.259  0.00  0.00    -0.080 Cl
BRANCH  24  28
ATOM     28  O   UNL     1       1.045   1.793   5.782  0.00  0.00    -0.494 OA
ATOM     29  C   UNL     1       2.163   1.399   6.581  0.00  0.00    +0.277 C 
ENDBRANCH  24  28
ENDBRANCH  19  21
ENDBRANCH   1  17
BRANCH  11  30
ATOM     30  C   UNL     1      -0.310  -5.805  -8.266  0.00  0.00    +0.009 A 
ATOM     31  C   UNL     1       0.190  -7.098  -8.110  0.00  0.00    +0.010 A 
ATOM     32  C   UNL     1       0.463  -7.868  -9.222  0.00  0.00    +0.001 A 
ATOM     33  C   UNL     1       0.243  -7.360 -10.489  0.00  0.00    +0.000 A 
ATOM     34  C   UNL     1      -0.252  -6.078 -10.651  0.00  0.00    +0.001 A 
ATOM     35  C   UNL     1      -0.534  -5.301  -9.547  0.00  0.00    +0.010 A 
ENDBRANCH  11  30
TORSDOF 4
