REMARK  Name = ZINC40825097
REMARK  9 active torsions:
REMARK  status: ('A' for Active; 'I' for Inactive)
REMARK    1  A    between atoms: C_1  and  C_2
REMARK    2  A    between atoms: C_6  and  C_7
REMARK    3  A    between atoms: N_9  and  C_10
REMARK    4  A    between atoms: C_15  and  O_16
REMARK    5  A    between atoms: O_16  and  C_17
REMARK    6  A    between atoms: N_23  and  N_24
REMARK    7  A    between atoms: N_24  and  C_25
REMARK    8  A    between atoms: C_25  and  N_27
REMARK    9  A    between atoms: N_27  and  C_28
REMARK                            x       y       z     vdW  Elec       q    Type
REMARK                         _______ _______ _______ _____ _____    ______ ____
ROOT
ATOM      1  C   UNL     1       0.430   1.938  -0.374  0.00  0.00    +0.048 C 
ATOM      2  C   UNL     1       0.395   0.454  -0.119  0.00  0.00    +0.009 A 
ATOM      3  C   UNL     1       0.121  -0.553  -1.053  0.00  0.00    +0.042 A 
ATOM      4  C   UNL     1       0.194  -1.758  -0.394  0.00  0.00    +0.115 A 
ATOM      5  O   UNL     1       0.500  -1.513   0.878  0.00  0.00    -0.454 OA
ATOM      6  C   UNL     1       0.632  -0.181   1.069  0.00  0.00    +0.193 A 
ATOM      7  C   UNL     1      -0.049  -3.081  -1.075  0.00  0.00    +0.075 C 
ATOM      8  C   UNL     1      -0.853  -2.853  -2.358  0.00  0.00    +0.014 C 
ATOM      9  C   UNL     1      -0.176  -1.798  -3.239  0.00  0.00    +0.058 C 
ATOM     10  C   UNL     1      -0.198  -0.470  -2.496  0.00  0.00    +0.070 C 
ATOM     11  N   UNL     1      -0.477   0.652  -3.083  0.00  0.00    -0.185 NA
ENDROOT
BRANCH   6  12
ATOM     12  C   UNL     1       0.968   0.474   2.337  0.00  0.00    +0.284 C 
ATOM     13  O   UNL     1       1.057   1.687   2.392  0.00  0.00    -0.266 OA
ATOM     14  N   UNL     1       1.179  -0.267   3.443  0.00  0.00    -0.276 N 
ATOM     15  H   UNL     1       1.050  -1.228   3.415  0.00  0.00    +0.155 HD
BRANCH  14  16
ATOM     16  C   UNL     1       1.584   0.350   4.633  0.00  0.00    +0.077 A 
ATOM     17  C   UNL     1       1.156   1.636   4.931  0.00  0.00    +0.047 A 
ATOM     18  C   UNL     1       1.558   2.243   6.106  0.00  0.00    +0.043 A 
ATOM     19  C   UNL     1       2.386   1.571   6.988  0.00  0.00    +0.024 A 
ATOM     20  C   UNL     1       2.816   0.289   6.697  0.00  0.00    +0.049 A 
ATOM     21  C   UNL     1       2.414  -0.328   5.524  0.00  0.00    +0.141 A 
ATOM     22 CL   UNL     1       1.022   3.852   6.478  0.00  0.00    -0.083 Cl
BRANCH  21  23
ATOM     23  O   UNL     1       2.833  -1.590   5.239  0.00  0.00    -0.493 OA
ATOM     24  C   UNL     1       3.682  -2.224   6.198  0.00  0.00    +0.277 C 
ENDBRANCH  21  23
ENDBRANCH  14  16
ENDBRANCH   6  12
BRANCH  11  25
ATOM     25  N   UNL     1      -0.772   0.671  -4.453  0.00  0.00    -0.218 N 
ATOM     26  H   UNL     1      -0.768  -0.155  -4.962  0.00  0.00    +0.176 HD
BRANCH  25  27
ATOM     27  C   UNL     1      -1.062   1.837  -5.064  0.00  0.00    +0.154 C 
ATOM     28  S   UNL     1      -1.422   1.860  -6.737  0.00  0.00    -0.017 S 
BRANCH  27  29
ATOM     29  N   UNL     1      -1.068   2.985  -4.357  0.00  0.00    -0.296 N 
ATOM     30  H   UNL     1      -0.784   2.985  -3.430  0.00  0.00    +0.154 HD
BRANCH  29  31
ATOM     31  C   UNL     1      -1.485   4.175  -4.960  0.00  0.00    +0.033 A 
ATOM     32  C   UNL     1      -2.578   4.176  -5.818  0.00  0.00    +0.023 A 
ATOM     33  C   UNL     1      -2.986   5.353  -6.413  0.00  0.00    +0.002 A 
ATOM     34  C   UNL     1      -2.310   6.531  -6.155  0.00  0.00    +0.000 A 
ATOM     35  C   UNL     1      -1.221   6.534  -5.302  0.00  0.00    +0.002 A 
ATOM     36  C   UNL     1      -0.811   5.361  -4.699  0.00  0.00    +0.023 A 
ENDBRANCH  29  31
ENDBRANCH  27  29
ENDBRANCH  25  27
ENDBRANCH  11  25
TORSDOF 7
