REMARK  Name = ZINC17155023
REMARK  9 active torsions:
REMARK  status: ('A' for Active; 'I' for Inactive)
REMARK    1  A    between atoms: C_1  and  O_2
REMARK    2  A    between atoms: O_2  and  C_3
REMARK    3  A    between atoms: C_6  and  C_11
REMARK    4  A    between atoms: C_7  and  O_9
REMARK    5  A    between atoms: O_9  and  C_10
REMARK    6  A    between atoms: N_15  and  C_25
REMARK    7  A    between atoms: N_17  and  C_18
REMARK    8  A    between atoms: C_25  and  C_26
REMARK    9  A    between atoms: C_26  and  C_27
REMARK                            x       y       z     vdW  Elec       q    Type
REMARK                         _______ _______ _______ _____ _____    ______ ____
ROOT
ATOM      1  C   UNL     1       1.523   0.037   6.105  0.00  0.00    +0.032 C 
ATOM      2  C   UNL     1       2.580  -0.815   6.142  0.00  0.00    +0.078 C 
ATOM      3  C   UNL     1       3.252  -1.422   7.304  0.00  0.00    +0.259 C 
ATOM      4  O   UNL     1       2.886  -1.192   8.442  0.00  0.00    -0.269 OA
ATOM      5  N   UNL     1       4.271  -2.228   7.056  0.00  0.00    -0.246 N 
ATOM      6  C   UNL     1       4.672  -2.475   5.762  0.00  0.00    +0.168 C 
ATOM      7  N   UNL     1       5.654  -3.241   5.342  0.00  0.00    -0.225 NA
ATOM      8  S   UNL     1       3.526  -1.508   4.793  0.00  0.00    -0.049 S 
ENDROOT
BRANCH   1  12
ATOM      9  C   UNL     1       0.348   1.802   2.431  0.00  0.00    +0.124 A 
ATOM     10  C   UNL     1       1.619   1.250   2.563  0.00  0.00    +0.046 A 
ATOM     11  C   UNL     1       2.005   0.677   3.753  0.00  0.00    +0.015 A 
ATOM     12  C   UNL     1       1.117   0.647   4.835  0.00  0.00    +0.018 A 
ATOM     13  C   UNL     1      -0.166   1.206   4.699  0.00  0.00    +0.131 A 
ATOM     14  C   UNL     1      -0.538   1.784   3.498  0.00  0.00    +0.091 A 
BRANCH   9  16
ATOM     15  C   UNL     1       0.938   2.357   0.197  0.00  0.00    +0.277 C 
ATOM     16  O   UNL     1      -0.024   2.366   1.253  0.00  0.00    -0.495 OA
ENDBRANCH   9  16
BRANCH  13  17
ATOM     17  O   UNL     1      -1.034   1.183   5.742  0.00  0.00    -0.494 OA
ATOM     18  C   UNL     1      -2.320   1.769   5.529  0.00  0.00    +0.277 C 
ENDBRANCH  13  17
ENDBRANCH   1  12
BRANCH   7  19
ATOM     19  C   UNL     1       5.902  -3.363   4.002  0.00  0.00    +0.067 A 
ATOM     20  C   UNL     1       4.847  -3.565   3.108  0.00  0.00    +0.028 A 
ATOM     21  C   UNL     1       5.103  -3.682   1.758  0.00  0.00    +0.002 A 
ATOM     22  C   UNL     1       6.403  -3.611   1.289  0.00  0.00    +0.000 A 
ATOM     23  C   UNL     1       7.454  -3.416   2.169  0.00  0.00    +0.002 A 
ATOM     24  C   UNL     1       7.211  -3.292   3.521  0.00  0.00    +0.028 A 
ENDBRANCH   7  19
BRANCH   5  25
ATOM     25  C   UNL     1       4.981  -2.863   8.169  0.00  0.00    +0.120 C 
BRANCH  25  26
ATOM     26  C   UNL     1       4.326  -4.207   8.492  0.00  0.00    +0.056 C 
BRANCH  26  27
ATOM     27  C   UNL     1       5.056  -4.860   9.637  0.00  0.00    -0.021 A 
ATOM     28  C   UNL     1       6.042  -5.767   9.542  0.00  0.00    +0.087 A 
ATOM     29  N   UNL     1       6.462  -6.132  10.792  0.00  0.00    -0.360 N 
ATOM     30  H   UNL     1       7.164  -6.775  10.978  0.00  0.00    +0.165 HD
ATOM     31  C   UNL     1       5.738  -5.452  11.746  0.00  0.00    +0.047 A 
ATOM     32  C   UNL     1       4.830  -4.621  11.064  0.00  0.00    +0.003 A 
ATOM     33  C   UNL     1       3.952  -3.811  11.785  0.00  0.00    +0.010 A 
ATOM     34  C   UNL     1       3.987  -3.819  13.152  0.00  0.00    +0.001 A 
ATOM     35  C   UNL     1       4.885  -4.633  13.829  0.00  0.00    +0.002 A 
ATOM     36  C   UNL     1       5.756  -5.446  13.137  0.00  0.00    +0.026 A 
ENDBRANCH  26  27
ENDBRANCH  25  26
ENDBRANCH   5  25
TORSDOF 7
