REMARK  Name = ZINC09291037
REMARK  8 active torsions:
REMARK  status: ('A' for Active; 'I' for Inactive)
REMARK    1  A    between atoms: C_4  and  C_7
REMARK    2  A    between atoms: C_7  and  O_8
REMARK    3  A    between atoms: O_8  and  C_9
REMARK    4  A    between atoms: C_12  and  C_15
REMARK    5  A    between atoms: C_22  and  N_36
REMARK    6  A    between atoms: C_23  and  C_34
REMARK    7  A    between atoms: C_24  and  C_26
REMARK    8  A    between atoms: C_31  and  O_32
REMARK                            x       y       z     vdW  Elec       q    Type
REMARK                         _______ _______ _______ _____ _____    ______ ____
ROOT
ATOM      1  C   UNL     1       9.005  -3.667   1.975  0.00  0.00    +0.100 A 
ATOM      2  C   UNL     1       9.933  -3.452   2.998  0.00  0.00    +0.054 A 
ATOM      3  C   UNL     1      10.976  -4.312   2.809  0.00  0.00    +0.223 A 
ATOM      4  N   UNL     1      10.713  -5.040   1.704  0.00  0.00    -0.246 N 
ATOM      5  H   UNL     1      11.280  -5.731   1.328  0.00  0.00    +0.192 HD
ATOM      6  N   UNL     1       9.471  -4.626   1.198  0.00  0.00    -0.171 NA
ATOM      7  O   UNL     1      12.048  -4.357   3.640  0.00  0.00    -0.423 OA
ATOM      8  C   UNL     1      11.946  -3.722   4.825  0.00  0.00    +0.200 C 
ATOM      9  C   UNL     1      10.966  -2.840   5.125  0.00  0.00    +0.098 C 
ATOM     10  C   UNL     1       9.881  -2.474   4.144  0.00  0.00    +0.105 C 
ENDROOT
BRANCH  10  11
ATOM     11  C   UNL     1      10.110  -1.076   3.629  0.00  0.00    +0.008 A 
ATOM     12  C   UNL     1      11.287  -0.764   2.976  0.00  0.00    +0.028 A 
ATOM     13  C   UNL     1      11.498   0.519   2.504  0.00  0.00    +0.041 A 
ATOM     14  C   UNL     1      10.530   1.492   2.685  0.00  0.00    +0.023 A 
ATOM     15  C   UNL     1       9.353   1.184   3.337  0.00  0.00    +0.047 A 
ATOM     16  C   UNL     1       9.137  -0.104   3.806  0.00  0.00    +0.121 A 
ATOM     17 CL   UNL     1      12.977   0.909   1.684  0.00  0.00    -0.084 Cl
BRANCH  16  18
ATOM     18  O   UNL     1       7.976  -0.410   4.443  0.00  0.00    -0.506 OA
ATOM     19  H   UNL     1       8.005  -0.275   5.400  0.00  0.00    +0.292 HD
ENDBRANCH  16  18
ENDBRANCH  10  11
BRANCH   1  23
ATOM     20  C   UNL     1       5.319  -1.605   1.466  0.00  0.00    +0.121 A 
ATOM     21  C   UNL     1       6.047  -2.006   0.355  0.00  0.00    +0.046 A 
ATOM     22  C   UNL     1       7.242  -2.675   0.517  0.00  0.00    +0.013 A 
ATOM     23  C   UNL     1       7.719  -2.947   1.798  0.00  0.00    +0.003 A 
ATOM     24  C   UNL     1       6.986  -2.542   2.912  0.00  0.00    +0.013 A 
ATOM     25  C   UNL     1       5.794  -1.870   2.744  0.00  0.00    +0.046 A 
BRANCH  20  26
ATOM     26  O   UNL     1       4.141  -0.946   1.304  0.00  0.00    -0.487 OA
BRANCH  26  27
ATOM     27  C   UNL     1       3.711  -0.707  -0.038  0.00  0.00    +0.264 C 
BRANCH  27  31
ATOM     28  C   UNL     1      -0.017   1.378   0.010  0.00  0.00    +0.000 A 
ATOM     29  C   UNL     1       1.171   2.086   0.002  0.00  0.00    +0.000 A 
ATOM     30  C   UNL     1       2.377   1.411  -0.013  0.00  0.00    +0.007 A 
ATOM     31  C   UNL     1       2.396   0.029  -0.020  0.00  0.00    -0.010 A 
ATOM     32  C   UNL     1       1.208  -0.679  -0.012  0.00  0.00    +0.007 A 
ATOM     33  C   UNL     1       0.002  -0.004   0.002  0.00  0.00    +0.000 A 
ENDBRANCH  27  31
ENDBRANCH  26  27
ENDBRANCH  20  26
ENDBRANCH   1  23
BRANCH   8  34
ATOM     34  N   UNL     1      12.893  -3.987   5.784  0.00  0.00    -0.328 N 
ATOM     35  H   UNL     1      13.608  -4.615   5.598  0.00  0.00    +0.145 HD
ATOM     36  H   UNL     1      12.846  -3.546   6.646  0.00  0.00    +0.145 HD
ENDBRANCH   8  34
BRANCH   9  37
ATOM     37  C   UNL     1      10.959  -2.232   6.421  0.00  0.00    +0.101 C 
ATOM     38  N   UNL     1      10.952  -1.749   7.449  0.00  0.00    -0.191 NA
ENDBRANCH   9  37
TORSDOF 8
