REMARK  Name = ZINC13033491
REMARK  15 active torsions:
REMARK  status: ('A' for Active; 'I' for Inactive)
REMARK    1  A    between atoms: C_1  and  C_2
REMARK    2  A    between atoms: C_2  and  C_3
REMARK    3  A    between atoms: C_3  and  C_4
REMARK    4  A    between atoms: C_3  and  C_5
REMARK    5  A    between atoms: C_3  and  N_6
REMARK    6  A    between atoms: C_7  and  C_11
REMARK    7  A    between atoms: C_11  and  N_70
REMARK    8  A    between atoms: C_12  and  C_13
REMARK    9  A    between atoms: C_12  and  N_70
REMARK   10  A    between atoms: C_22  and  C_23
REMARK   11  A    between atoms: C_22  and  N_70
REMARK   12  A    between atoms: C_27  and  O_37
REMARK   13  A    between atoms: C_28  and  O_35
REMARK   14  A    between atoms: O_35  and  C_36
REMARK   15  A    between atoms: O_37  and  C_38
REMARK                            x       y       z     vdW  Elec       q    Type
REMARK                         _______ _______ _______ _____ _____    ______ ____
ROOT
ATOM      1  N   UNL     1      -6.040   4.087  -1.304  0.00  0.00    +0.390 N 
ATOM      2  H   UNL     1      -5.704   4.723  -2.036  0.00  0.00    -0.080 HD
ENDROOT
BRANCH   1   3
ATOM      3  C   UNL     1      -5.638   2.706  -1.644  0.00  0.00    +0.001 C 
BRANCH   3   5
ATOM      4  N   UNL     1      -6.096   0.392  -0.675  0.00  0.00    -0.226 N 
ATOM      5  C   UNL     1      -6.156   1.735  -0.615  0.00  0.00    +0.136 A 
ATOM      6  N   UNL     1      -6.757   2.035   0.511  0.00  0.00    -0.115 NA
ATOM      7  N   UNL     1      -7.046   0.933   1.113  0.00  0.00    -0.023 NA
ATOM      8  N   UNL     1      -6.646  -0.061   0.401  0.00  0.00    -0.043 NA
BRANCH   4   9
ATOM      9  C   UNL     1      -5.514  -0.405  -1.757  0.00  0.00    +0.061 C 
ATOM     10  C   UNL     1      -6.276  -0.136  -3.056  0.00  0.00    +0.036 C 
ATOM     11  C   UNL     1      -4.044  -0.021  -1.939  0.00  0.00    +0.036 C 
BRANCH   9  13
ATOM     12  C   UNL     1      -4.918  -2.719  -2.489  0.00  0.00    +0.006 C 
ATOM     13  C   UNL     1      -5.613  -1.891  -1.406  0.00  0.00    +0.026 C 
ENDBRANCH   9  13
ENDBRANCH   4   9
ENDBRANCH   3   5
ENDBRANCH   1   3
BRANCH   1  14
ATOM     14  C   UNL     1      -7.514   4.179  -1.226  0.00  0.00    -0.042 C 
BRANCH  14  15
ATOM     15  C   UNL     1      -8.075   4.136  -2.624  0.00  0.00    -0.060 A 
ATOM     16  C   UNL     1      -8.167   5.298  -3.367  0.00  0.00    +0.005 A 
ATOM     17  C   UNL     1      -8.676   5.263  -4.652  0.00  0.00    +0.050 A 
ATOM     18  C   UNL     1      -9.107   4.063  -5.194  0.00  0.00    +0.166 A 
ATOM     19  C   UNL     1      -9.020   2.893  -4.443  0.00  0.00    +0.166 A 
ATOM     20  C   UNL     1      -8.503   2.935  -3.159  0.00  0.00    +0.051 A 
ATOM     21  O   UNL     1      -9.503   1.858  -5.191  0.00  0.00    -0.453 OA
ATOM     22  C   UNL     1     -10.262   2.470  -6.250  0.00  0.00    +0.466 C 
ATOM     23  O   UNL     1      -9.645   3.761  -6.412  0.00  0.00    -0.453 OA
ENDBRANCH  14  15
ENDBRANCH   1  14
BRANCH   1  24
ATOM     24  C   UNL     1      -5.441   4.484  -0.012  0.00  0.00    -0.036 C 
BRANCH  24  25
ATOM     25  C   UNL     1      -3.948   4.593  -0.182  0.00  0.00    +0.001 A 
ATOM     26  C   UNL     1      -3.386   5.798  -0.459  0.00  0.00    +0.017 A 
ATOM     27  C   UNL     1      -1.935   5.870  -0.625  0.00  0.00    +0.002 A 
ATOM     28  C   UNL     1      -1.302   7.083  -0.930  0.00  0.00    +0.059 A 
ATOM     29  C   UNL     1       0.066   7.119  -1.080  0.00  0.00    +0.162 A 
ATOM     30  C   UNL     1       0.823   5.952  -0.929  0.00  0.00    +0.163 A 
ATOM     31  C   UNL     1       0.209   4.750  -0.629  0.00  0.00    +0.075 A 
ATOM     32  C   UNL     1      -1.171   4.696  -0.480  0.00  0.00    +0.053 A 
ATOM     33  N   UNL     1      -1.804   3.504  -0.186  0.00  0.00    -0.322 N 
ATOM     34  H   UNL     1      -1.277   2.696  -0.082  0.00  0.00    +0.169 HD
ATOM     35  C   UNL     1      -3.139   3.447  -0.042  0.00  0.00    +0.251 A 
ATOM     36  O   UNL     1      -3.664   2.378   0.217  0.00  0.00    -0.268 OA
BRANCH  30  37
ATOM     37  O   UNL     1       2.172   6.000  -1.080  0.00  0.00    -0.491 OA
ATOM     38  C   UNL     1       2.888   4.774  -0.913  0.00  0.00    +0.277 C 
ENDBRANCH  30  37
BRANCH  29  39
ATOM     39  O   UNL     1       0.684   8.293  -1.375  0.00  0.00    -0.491 OA
ATOM     40  C   UNL     1      -0.147   9.447  -1.516  0.00  0.00    +0.277 C 
ENDBRANCH  29  39
ENDBRANCH  24  25
ENDBRANCH   1  24
TORSDOF 10
