REMARK  Name = ZINC37090556
REMARK  8 active torsions:
REMARK  status: ('A' for Active; 'I' for Inactive)
REMARK    1  A    between atoms: C_3  and  O_31
REMARK    2  A    between atoms: C_4  and  N_10
REMARK    3  A    between atoms: C_6  and  N_7
REMARK    4  A    between atoms: N_10  and  C_11
REMARK    5  A    between atoms: C_11  and  N_13
REMARK    6  A    between atoms: C_14  and  C_16
REMARK    7  A    between atoms: C_17  and  C_18
REMARK    8  A    between atoms: C_21  and  C_23
REMARK                            x       y       z     vdW  Elec       q    Type
REMARK                         _______ _______ _______ _____ _____    ______ ____
ROOT
ATOM      1  N   UNL     1       4.818  -2.657   0.144  0.00  0.00    -0.264 N 
ATOM      2  C   UNL     1       4.838  -4.001   0.238  0.00  0.00    +0.242 C 
ATOM      3  O   UNL     1       3.794  -4.627   0.245  0.00  0.00    -0.270 OA
ATOM      4  H   UNL     1       5.651  -2.159   0.138  0.00  0.00    +0.157 HD
ENDROOT
BRANCH   1   5
ATOM      5  C   UNL     1       3.642  -2.005   0.058  0.00  0.00    +0.141 C 
ATOM      6  S   UNL     1       2.173  -2.885   0.068  0.00  0.00    -0.018 S 
BRANCH   5   7
ATOM      7  N   UNL     1       3.622  -0.661  -0.037  0.00  0.00    -0.294 N 
ATOM      8  H   UNL     1       4.454  -0.167  -0.105  0.00  0.00    +0.154 HD
BRANCH   7  12
ATOM      9  C   UNL     1      -0.018   1.376  -0.034  0.00  0.00    +0.036 A 
ATOM     10  C   UNL     1       1.013   1.811   0.778  0.00  0.00    +0.049 A 
ATOM     11  C   UNL     1       2.224   1.139   0.781  0.00  0.00    +0.138 A 
ATOM     12  C   UNL     1       2.399   0.023  -0.035  0.00  0.00    +0.077 A 
ATOM     13  C   UNL     1       1.361  -0.408  -0.847  0.00  0.00    +0.059 A 
ATOM     14  C   UNL     1       0.155   0.269  -0.844  0.00  0.00    +0.128 A 
BRANCH  14  15
ATOM     15  N   UNL     1      -0.953  -0.192  -1.711  0.00  0.00    +0.056 N 
ATOM     16  O   UNL     1      -2.007   0.399  -1.710  0.00  0.00    -0.126 OA
ATOM     17  O   UNL     1      -0.803  -1.159  -2.420  0.00  0.00    -0.126 OA
ENDBRANCH  14  15
BRANCH  11  18
ATOM     18  O   UNL     1       3.239   1.566   1.579  0.00  0.00    -0.505 OA
ATOM     19  H   UNL     1       3.241   1.168   2.460  0.00  0.00    +0.292 HD
ENDBRANCH  11  18
ENDBRANCH   7  12
ENDBRANCH   5   7
ENDBRANCH   1   5
BRANCH   2  20
ATOM     20  C   UNL     1       6.072  -4.685   0.329  0.00  0.00    +0.071 C 
ATOM     21  C   UNL     1       6.092  -6.040   0.424  0.00  0.00    +0.051 C 
BRANCH  21  22
ATOM     22  C   UNL     1       7.325  -6.724   0.514  0.00  0.00    +0.129 A 
ATOM     23  C   UNL     1       7.487  -8.094   0.610  0.00  0.00    +0.050 A 
ATOM     24  C   UNL     1       8.862  -8.334   0.677  0.00  0.00    +0.050 A 
ATOM     25  C   UNL     1       9.487  -7.109   0.620  0.00  0.00    +0.137 A 
ATOM     26  O   UNL     1       8.548  -6.152   0.517  0.00  0.00    -0.455 OA
BRANCH  25  27
ATOM     27  C   UNL     1      10.945  -6.883   0.660  0.00  0.00    +0.036 A 
ATOM     28  C   UNL     1      11.722  -7.486   1.652  0.00  0.00    +0.014 A 
ATOM     29  C   UNL     1      13.083  -7.271   1.684  0.00  0.00    +0.021 A 
ATOM     30  C   UNL     1      13.682  -6.460   0.734  0.00  0.00    +0.042 A 
ATOM     31  C   UNL     1      12.920  -5.859  -0.252  0.00  0.00    +0.040 A 
ATOM     32  C   UNL     1      11.556  -6.070  -0.299  0.00  0.00    +0.053 A 
ATOM     33 CL   UNL     1      10.602  -5.322  -1.542  0.00  0.00    -0.083 Cl
ATOM     34 CL   UNL     1      15.397  -6.196   0.782  0.00  0.00    -0.083 Cl
ENDBRANCH  25  27
ENDBRANCH  21  22
ENDBRANCH   2  20
TORSDOF 8
