REMARK  Name = ZINC58530121
REMARK  10 active torsions:
REMARK  status: ('A' for Active; 'I' for Inactive)
REMARK    1  A    between atoms: C_1  and  C_2
REMARK    2  A    between atoms: C_2  and  C_3
REMARK    3  A    between atoms: C_3  and  N_4
REMARK    4  A    between atoms: N_7  and  C_8
REMARK    5  A    between atoms: C_8  and  C_9
REMARK    6  A    between atoms: C_8  and  C_10
REMARK    7  A    between atoms: C_8  and  C_11
REMARK    8  A    between atoms: N_13  and  C_14
REMARK    9  A    between atoms: C_14  and  C_15
REMARK   10  A    between atoms: N_17  and  C_18
REMARK                            x       y       z     vdW  Elec       q    Type
REMARK                         _______ _______ _______ _____ _____    ______ ____
ROOT
ATOM      1  C   UNL     1       1.922  -6.206   3.063  0.00  0.00    +0.236 C 
ATOM      2  O   UNL     1       2.828  -6.948   3.377  0.00  0.00    -0.273 OA
ATOM      3  N   UNL     1       0.809  -6.706   2.490  0.00  0.00    -0.305 N 
ATOM      4  H   UNL     1       0.084  -6.112   2.239  0.00  0.00    +0.149 HD
ENDROOT
BRANCH   1   5
ATOM      5  C   UNL     1       2.040  -4.724   3.312  0.00  0.00    +0.106 C 
ATOM      6  C   UNL     1       3.518  -4.332   3.361  0.00  0.00    +0.041 C 
ATOM      7  C   UNL     1       1.375  -4.376   4.645  0.00  0.00    +0.041 C 
BRANCH   5  11
ATOM      8  N   UNL     1       0.746  -1.972   1.245  0.00  0.00    -0.299 N 
ATOM      9  C   UNL     1       1.356  -2.645   2.241  0.00  0.00    +0.300 C 
ATOM     10  O   UNL     1       1.887  -2.037   3.149  0.00  0.00    -0.253 OA
ATOM     11  N   UNL     1       1.377  -3.993   2.229  0.00  0.00    -0.286 N 
ATOM     12  H   UNL     1       0.322  -2.458   0.520  0.00  0.00    +0.150 HD
ATOM     13  H   UNL     1       0.953  -4.478   1.504  0.00  0.00    +0.151 HD
BRANCH   8  14
ATOM     14  C   UNL     1       0.723  -0.507   1.258  0.00  0.00    +0.105 C 
BRANCH  14  16
ATOM     15  C   UNL     1      -0.050   1.531   0.037  0.00  0.00    +0.005 C 
ATOM     16  C   UNL     1      -0.026   0.002   0.025  0.00  0.00    +0.015 C 
ENDBRANCH  14  16
ENDBRANCH   8  14
ENDBRANCH   5  11
ENDBRANCH   1   5
BRANCH   3  17
ATOM     17  C   UNL     1       0.694  -8.146   2.248  0.00  0.00    +0.200 C 
BRANCH  17  18
ATOM     18  C   UNL     1      -0.636  -8.443   1.604  0.00  0.00    +0.234 C 
ATOM     19  O   UNL     1      -1.411  -7.540   1.370  0.00  0.00    -0.274 OA
ATOM     20  N   UNL     1      -0.964  -9.711   1.288  0.00  0.00    -0.284 N 
ATOM     21  H   UNL     1      -0.318 -10.425   1.413  0.00  0.00    +0.155 HD
BRANCH  20  22
ATOM     22  C   UNL     1      -2.235  -9.999   0.779  0.00  0.00    +0.033 A 
ATOM     23  C   UNL     1      -2.864 -11.192   1.113  0.00  0.00    +0.024 A 
ATOM     24  C   UNL     1      -4.120 -11.473   0.610  0.00  0.00    +0.017 A 
ATOM     25  C   UNL     1      -4.750 -10.569  -0.226  0.00  0.00    +0.018 A 
ATOM     26  C   UNL     1      -4.126  -9.380  -0.560  0.00  0.00    +0.017 A 
ATOM     27  C   UNL     1      -2.873  -9.091  -0.056  0.00  0.00    +0.024 A 
ATOM     28 BR   UNL     1      -6.468 -10.958  -0.913  0.00  0.00    -0.050 Br
ENDBRANCH  20  22
ENDBRANCH  17  18
ENDBRANCH   3  17
TORSDOF 7
