REMARK  Name = ZINC15728490
REMARK  4 active torsions:
REMARK  status: ('A' for Active; 'I' for Inactive)
REMARK    1  A    between atoms: C_6  and  S_7
REMARK    2  A    between atoms: S_7  and  N_10
REMARK    3  A    between atoms: C_13  and  C_16
REMARK    4  A    between atoms: N_18  and  C_19
REMARK                            x       y       z     vdW  Elec       q    Type
REMARK                         _______ _______ _______ _____ _____    ______ ____
ROOT
ATOM      1  N   UNL     1      -4.347  -1.238   1.548  0.00  0.00    -0.177 NA
ATOM      2  C   UNL     1      -3.888  -2.445   2.248  0.00  0.00    +0.110 C 
ATOM      3  C   UNL     1      -3.195  -2.020   3.552  0.00  0.00    +0.030 C 
ATOM      4  C   UNL     1      -4.149  -1.145   4.368  0.00  0.00    +0.077 C 
ATOM      5  C   UNL     1      -4.494   0.116   3.572  0.00  0.00    +0.030 C 
ATOM      6  C   UNL     1      -5.197  -0.282   2.271  0.00  0.00    +0.110 C 
ENDROOT
BRANCH   4   7
ATOM      7  C   UNL     1      -3.488  -0.755   5.665  0.00  0.00    +0.216 C 
ATOM      8  O   UNL     1      -3.310   0.416   5.927  0.00  0.00    -0.276 OA
ATOM      9  N   UNL     1      -3.095  -1.707   6.533  0.00  0.00    -0.312 N 
ATOM     10  H   UNL     1      -3.237  -2.643   6.324  0.00  0.00    +0.149 HD
BRANCH   9  11
ATOM     11  C   UNL     1      -2.452  -1.328   7.794  0.00  0.00    +0.073 C 
ATOM     12  C   UNL     1      -0.953  -1.127   7.562  0.00  0.00    +0.022 C 
ATOM     13  C   UNL     1      -0.352  -0.361   8.743  0.00  0.00    +0.002 C 
ATOM     14  C   UNL     1      -1.274   0.800   9.120  0.00  0.00    +0.000 C 
ATOM     15  C   UNL     1      -1.879   0.542  10.502  0.00  0.00    +0.000 C 
ATOM     16  C   UNL     1      -2.985  -0.509  10.386  0.00  0.00    +0.000 C 
ATOM     17  C   UNL     1      -2.356  -1.895  10.225  0.00  0.00    +0.002 C 
ATOM     18  C   UNL     1      -2.664  -2.436   8.828  0.00  0.00    +0.022 C 
ENDBRANCH   9  11
ENDBRANCH   4   7
BRANCH   1  19
ATOM     19  S   UNL     1      -3.921  -0.964  -0.029  0.00  0.00    +0.061 S 
ATOM     20  O   UNL     1      -4.912  -0.105  -0.574  0.00  0.00    -0.153 OA
ATOM     21  O   UNL     1      -3.618  -2.232  -0.594  0.00  0.00    -0.153 OA
BRANCH  19  27
ATOM     22  C   UNL     1      -2.441   1.334   0.007  0.00  0.00    +0.030 A 
ATOM     23  C   UNL     1      -1.258   2.033   0.017  0.00  0.00    +0.025 A 
ATOM     24  C   UNL     1      -0.017   1.374   0.010  0.00  0.00    +0.037 A 
ATOM     25  C   UNL     1       0.002  -0.004   0.002  0.00  0.00    -0.024 A 
ATOM     26  C   UNL     1      -1.205  -0.703  -0.012  0.00  0.00    +0.034 A 
ATOM     27  C   UNL     1      -2.416  -0.049  -0.010  0.00  0.00    +0.106 A 
ATOM     28  C   UNL     1       1.234  -0.850   0.011  0.00  0.00    +0.037 C 
ATOM     29  C   UNL     1       2.382  -0.318   0.811  0.00  0.00    +0.014 C 
ATOM     30  C   UNL     1       3.136   0.791   0.118  0.00  0.00    +0.096 C 
ATOM     31  C   UNL     1       2.369   2.065   0.115  0.00  0.00    +0.217 C 
ATOM     32  O   UNL     1       3.016   3.085   0.229  0.00  0.00    -0.275 OA
ATOM     33  N   UNL     1       1.079   2.207   0.004  0.00  0.00    -0.285 N 
ATOM     34  H   UNL     1       0.826   3.136  -0.114  0.00  0.00    +0.155 HD
ENDBRANCH  19  27
ENDBRANCH   1  19
TORSDOF 4
