REMARK  Name = ZINC35231812
REMARK  8 active torsions:
REMARK  status: ('A' for Active; 'I' for Inactive)
REMARK    1  A    between atoms: C_1  and  C_2
REMARK    2  A    between atoms: C_2  and  C_3
REMARK    3  A    between atoms: C_2  and  N_4
REMARK    4  A    between atoms: N_4  and  C_5
REMARK    5  A    between atoms: C_5  and  C_6
REMARK    6  A    between atoms: C_20  and  C_22
REMARK    7  A    between atoms: N_31  and  C_32
REMARK    8  A    between atoms: C_35  and  C_38
REMARK                            x       y       z     vdW  Elec       q    Type
REMARK                         _______ _______ _______ _____ _____    ______ ____
ROOT
ATOM      1  C   UNL     1      -1.164  -3.921   0.276  0.00  0.00    +0.238 C 
ATOM      2  O   UNL     1      -1.081  -3.025  -0.537  0.00  0.00    -0.273 OA
ATOM      3  N   UNL     1      -1.550  -5.152  -0.114  0.00  0.00    -0.255 N 
ATOM      4  C   UNL     1      -1.734  -5.429  -1.475  0.00  0.00    +0.061 A 
ATOM      5  C   UNL     1      -1.001  -4.752  -2.437  0.00  0.00    +0.025 A 
ATOM      6  C   UNL     1      -1.200  -5.027  -3.777  0.00  0.00    +0.002 A 
ATOM      7  C   UNL     1      -2.128  -5.976  -4.166  0.00  0.00    +0.002 A 
ATOM      8  C   UNL     1      -2.862  -6.661  -3.215  0.00  0.00    +0.028 A 
ATOM      9  C   UNL     1      -2.664  -6.395  -1.874  0.00  0.00    +0.068 A 
ATOM     10  N   UNL     1      -3.365  -7.082  -0.872  0.00  0.00    -0.316 N 
ATOM     11  C   UNL     1      -4.456  -7.879  -0.959  0.00  0.00    +0.092 A 
ATOM     12  C   UNL     1      -4.766  -8.307   0.286  0.00  0.00    +0.020 A 
ATOM     13  C   UNL     1      -3.821  -7.749   1.175  0.00  0.00    +0.025 A 
ATOM     14  C   UNL     1      -2.977  -7.009   0.449  0.00  0.00    +0.049 A 
ATOM     15  C   UNL     1      -1.773  -6.205   0.891  0.00  0.00    +0.159 C 
ENDROOT
BRANCH  15  16
ATOM     16  C   UNL     1      -0.561  -7.096   0.975  0.00  0.00    -0.021 A 
ATOM     17  C   UNL     1       0.115  -7.453  -0.178  0.00  0.00    +0.008 A 
ATOM     18  C   UNL     1       1.227  -8.270  -0.102  0.00  0.00    +0.038 A 
ATOM     19  C   UNL     1       1.665  -8.729   1.128  0.00  0.00    +0.123 A 
ATOM     20  C   UNL     1       0.988  -8.371   2.281  0.00  0.00    +0.038 A 
ATOM     21  C   UNL     1      -0.121  -7.550   2.204  0.00  0.00    +0.008 A 
ATOM     22  F   UNL     1       2.752  -9.528   1.203  0.00  0.00    -0.205 F 
ENDBRANCH  15  16
BRANCH   1  23
ATOM     23  C   UNL     1      -0.835  -3.658   1.723  0.00  0.00    +0.205 C 
BRANCH  23  24
ATOM     24  N   UNL     1      -0.574  -2.229   1.913  0.00  0.00    -0.274 N 
ATOM     25  C   UNL     1       0.678  -1.748   1.774  0.00  0.00    +0.307 C 
ATOM     26  O   UNL     1       1.605  -2.511   1.583  0.00  0.00    -0.252 OA
ATOM     27  N   UNL     1       0.902  -0.421   1.847  0.00  0.00    -0.269 N 
ATOM     28  H   UNL     1       0.184   0.179   2.102  0.00  0.00    +0.156 HD
BRANCH  27  29
ATOM     29  C   UNL     1       2.168   0.090   1.557  0.00  0.00    +0.035 A 
ATOM     30  C   UNL     1       2.954  -0.517   0.582  0.00  0.00    +0.024 A 
ATOM     31  C   UNL     1       4.203  -0.015   0.292  0.00  0.00    +0.020 A 
ATOM     32  C   UNL     1       4.681   1.105   0.979  0.00  0.00    +0.052 A 
ATOM     33  C   UNL     1       3.889   1.711   1.957  0.00  0.00    +0.020 A 
ATOM     34  C   UNL     1       2.638   1.208   2.238  0.00  0.00    +0.024 A 
BRANCH  32  35
ATOM     35  C   UNL     1       5.980   1.629   0.681  0.00  0.00    +0.099 C 
ATOM     36  N   UNL     1       7.011   2.044   0.444  0.00  0.00    -0.191 NA
ENDBRANCH  32  35
ENDBRANCH  27  29
BRANCH  24  38
ATOM     37  C   UNL     1      -2.788  -1.461   1.214  0.00  0.00    +0.028 C 
ATOM     38  C   UNL     1      -1.673  -1.322   2.252  0.00  0.00    +0.072 C 
ATOM     39  C   UNL     1      -2.218  -1.677   3.637  0.00  0.00    +0.028 C 
ENDBRANCH  24  38
ENDBRANCH  23  24
ENDBRANCH   1  23
TORSDOF 6
