REMARK  Name = ZINC51225273
REMARK  9 active torsions:
REMARK  status: ('A' for Active; 'I' for Inactive)
REMARK    1  A    between atoms: C_1  and  C_2
REMARK    2  A    between atoms: C_2  and  C_3
REMARK    3  A    between atoms: C_3  and  C_4
REMARK    4  A    between atoms: C_10  and  C_11
REMARK    5  A    between atoms: N_13  and  C_20
REMARK    6  A    between atoms: C_20  and  C_21
REMARK    7  A    between atoms: C_21  and  O_22
REMARK    8  A    between atoms: O_22  and  C_23
REMARK    9  A    between atoms: C_27  and  C_29
REMARK                            x       y       z     vdW  Elec       q    Type
REMARK                         _______ _______ _______ _____ _____    ______ ____
ROOT
ATOM      1  C   UNL     1       2.450  -6.942  -1.139  0.00  0.00    +0.001 A 
ATOM      2  C   UNL     1       3.073  -5.874  -0.522  0.00  0.00    +0.095 A 
ATOM      3  N   UNL     1       4.391  -5.898  -0.801  0.00  0.00    -0.343 N 
ATOM      4  C   UNL     1       4.700  -6.974  -1.609  0.00  0.00    +0.050 A 
ATOM      5  C   UNL     1       3.511  -7.679  -1.854  0.00  0.00    +0.007 A 
ATOM      6  C   UNL     1       3.527  -8.824  -2.644  0.00  0.00    +0.010 A 
ATOM      7  C   UNL     1       4.717  -9.265  -3.183  0.00  0.00    +0.001 A 
ATOM      8  C   UNL     1       5.894  -8.573  -2.939  0.00  0.00    +0.002 A 
ATOM      9  C   UNL     1       5.890  -7.433  -2.164  0.00  0.00    +0.026 A 
ENDROOT
BRANCH   1  16
ATOM     10  C   UNL     1      -0.189  -4.029   3.700  0.00  0.00    +0.100 C 
ATOM     11  N   UNL     1       0.640  -4.744   2.994  0.00  0.00    -0.169 NA
ATOM     12  N   UNL     1       0.186  -5.649   2.059  0.00  0.00    -0.154 N 
ATOM     13  C   UNL     1       0.989  -6.534   1.308  0.00  0.00    +0.132 C 
ATOM     14  N   UNL     1       2.186  -6.910   1.681  0.00  0.00    -0.385 N 
ATOM     15  C   UNL     1       0.342  -6.997   0.051  0.00  0.00    +0.079 C 
ATOM     16  C   UNL     1       1.076  -7.267  -1.089  0.00  0.00    +0.026 C 
ATOM     17  C   UNL     1      -1.131  -7.156   0.087  0.00  0.00    +0.273 C 
ATOM     18  O   UNL     1      -1.698  -7.925  -0.673  0.00  0.00    -0.268 OA
ATOM     19  N   UNL     1      -1.826  -6.426   0.982  0.00  0.00    -0.152 NA
ATOM     20  C   UNL     1      -1.178  -5.710   1.865  0.00  0.00    +0.181 C 
ATOM     21  S   UNL     1      -1.778  -4.580   3.093  0.00  0.00    -0.038 S 
ATOM     22  H   UNL     1       2.596  -6.513   2.465  0.00  0.00    +0.157 HD
ATOM     23  H   UNL     1       2.662  -7.584   1.173  0.00  0.00    +0.157 HD
BRANCH  10  24
ATOM     24  C   UNL     1       0.114  -3.003   4.762  0.00  0.00    +0.064 C 
BRANCH  24  26
ATOM     25  C   UNL     1       1.937  -1.836   6.009  0.00  0.00    +0.004 C 
ATOM     26  C   UNL     1       1.630  -2.877   4.931  0.00  0.00    +0.003 C 
ENDBRANCH  24  26
ENDBRANCH  10  24
ENDBRANCH   1  16
BRANCH   3  27
ATOM     27  C   UNL     1       5.364  -4.917  -0.314  0.00  0.00    +0.163 C 
BRANCH  27  28
ATOM     28  C   UNL     1       5.562  -3.828  -1.370  0.00  0.00    +0.250 C 
BRANCH  28  29
ATOM     29  O   UNL     1       6.510  -2.870  -0.895  0.00  0.00    -0.490 OA
BRANCH  29  30
ATOM     30  C   UNL     1       6.802  -1.829  -1.720  0.00  0.00    +0.121 A 
ATOM     31  C   UNL     1       6.183  -1.729  -2.957  0.00  0.00    +0.047 A 
ATOM     32  C   UNL     1       6.481  -0.670  -3.793  0.00  0.00    +0.024 A 
ATOM     33  C   UNL     1       7.395   0.289  -3.397  0.00  0.00    +0.044 A 
ATOM     34  C   UNL     1       8.014   0.191  -2.164  0.00  0.00    -0.029 A 
ATOM     35  C   UNL     1       7.714  -0.863  -1.322  0.00  0.00    +0.050 A 
ATOM     36  C   UNL     1       9.010   1.237  -1.735  0.00  0.00    +0.045 C 
ATOM     37 CL   UNL     1       7.768   1.618  -4.450  0.00  0.00    -0.083 Cl
ENDBRANCH  29  30
ENDBRANCH  28  29
ENDBRANCH  27  28
ENDBRANCH   3  27
TORSDOF 7
