REMARK  Name = ZINC12732216
REMARK  10 active torsions:
REMARK  status: ('A' for Active; 'I' for Inactive)
REMARK    1  A    between atoms: C_1  and  C_2
REMARK    2  A    between atoms: C_4  and  S_22
REMARK    3  A    between atoms: C_6  and  N_9
REMARK    4  A    between atoms: C_7  and  C_8
REMARK    5  A    between atoms: C_10  and  C_12
REMARK    6  A    between atoms: C_12  and  C_13
REMARK    7  A    between atoms: C_19  and  C_21
REMARK    8  A    between atoms: S_22  and  N_25
REMARK    9  A    between atoms: N_25  and  C_26
REMARK   10  A    between atoms: N_25  and  C_27
REMARK                            x       y       z     vdW  Elec       q    Type
REMARK                         _______ _______ _______ _____ _____    ______ ____
ROOT
ATOM      1  C   UNL     1       0.016   0.004   0.028  0.00  0.00    +0.044 C 
ATOM      2  C   UNL     1      -0.009   1.511   0.033  0.00  0.00    -0.044 A 
ATOM      3  C   UNL     1       1.177   2.222   0.033  0.00  0.00    +0.032 A 
ATOM      4  C   UNL     1       1.158   3.604   0.036  0.00  0.00    +0.107 A 
ATOM      5  C   UNL     1      -0.047   4.280   0.041  0.00  0.00    +0.052 A 
ATOM      6  C   UNL     1      -1.240   3.569   0.042  0.00  0.00    +0.038 A 
ATOM      7  C   UNL     1      -1.217   2.180   0.033  0.00  0.00    -0.026 A 
ATOM      8  C   UNL     1      -2.509   1.405   0.027  0.00  0.00    +0.046 C 
ENDROOT
BRANCH   6   9
ATOM      9  N   UNL     1      -2.462   4.250   0.046  0.00  0.00    -0.285 N 
ATOM     10  C   UNL     1      -2.536   5.505  -0.441  0.00  0.00    +0.223 C 
ATOM     11  O   UNL     1      -1.569   6.006  -0.974  0.00  0.00    -0.275 OA
ATOM     12  H   UNL     1      -3.256   3.820   0.400  0.00  0.00    +0.155 HD
BRANCH  10  13
ATOM     13  C   UNL     1      -3.820   6.284  -0.324  0.00  0.00    +0.150 C 
BRANCH  13  14
ATOM     14  C   UNL     1      -3.639   7.647  -0.941  0.00  0.00    +0.041 A 
ATOM     15  C   UNL     1      -3.811   7.803  -2.253  0.00  0.00    +0.070 A 
ATOM     16  S   UNL     1      -3.489   9.547  -2.463  0.00  0.00    -0.057 S 
ATOM     17  C   UNL     1      -3.148   9.929  -0.761  0.00  0.00    +0.178 A 
ATOM     18  N   UNL     1      -3.304   8.717  -0.142  0.00  0.00    -0.297 N 
ATOM     19  C   UNL     1      -3.039   8.968   1.202  0.00  0.00    +0.116 A 
ATOM     20  C   UNL     1      -2.754  10.275   1.326  0.00  0.00    +0.058 A 
ATOM     21  N   UNL     1      -2.827  10.841   0.111  0.00  0.00    -0.227 NA
ATOM     22  C   UNL     1      -2.411  10.985   2.610  0.00  0.00    +0.067 C 
ENDBRANCH  13  14
ENDBRANCH  10  13
ENDBRANCH   6   9
BRANCH   4  23
ATOM     23  S   UNL     1       2.672   4.505   0.035  0.00  0.00    +0.060 S 
ATOM     24  O   UNL     1       2.386   5.782   0.590  0.00  0.00    -0.153 OA
ATOM     25  O   UNL     1       3.659   3.641   0.581  0.00  0.00    -0.153 OA
BRANCH  23  26
ATOM     26  N   UNL     1       3.089   4.760  -1.547  0.00  0.00    -0.183 NA
ATOM     27  C   UNL     1       2.625   5.963  -2.243  0.00  0.00    +0.131 C 
ATOM     28  C   UNL     1       3.922   3.782  -2.252  0.00  0.00    +0.131 C 
ENDBRANCH  23  26
ENDBRANCH   4  23
TORSDOF 5
