REMARK  Name = ZINC27989848
REMARK  6 active torsions:
REMARK  status: ('A' for Active; 'I' for Inactive)
REMARK    1  A    between atoms: C_2  and  C_3
REMARK    2  A    between atoms: C_3  and  N_4
REMARK    3  A    between atoms: C_5  and  C_7
REMARK    4  A    between atoms: C_11  and  N_12
REMARK    5  A    between atoms: C_13  and  C_15
REMARK    6  A    between atoms: C_17  and  C_20
REMARK                            x       y       z     vdW  Elec       q    Type
REMARK                         _______ _______ _______ _____ _____    ______ ____
ROOT
ATOM      1  N   UNL     1      -7.929  -2.582   0.030  0.00  0.00    -0.274 N 
ATOM      2  C   UNL     1      -7.264  -1.409   0.034  0.00  0.00    +0.270 C 
ATOM      3  O   UNL     1      -7.880  -0.362   0.046  0.00  0.00    -0.268 OA
ATOM      4  H   UNL     1      -7.371  -3.530   0.020  0.00  0.00    +0.156 HD
ENDROOT
BRANCH   1   9
ATOM      5  C   UNL     1     -10.168  -3.687   0.030  0.00  0.00    +0.069 A 
ATOM      6  C   UNL     1     -11.597  -3.423   0.046  0.00  0.00    -0.023 A 
ATOM      7  C   UNL     1     -11.941  -2.117   0.057  0.00  0.00    -0.004 A 
ATOM      8  S   UNL     1     -10.401  -1.243   0.054  0.00  0.00    -0.077 S 
ATOM      9  C   UNL     1      -9.314  -2.592   0.038  0.00  0.00    +0.085 A 
ATOM     10  C   UNL     1     -13.326  -1.548   0.068  0.00  0.00    +0.043 C 
ATOM     11  C   UNL     1     -14.310  -2.663  -0.314  0.00  0.00    +0.005 C 
ATOM     12  C   UNL     1     -13.985  -3.911   0.512  0.00  0.00    +0.005 C 
ATOM     13  C   UNL     1     -12.660  -4.515   0.044  0.00  0.00    +0.037 C 
BRANCH   5  15
ATOM     14  N   UNL     1      -9.415  -5.672  -1.166  0.00  0.00    -0.308 N 
ATOM     15  C   UNL     1      -9.648  -5.057   0.010  0.00  0.00    +0.247 C 
ATOM     16  O   UNL     1      -9.426  -5.639   1.056  0.00  0.00    -0.270 OA
ATOM     17  H   UNL     1      -9.616  -5.146  -2.111  0.00  0.00    +0.149 HD
BRANCH  14  18
ATOM     18  C   UNL     1      -8.895  -7.042  -1.187  0.00  0.00    +0.131 C 
BRANCH  18  20
ATOM     19  C   UNL     1      -7.563  -7.936  -3.027  0.00  0.00    +0.005 C 
ATOM     20  C   UNL     1      -8.725  -7.494  -2.614  0.00  0.00    -0.016 C 
ENDBRANCH  18  20
ENDBRANCH  14  18
ENDBRANCH   5  15
ENDBRANCH   1   9
BRANCH   2  21
ATOM     21  C   UNL     1      -5.781  -1.398   0.025  0.00  0.00    +0.169 A 
ATOM     22  C   UNL     1      -4.939  -0.256   0.034  0.00  0.00    +0.086 A 
ATOM     23  C   UNL     1      -3.676  -0.781   0.017  0.00  0.00    +0.168 A 
ATOM     24  O   UNL     1      -3.822  -2.117   0.009  0.00  0.00    -0.354 OA
ATOM     25  N   UNL     1      -4.987  -2.441   0.013  0.00  0.00    -0.073 NA
BRANCH  23  26
ATOM     26  C   UNL     1      -2.404  -0.028   0.016  0.00  0.00    +0.024 A 
ATOM     27  C   UNL     1      -2.417   1.368   0.026  0.00  0.00    +0.015 A 
ATOM     28  C   UNL     1      -1.229   2.067   0.019  0.00  0.00    +0.050 A 
ATOM     29  C   UNL     1      -0.017   1.387   0.010  0.00  0.00    +0.162 A 
ATOM     30  C   UNL     1       0.002  -0.004   0.002  0.00  0.00    +0.163 A 
ATOM     31  C   UNL     1      -1.187  -0.711   0.004  0.00  0.00    +0.061 A 
ATOM     32  O   UNL     1       1.181  -0.685  -0.006  0.00  0.00    -0.485 OA
ATOM     33  C   UNL     1       2.347   0.054  -0.386  0.00  0.00    +0.270 C 
ATOM     34  C   UNL     1       2.334   1.392   0.366  0.00  0.00    +0.270 C 
ATOM     35  O   UNL     1       1.144   2.099   0.002  0.00  0.00    -0.485 OA
ENDBRANCH  23  26
ENDBRANCH   2  21
TORSDOF 6
