REMARK  Name = ZINC39658626
REMARK  7 active torsions:
REMARK  status: ('A' for Active; 'I' for Inactive)
REMARK    1  A    between atoms: C_4  and  C_7
REMARK    2  A    between atoms: C_7  and  S_8
REMARK    3  A    between atoms: S_8  and  C_9
REMARK    4  A    between atoms: C_9  and  C_10
REMARK    5  A    between atoms: C_10  and  N_11
REMARK    6  A    between atoms: C_12  and  C_14
REMARK    7  A    between atoms: C_25  and  C_27
REMARK                            x       y       z     vdW  Elec       q    Type
REMARK                         _______ _______ _______ _____ _____    ______ ____
ROOT
ATOM      1  C   UNL     1       9.572  -4.102   3.672  0.00  0.00    +0.100 C 
ATOM      2  C   UNL     1       9.391  -5.495   3.030  0.00  0.00    +0.121 C 
ATOM      3  N   UNL     1      10.376  -6.358   3.724  0.00  0.00    -0.297 N 
ATOM      4  C   UNL     1      10.324  -5.913   5.138  0.00  0.00    +0.115 C 
ATOM      5  C   UNL     1      10.184  -4.380   5.055  0.00  0.00    -0.004 C 
ATOM      6  C   UNL     1       9.254  -3.876   6.155  0.00  0.00    -0.010 C 
ATOM      7  C   UNL     1       9.910  -4.111   7.519  0.00  0.00    -0.082 C 
ATOM      8  N   UNL     1      11.195  -3.404   7.574  0.00  0.00    +0.379 N 
ATOM      9  C   UNL     1      12.116  -3.958   6.574  0.00  0.00    -0.082 C 
ATOM     10  C   UNL     1      11.553  -3.717   5.170  0.00  0.00    -0.010 C 
ATOM     11  C   UNL     1      11.146  -7.327   3.191  0.00  0.00    +0.260 C 
ATOM     12  O   UNL     1      11.142  -7.514   1.993  0.00  0.00    -0.271 OA
ATOM     13  H   UNL     1      11.047  -2.424   7.386  0.00  0.00    -0.086 HD
ATOM     14  H   UNL     1      11.597  -3.510   8.493  0.00  0.00    -0.086 HD
ENDROOT
BRANCH  11  15
ATOM     15  C   UNL     1      12.011  -8.178   4.084  0.00  0.00    +0.296 C 
ATOM     16  C   UNL     1      11.126  -9.068   4.967  0.00  0.00    +0.283 C 
ATOM     17  O   UNL     1      11.979  -9.871   5.791  0.00  0.00    -0.484 OA
ATOM     18  C   UNL     1      13.027 -10.481   5.173  0.00  0.00    +0.162 A 
ATOM     19  C   UNL     1      13.667 -11.539   5.803  0.00  0.00    +0.049 A 
ATOM     20  C   UNL     1      14.735 -12.165   5.190  0.00  0.00    +0.004 A 
ATOM     21  C   UNL     1      15.169 -11.741   3.948  0.00  0.00    +0.004 A 
ATOM     22  C   UNL     1      14.535 -10.689   3.315  0.00  0.00    +0.049 A 
ATOM     23  C   UNL     1      13.462 -10.056   3.924  0.00  0.00    +0.163 A 
ATOM     24  O   UNL     1      12.843  -9.026   3.284  0.00  0.00    -0.473 OA
ENDBRANCH  11  15
BRANCH   1  26
ATOM     25  N   UNL     1       8.181  -2.071   3.921  0.00  0.00    -0.314 N 
ATOM     26  C   UNL     1       8.238  -3.414   3.817  0.00  0.00    +0.218 C 
ATOM     27  O   UNL     1       7.218  -4.068   3.839  0.00  0.00    -0.275 OA
ATOM     28  H   UNL     1       8.997  -1.548   3.903  0.00  0.00    +0.149 HD
BRANCH  25  29
ATOM     29  C   UNL     1       6.885  -1.403   4.062  0.00  0.00    +0.115 C 
BRANCH  29  30
ATOM     30  C   UNL     1       7.099   0.109   4.160  0.00  0.00    +0.088 C 
BRANCH  30  31
ATOM     31  S   UNL     1       5.494   0.937   4.334  0.00  0.00    -0.155 S 
BRANCH  31  32
ATOM     32  C   UNL     1       5.918   2.698   4.436  0.00  0.00    +0.104 C 
BRANCH  32  36
ATOM     33  C   UNL     1       2.345   5.002   4.859  0.00  0.00    +0.000 A 
ATOM     34  C   UNL     1       3.006   4.539   5.981  0.00  0.00    +0.000 A 
ATOM     35  C   UNL     1       4.162   3.793   5.845  0.00  0.00    +0.004 A 
ATOM     36  C   UNL     1       4.657   3.510   4.585  0.00  0.00    -0.038 A 
ATOM     37  C   UNL     1       3.996   3.972   3.463  0.00  0.00    +0.004 A 
ATOM     38  C   UNL     1       2.841   4.719   3.600  0.00  0.00    +0.000 A 
ENDBRANCH  32  36
ENDBRANCH  31  32
ENDBRANCH  30  31
ENDBRANCH  29  30
ENDBRANCH  25  29
ENDBRANCH   1  26
TORSDOF 7
