REMARK  Name = ZINC63437336
REMARK  18 active torsions:
REMARK  status: ('A' for Active; 'I' for Inactive)
REMARK    1  A    between atoms: C_1  and  C_2
REMARK    2  A    between atoms: C_2  and  C_3
REMARK    3  A    between atoms: C_3  and  C_4
REMARK    4  A    between atoms: C_4  and  C_5
REMARK    5  A    between atoms: C_5  and  C_6
REMARK    6  A    between atoms: C_6  and  C_7
REMARK    7  A    between atoms: C_10  and  C_13
REMARK    8  A    between atoms: N_15  and  C_16
REMARK    9  A    between atoms: C_16  and  C_18
REMARK   10  A    between atoms: C_16  and  C_28
REMARK   11  A    between atoms: C_18  and  C_19
REMARK   12  A    between atoms: N_30  and  C_31
REMARK   13  A    between atoms: C_31  and  C_33
REMARK   14  A    between atoms: C_31  and  C_36
REMARK   15  A    between atoms: C_33  and  C_34
REMARK   16  A    between atoms: C_33  and  C_35
REMARK   17  A    between atoms: C_36  and  O_38
REMARK   18  A    between atoms: O_38  and  C_39
REMARK                            x       y       z     vdW  Elec       q    Type
REMARK                         _______ _______ _______ _____ _____    ______ ____
ROOT
ATOM      1  C   UNL     1      -4.703  -8.832   3.577  0.00  0.00    +0.163 C 
ENDROOT
BRANCH   1   4
ATOM      2  C   UNL     1      -5.593  -6.915   2.364  0.00  0.00    +0.217 C 
ATOM      3  O   UNL     1      -5.110  -6.192   3.210  0.00  0.00    -0.275 OA
ATOM      4  N   UNL     1      -5.446  -8.251   2.455  0.00  0.00    -0.303 N 
ATOM      5  H   UNL     1      -5.832  -8.829   1.779  0.00  0.00    +0.149 HD
BRANCH   2   9
ATOM      6  C   UNL     1      -4.263  -4.652   0.018  0.00  0.00    -0.011 C 
ATOM      7  C   UNL     1      -4.939  -4.264   1.334  0.00  0.00    +0.004 C 
ATOM      8  C   UNL     1      -6.375  -4.794   1.345  0.00  0.00    +0.013 C 
ATOM      9  C   UNL     1      -6.357  -6.318   1.210  0.00  0.00    +0.075 C 
ATOM     10  C   UNL     1      -5.680  -6.706  -0.105  0.00  0.00    +0.013 C 
ATOM     11  C   UNL     1      -4.245  -6.176  -0.116  0.00  0.00    +0.004 C 
BRANCH   6  12
ATOM     12  C   UNL     1      -2.827  -4.123   0.007  0.00  0.00    +0.003 C 
BRANCH  12  13
ATOM     13  C   UNL     1      -2.848  -2.593   0.015  0.00  0.00    +0.000 C 
BRANCH  13  14
ATOM     14  C   UNL     1      -1.413  -2.063   0.004  0.00  0.00    +0.000 C 
BRANCH  14  15
ATOM     15  C   UNL     1      -1.433  -0.534   0.013  0.00  0.00    -0.000 C 
BRANCH  15  17
ATOM     16  C   UNL     1      -0.019   1.526   0.010  0.00  0.00    +0.004 C 
ATOM     17  C   UNL     1       0.002  -0.004   0.002  0.00  0.00    -0.003 C 
ENDBRANCH  15  17
ENDBRANCH  14  15
ENDBRANCH  13  14
ENDBRANCH  12  13
ENDBRANCH   6  12
ENDBRANCH   2   9
ENDBRANCH   1   4
BRANCH   1  18
ATOM     18  C   UNL     1      -4.156 -10.177   3.174  0.00  0.00    +0.234 C 
ATOM     19  O   UNL     1      -4.366 -10.608   2.060  0.00  0.00    -0.274 OA
ATOM     20  N   UNL     1      -3.433 -10.900   4.052  0.00  0.00    -0.301 N 
ATOM     21  H   UNL     1      -3.265 -10.555   4.943  0.00  0.00    +0.150 HD
BRANCH  20  22
ATOM     22  C   UNL     1      -2.901 -12.208   3.661  0.00  0.00    +0.184 C 
BRANCH  22  23
ATOM     23  C   UNL     1      -3.970 -13.280   3.881  0.00  0.00    +0.014 C 
ATOM     24  C   UNL     1      -5.201 -12.956   3.032  0.00  0.00    +0.009 C 
ATOM     25  C   UNL     1      -3.414 -14.646   3.473  0.00  0.00    +0.009 C 
ENDBRANCH  22  23
BRANCH  22  26
ATOM     26  C   UNL     1      -1.688 -12.528   4.497  0.00  0.00    +0.328 C 
ATOM     27  O   UNL     1      -1.308 -11.744   5.333  0.00  0.00    -0.249 OA
BRANCH  26  28
ATOM     28  O   UNL     1      -1.031 -13.683   4.312  0.00  0.00    -0.467 OA
ATOM     29  C   UNL     1       0.109 -13.921   5.139  0.00  0.00    +0.280 C 
ENDBRANCH  26  28
ENDBRANCH  22  26
ENDBRANCH  20  22
ENDBRANCH   1  18
BRANCH   1  30
ATOM     30  C   UNL     1      -5.638  -8.999   4.776  0.00  0.00    +0.065 C 
BRANCH  30  31
ATOM     31  C   UNL     1      -6.089  -7.644   5.255  0.00  0.00    -0.039 C 
ATOM     32  C   UNL     1      -7.231  -7.001   4.920  0.00  0.00    -0.001 A 
ATOM     33  C   UNL     1      -8.352  -7.358   4.042  0.00  0.00    +0.010 A 
ATOM     34  C   UNL     1      -9.378  -6.488   3.903  0.00  0.00    +0.001 A 
ATOM     35  C   UNL     1      -9.398  -5.258   4.574  0.00  0.00    +0.002 A 
ATOM     36  C   UNL     1      -8.405  -4.860   5.397  0.00  0.00    +0.026 A 
ATOM     37  C   UNL     1      -7.276  -5.696   5.618  0.00  0.00    +0.043 A 
ATOM     38  N   UNL     1      -6.204  -5.538   6.355  0.00  0.00    -0.380 N 
ATOM     39  C   UNL     1      -5.359  -6.729   6.213  0.00  0.00    +0.144 C 
ATOM     40  H   UNL     1      -6.004  -4.765   6.906  0.00  0.00    +0.160 HD
ENDBRANCH  30  31
ENDBRANCH   1  30
TORSDOF 14
