REMARK  Name = ZINC39655798
REMARK  10 active torsions:
REMARK  status: ('A' for Active; 'I' for Inactive)
REMARK    1  A    between atoms: C_1  and  C_2
REMARK    2  A    between atoms: C_8  and  C_11
REMARK    3  A    between atoms: C_11  and  C_12
REMARK    4  A    between atoms: C_12  and  N_13
REMARK    5  A    between atoms: C_14  and  C_16
REMARK    6  A    between atoms: C_27  and  C_29
REMARK    7  A    between atoms: C_31  and  O_37
REMARK    8  A    between atoms: C_33  and  O_35
REMARK    9  A    between atoms: O_35  and  C_36
REMARK   10  A    between atoms: O_37  and  C_38
REMARK                            x       y       z     vdW  Elec       q    Type
REMARK                         _______ _______ _______ _____ _____    ______ ____
ROOT
ATOM      1  C   UNL     1       5.244   0.114  -7.691  0.00  0.00    +0.100 C 
ATOM      2  C   UNL     1       5.998   0.458  -6.387  0.00  0.00    +0.121 C 
ATOM      3  N   UNL     1       6.368  -0.856  -5.811  0.00  0.00    -0.296 N 
ATOM      4  C   UNL     1       6.756  -1.677  -6.982  0.00  0.00    +0.115 C 
ATOM      5  C   UNL     1       5.747  -1.287  -8.080  0.00  0.00    -0.004 C 
ATOM      6  C   UNL     1       4.586  -2.277  -8.105  0.00  0.00    -0.010 C 
ATOM      7  C   UNL     1       5.102  -3.649  -8.549  0.00  0.00    -0.082 C 
ATOM      8  N   UNL     1       5.705  -3.538  -9.883  0.00  0.00    +0.379 N 
ATOM      9  C   UNL     1       6.877  -2.656  -9.831  0.00  0.00    -0.082 C 
ATOM     10  C   UNL     1       6.437  -1.242  -9.440  0.00  0.00    -0.010 C 
ATOM     11  C   UNL     1       6.354  -1.222  -4.513  0.00  0.00    +0.247 C 
ATOM     12  O   UNL     1       5.888  -0.474  -3.676  0.00  0.00    -0.270 OA
ATOM     13  H   UNL     1       5.989  -4.453 -10.199  0.00  0.00    -0.086 HD
ATOM     14  H   UNL     1       5.028  -3.158 -10.527  0.00  0.00    -0.086 HD
ENDROOT
BRANCH  11  15
ATOM     15  C   UNL     1       6.905  -2.533  -4.109  0.00  0.00    +0.044 A 
ATOM     16  C   UNL     1       7.810  -3.197  -4.939  0.00  0.00    +0.059 A 
ATOM     17  C   UNL     1       8.324  -4.425  -4.556  0.00  0.00    +0.124 A 
ATOM     18  C   UNL     1       7.941  -4.995  -3.351  0.00  0.00    +0.091 A 
ATOM     19  C   UNL     1       7.042  -4.338  -2.523  0.00  0.00    +0.124 A 
ATOM     20  C   UNL     1       6.527  -3.107  -2.896  0.00  0.00    +0.059 A 
BRANCH  19  21
ATOM     21  O   UNL     1       6.669  -4.901  -1.343  0.00  0.00    -0.495 OA
ATOM     22  C   UNL     1       7.243  -6.169  -1.020  0.00  0.00    +0.277 C 
ENDBRANCH  19  21
BRANCH  17  23
ATOM     23  O   UNL     1       9.205  -5.073  -5.363  0.00  0.00    -0.495 OA
ATOM     24  C   UNL     1       9.696  -6.335  -4.907  0.00  0.00    +0.277 C 
ENDBRANCH  17  23
ENDBRANCH  11  15
BRANCH   1  26
ATOM     25  N   UNL     1       2.902   0.285  -8.470  0.00  0.00    -0.315 N 
ATOM     26  C   UNL     1       3.757   0.088  -7.447  0.00  0.00    +0.218 C 
ATOM     27  O   UNL     1       3.330  -0.110  -6.329  0.00  0.00    -0.275 OA
ATOM     28  H   UNL     1       3.244   0.443  -9.364  0.00  0.00    +0.149 HD
BRANCH  25  29
ATOM     29  C   UNL     1       1.457   0.260  -8.232  0.00  0.00    +0.109 C 
BRANCH  29  30
ATOM     30  C   UNL     1       0.719   0.508  -9.549  0.00  0.00    +0.056 C 
BRANCH  30  38
ATOM     31  C   UNL     1      -2.070   5.189  -7.779  0.00  0.00    +0.044 C 
ATOM     32  C   UNL     1      -2.354   3.751  -8.129  0.00  0.00    -0.050 A 
ATOM     33  C   UNL     1      -3.652   3.265  -8.044  0.00  0.00    +0.005 A 
ATOM     34  C   UNL     1      -3.934   1.954  -8.359  0.00  0.00    +0.026 A 
ATOM     35  C   UNL     1      -2.910   1.106  -8.768  0.00  0.00    +0.047 A 
ATOM     36  N   UNL     1      -2.868  -0.218  -9.141  0.00  0.00    -0.360 N 
ATOM     37  C   UNL     1      -1.584  -0.572  -9.457  0.00  0.00    +0.087 A 
ATOM     38  C   UNL     1      -0.768   0.483  -9.304  0.00  0.00    -0.021 A 
ATOM     39  C   UNL     1      -1.596   1.603  -8.853  0.00  0.00    +0.003 A 
ATOM     40  C   UNL     1      -1.334   2.937  -8.534  0.00  0.00    +0.013 A 
ATOM     41  H   UNL     1      -3.634  -0.812  -9.175  0.00  0.00    +0.165 HD
ENDBRANCH  30  38
ENDBRANCH  29  30
ENDBRANCH  25  29
ENDBRANCH   1  26
TORSDOF 7
