REMARK  Name = ZINC39637431
REMARK  8 active torsions:
REMARK  status: ('A' for Active; 'I' for Inactive)
REMARK    1  A    between atoms: C_1  and  C_2
REMARK    2  A    between atoms: C_2  and  N_3
REMARK    3  A    between atoms: C_4  and  C_10
REMARK    4  A    between atoms: C_6  and  C_8
REMARK    5  A    between atoms: C_14  and  C_23
REMARK    6  A    between atoms: N_25  and  C_26
REMARK    7  A    between atoms: C_31  and  C_36
REMARK    8  A    between atoms: C_33  and  C_35
REMARK                            x       y       z     vdW  Elec       q    Type
REMARK                         _______ _______ _______ _____ _____    ______ ____
ROOT
ATOM      1  C   UNL     1      -1.788  -0.487   2.691  0.00  0.00    +0.266 C 
ATOM      2  O   UNL     1      -2.575  -0.830   3.553  0.00  0.00    -0.268 OA
ATOM      3  N   UNL     1      -0.619   0.088   3.035  0.00  0.00    -0.295 N 
ATOM      4  C   UNL     1       0.500   0.476   2.145  0.00  0.00    +0.121 C 
ATOM      5  C   UNL     1       0.998   1.825   2.710  0.00  0.00    +0.100 C 
ATOM      6  C   UNL     1       0.563   1.819   4.184  0.00  0.00    -0.004 C 
ATOM      7  C   UNL     1      -0.165   0.482   4.391  0.00  0.00    +0.115 C 
ATOM      8  C   UNL     1       1.783   1.903   5.096  0.00  0.00    -0.010 C 
ATOM      9  C   UNL     1       1.321   1.954   6.556  0.00  0.00    -0.082 C 
ATOM     10  N   UNL     1       0.453   3.120   6.756  0.00  0.00    +0.379 N 
ATOM     11  C   UNL     1      -0.763   2.985   5.944  0.00  0.00    -0.082 C 
ATOM     12  C   UNL     1      -0.389   2.979   4.460  0.00  0.00    -0.010 C 
ATOM     13  H   UNL     1       0.199   3.185   7.731  0.00  0.00    -0.086 HD
ATOM     14  H   UNL     1       0.947   3.957   6.483  0.00  0.00    -0.086 HD
ENDROOT
BRANCH   1  16
ATOM     15  N   UNL     1      -2.609   0.221   0.395  0.00  0.00    -0.258 N 
ATOM     16  C   UNL     1      -2.111  -0.702   1.272  0.00  0.00    +0.138 A 
ATOM     17  C   UNL     1      -1.973  -1.879   0.556  0.00  0.00    +0.071 A 
ATOM     18  C   UNL     1      -2.408  -1.579  -0.738  0.00  0.00    +0.075 A 
ATOM     19  N   UNL     1      -2.773  -0.323  -0.757  0.00  0.00    -0.175 NA
ATOM     20  C   UNL     1      -2.454  -2.534  -1.903  0.00  0.00    +0.069 C 
ATOM     21 BR   UNL     1      -1.331  -3.540   1.194  0.00  0.00    -0.046 Br
BRANCH  15  23
ATOM     22  C   UNL     1      -4.324   1.704   1.312  0.00  0.00    +0.029 C 
ATOM     23  C   UNL     1      -2.916   1.616   0.721  0.00  0.00    +0.141 C 
ENDBRANCH  15  23
ENDBRANCH   1  16
BRANCH   5  24
ATOM     24  C   UNL     1       2.499   1.916   2.604  0.00  0.00    +0.218 C 
ATOM     25  O   UNL     1       3.168   0.905   2.593  0.00  0.00    -0.275 OA
ATOM     26  N   UNL     1       3.097   3.121   2.522  0.00  0.00    -0.312 N 
ATOM     27  H   UNL     1       2.570   3.931   2.608  0.00  0.00    +0.149 HD
BRANCH  26  28
ATOM     28  C   UNL     1       4.543   3.208   2.302  0.00  0.00    +0.076 C 
ATOM     29  C   UNL     1       4.837   3.123   0.803  0.00  0.00    +0.022 C 
ATOM     30  C   UNL     1       6.347   3.214   0.573  0.00  0.00    +0.002 C 
ATOM     31  C   UNL     1       6.867   4.544   1.121  0.00  0.00    +0.003 C 
ATOM     32  C   UNL     1       6.573   4.629   2.620  0.00  0.00    -0.009 C 
ATOM     33  C   UNL     1       5.063   4.538   2.849  0.00  0.00    +0.009 C 
ATOM     34  C   UNL     1       4.769   4.623   4.348  0.00  0.00    +0.009 C 
ATOM     35  C   UNL     1       7.269   3.473   3.342  0.00  0.00    +0.008 C 
ENDBRANCH  26  28
ENDBRANCH   5  24
TORSDOF 4
