REMARK  Name = ZINC13626008
REMARK  11 active torsions:
REMARK  status: ('A' for Active; 'I' for Inactive)
REMARK    1  A    between atoms: C_1  and  C_2
REMARK    2  A    between atoms: C_12  and  C_13
REMARK    3  A    between atoms: C_13  and  C_14
REMARK    4  A    between atoms: C_14  and  C_15
REMARK    5  A    between atoms: N_17  and  C_18
REMARK    6  A    between atoms: C_18  and  C_19
REMARK    7  A    between atoms: C_19  and  C_20
REMARK    8  A    between atoms: C_20  and  N_60
REMARK    9  A    between atoms: C_21  and  N_60
REMARK   10  A    between atoms: C_22  and  N_60
REMARK   11  A    between atoms: C_25  and  C_26
REMARK                            x       y       z     vdW  Elec       q    Type
REMARK                         _______ _______ _______ _____ _____    ______ ____
ROOT
ATOM      1  C   UNL     1      -1.280  -0.795   0.011  0.00  0.00    +0.045 C 
ATOM      2  C   UNL     1       0.002  -0.004   0.002  0.00  0.00    -0.030 A 
ATOM      3  C   UNL     1      -0.018   1.462   0.010  0.00  0.00    +0.022 A 
ATOM      4  C   UNL     1      -1.226   2.160   0.031  0.00  0.00    +0.024 A 
ATOM      5  C   UNL     1      -1.210   3.545   0.032  0.00  0.00    +0.029 A 
ATOM      6  C   UNL     1       0.012   4.247   0.024  0.00  0.00    +0.139 A 
ATOM      7  C   UNL     1       1.210   3.547   0.009  0.00  0.00    +0.093 A 
ATOM      8  C   UNL     1       1.206   2.163   0.002  0.00  0.00    +0.143 A 
ATOM      9  O   UNL     1       2.370   1.476  -0.013  0.00  0.00    -0.422 OA
ATOM     10  C   UNL     1       2.393   0.134  -0.020  0.00  0.00    +0.341 A 
ATOM     11  O   UNL     1       3.467  -0.440  -0.034  0.00  0.00    -0.245 OA
ATOM     12  C   UNL     1       1.207  -0.629  -0.013  0.00  0.00    +0.041 A 
ATOM     13  O   UNL     1      -0.280   5.564   0.035  0.00  0.00    -0.462 OA
ATOM     14  C   UNL     1      -1.608   5.768   0.049  0.00  0.00    +0.204 A 
ATOM     15  C   UNL     1      -2.259   4.583   0.048  0.00  0.00    +0.028 A 
ENDROOT
BRANCH  15  16
ATOM     16  C   UNL     1      -3.726   4.370   0.062  0.00  0.00    -0.014 A 
ATOM     17  C   UNL     1      -4.317   3.511  -0.864  0.00  0.00    +0.010 A 
ATOM     18  C   UNL     1      -5.682   3.313  -0.844  0.00  0.00    +0.020 A 
ATOM     19  C   UNL     1      -6.467   3.972   0.087  0.00  0.00    +0.041 A 
ATOM     20  C   UNL     1      -5.886   4.830   1.006  0.00  0.00    +0.020 A 
ATOM     21  C   UNL     1      -4.521   5.031   0.997  0.00  0.00    +0.010 A 
ATOM     22 CL   UNL     1      -8.184   3.723   0.103  0.00  0.00    -0.084 Cl
ENDBRANCH  15  16
BRANCH  12  23
ATOM     23  C   UNL     1       1.277  -2.135  -0.022  0.00  0.00    +0.052 C 
BRANCH  23  24
ATOM     24  C   UNL     1       1.287  -2.636  -1.468  0.00  0.00    +0.100 C 
BRANCH  24  25
ATOM     25  C   UNL     1       1.357  -4.141  -1.477  0.00  0.00    +0.213 C 
ATOM     26  O   UNL     1       1.395  -4.753  -0.430  0.00  0.00    -0.276 OA
ATOM     27  N   UNL     1       1.377  -4.808  -2.648  0.00  0.00    -0.315 N 
ATOM     28  H   UNL     1       1.347  -4.318  -3.485  0.00  0.00    +0.149 HD
BRANCH  27  29
ATOM     29  C   UNL     1       1.446  -6.271  -2.657  0.00  0.00    +0.102 C 
BRANCH  29  30
ATOM     30  C   UNL     1       1.456  -6.772  -4.103  0.00  0.00    +0.000 C 
BRANCH  30  31
ATOM     31  C   UNL     1       1.527  -8.300  -4.112  0.00  0.00    -0.078 C 
BRANCH  31  34
ATOM     32  C   UNL     1       1.841 -10.218  -5.557  0.00  0.00    -0.097 C 
ATOM     33  C   UNL     1       0.262  -8.487  -6.168  0.00  0.00    -0.097 C 
ATOM     34  N   UNL     1       1.558  -8.768  -5.514  0.00  0.00    +0.376 N 
ATOM     35  H   UNL     1       2.300  -8.267  -6.016  0.00  0.00    -0.083 HD
ENDBRANCH  31  34
ENDBRANCH  30  31
ENDBRANCH  29  30
ENDBRANCH  27  29
ENDBRANCH  24  25
ENDBRANCH  23  24
ENDBRANCH  12  23
TORSDOF 8
