REMARK  Name = ZINC45726184
REMARK  3 active torsions:
REMARK  status: ('A' for Active; 'I' for Inactive)
REMARK    1  A    between atoms: N_12  and  C_16
REMARK    2  A    between atoms: C_16  and  C_17
REMARK    3  A    between atoms: C_30  and  C_32
REMARK                            x       y       z     vdW  Elec       q    Type
REMARK                         _______ _______ _______ _____ _____    ______ ____
ROOT
ATOM      1  C   UNL     1       7.159   1.545  -0.696  0.00  0.00    +0.238 C 
ATOM      2  O   UNL     1       6.242   2.201  -0.249  0.00  0.00    -0.273 OA
ATOM      3  N   UNL     1       8.280   2.158  -1.123  0.00  0.00    -0.256 N 
ATOM      4  C   UNL     1       9.346   1.413  -1.647  0.00  0.00    +0.058 A 
ATOM      5  C   UNL     1       9.246   0.819  -2.894  0.00  0.00    +0.025 A 
ATOM      6  C   UNL     1      10.316   0.107  -3.405  0.00  0.00    +0.002 A 
ATOM      7  C   UNL     1      11.485  -0.013  -2.675  0.00  0.00    +0.002 A 
ATOM      8  C   UNL     1      11.589   0.569  -1.425  0.00  0.00    +0.025 A 
ATOM      9  C   UNL     1      10.518   1.275  -0.903  0.00  0.00    +0.055 A 
ATOM     10  N   UNL     1      10.580   1.825   0.382  0.00  0.00    -0.284 N 
ATOM     11  C   UNL     1      10.202   3.104   0.599  0.00  0.00    +0.219 C 
ATOM     12  O   UNL     1      10.182   3.543   1.730  0.00  0.00    -0.275 OA
ATOM     13  C   UNL     1       9.806   3.988  -0.554  0.00  0.00    +0.128 C 
ATOM     14  C   UNL     1       8.406   3.615  -1.054  0.00  0.00    +0.194 C 
ATOM     15  H   UNL     1      10.896   1.285   1.123  0.00  0.00    +0.155 HD
ENDROOT
BRANCH  14  16
ATOM     16  C   UNL     1       8.181   4.212  -2.444  0.00  0.00    +0.409 C 
ATOM     17  F   UNL     1       6.901   3.874  -2.895  0.00  0.00    -0.169 F 
ATOM     18  F   UNL     1       8.301   5.604  -2.380  0.00  0.00    -0.169 F 
ATOM     19  F   UNL     1       9.137   3.702  -3.330  0.00  0.00    -0.169 F 
ENDBRANCH  14  16
BRANCH   1  20
ATOM     20  C   UNL     1       7.044   0.044  -0.773  0.00  0.00    +0.214 C 
BRANCH  20  32
ATOM     21  C   UNL     1      -0.017   1.377   0.010  0.00  0.00    +0.000 A 
ATOM     22  C   UNL     1       1.172   2.082   0.002  0.00  0.00    +0.000 A 
ATOM     23  C   UNL     1       2.375   1.405  -0.015  0.00  0.00    +0.006 A 
ATOM     24  C   UNL     1       2.398   0.019  -0.025  0.00  0.00    -0.012 A 
ATOM     25  C   UNL     1       1.207  -0.686  -0.013  0.00  0.00    -0.042 A 
ATOM     26  C   UNL     1       0.002  -0.004   0.002  0.00  0.00    +0.004 A 
ATOM     27  C   UNL     1       1.492  -2.174  -0.016  0.00  0.00    +0.038 C 
ATOM     28  C   UNL     1       2.965  -2.303  -0.464  0.00  0.00    +0.045 C 
ATOM     29  C   UNL     1       3.551  -0.948  -0.050  0.00  0.00    +0.138 C 
ATOM     30  C   UNL     1       4.627  -0.503  -1.006  0.00  0.00    +0.251 C 
ATOM     31  O   UNL     1       4.518  -0.305  -2.197  0.00  0.00    -0.272 OA
ATOM     32  N   UNL     1       5.740  -0.373  -0.252  0.00  0.00    -0.215 N 
ATOM     33  C   UNL     1       5.504  -0.674   1.032  0.00  0.00    +0.310 C 
ATOM     34  O   UNL     1       6.350  -0.631   1.903  0.00  0.00    -0.252 OA
ATOM     35  N   UNL     1       4.221  -1.029   1.248  0.00  0.00    -0.281 N 
ATOM     36  H   UNL     1       3.822  -1.286   2.095  0.00  0.00    +0.152 HD
ENDBRANCH  20  32
ENDBRANCH   1  20
TORSDOF 3
