REMARK  Name = ZINC36207121
REMARK  13 active torsions:
REMARK  status: ('A' for Active; 'I' for Inactive)
REMARK    1  A    between atoms: C_1  and  O_2
REMARK    2  A    between atoms: O_2  and  C_3
REMARK    3  A    between atoms: C_8  and  C_9
REMARK    4  A    between atoms: C_18  and  C_20
REMARK    5  A    between atoms: C_20  and  N_21
REMARK    6  A    between atoms: N_21  and  C_22
REMARK    7  A    between atoms: N_21  and  C_28
REMARK    8  A    between atoms: C_22  and  C_23
REMARK    9  A    between atoms: C_28  and  C_29
REMARK   10  A    between atoms: C_29  and  C_31
REMARK   11  A    between atoms: C_29  and  O_35
REMARK   12  A    between atoms: C_31  and  C_32
REMARK   13  A    between atoms: C_32  and  C_33
REMARK                            x       y       z     vdW  Elec       q    Type
REMARK                         _______ _______ _______ _____ _____    ______ ____
ROOT
ATOM      1  C   UNL     1       0.544  -2.597   0.824  0.00  0.00    +0.007 A 
ATOM      2  C   UNL     1       1.216  -3.250   1.803  0.00  0.00    +0.056 A 
ATOM      3  S   UNL     1      -0.080  -4.037   2.739  0.00  0.00    -0.076 S 
ATOM      4  C   UNL     1      -1.480  -3.477   1.804  0.00  0.00    +0.116 A 
ATOM      5  C   UNL     1      -0.910  -2.688   0.791  0.00  0.00    +0.080 A 
ATOM      6  C   UNL     1      -1.835  -2.094  -0.126  0.00  0.00    +0.260 A 
ATOM      7  O   UNL     1      -1.435  -1.396  -1.042  0.00  0.00    -0.267 OA
ATOM      8  N   UNL     1      -3.151  -2.318   0.038  0.00  0.00    -0.312 N 
ATOM      9  H   UNL     1      -3.783  -1.919  -0.581  0.00  0.00    +0.170 HD
ATOM     10  C   UNL     1      -3.614  -3.094   1.052  0.00  0.00    +0.094 A 
ATOM     11  N   UNL     1      -2.795  -3.658   1.899  0.00  0.00    -0.229 NA
ENDROOT
BRANCH   1  17
ATOM     12  C   UNL     1       1.107  -0.413  -0.249  0.00  0.00    +0.128 A 
ATOM     13  C   UNL     1       1.796   0.324  -1.197  0.00  0.00    +0.046 A 
ATOM     14  C   UNL     1       2.644  -0.311  -2.086  0.00  0.00    +0.004 A 
ATOM     15  C   UNL     1       2.808  -1.684  -2.035  0.00  0.00    +0.001 A 
ATOM     16  C   UNL     1       2.126  -2.431  -1.095  0.00  0.00    +0.012 A 
ATOM     17  C   UNL     1       1.274  -1.801  -0.191  0.00  0.00    +0.025 A 
BRANCH  12  19
ATOM     18  C   UNL     1       0.152   1.629   0.507  0.00  0.00    +0.277 C 
ATOM     19  O   UNL     1       0.274   0.210   0.626  0.00  0.00    -0.495 OA
ENDBRANCH  12  19
ENDBRANCH   1  17
BRANCH  10  20
ATOM     20  C   UNL     1      -5.098  -3.317   1.196  0.00  0.00    -0.003 C 
BRANCH  20  21
ATOM     21  N   UNL     1      -5.352  -4.182   2.356  0.00  0.00    +0.391 N 
ATOM     22  H   UNL     1      -4.824  -5.036   2.261  0.00  0.00    -0.080 HD
BRANCH  21  23
ATOM     23  C   UNL     1      -4.942  -3.487   3.584  0.00  0.00    -0.002 C 
BRANCH  23  24
ATOM     24  C   UNL     1      -5.068  -4.425   4.757  0.00  0.00    +0.089 A 
ATOM     25  C   UNL     1      -4.146  -5.322   5.150  0.00  0.00    +0.042 A 
ATOM     26  C   UNL     1      -4.673  -5.982   6.284  0.00  0.00    +0.041 A 
ATOM     27  C   UNL     1      -5.887  -5.450   6.515  0.00  0.00    +0.195 A 
ATOM     28  O   UNL     1      -6.118  -4.503   5.591  0.00  0.00    -0.470 OA
ENDBRANCH  23  24
ENDBRANCH  21  23
BRANCH  21  29
ATOM     29  C   UNL     1      -6.785  -4.497   2.427  0.00  0.00    -0.046 C 
BRANCH  29  30
ATOM     30  C   UNL     1      -7.181  -5.344   1.216  0.00  0.00    +0.098 C 
BRANCH  30  31
ATOM     31  O   UNL     1      -6.453  -6.573   1.236  0.00  0.00    -0.394 OA
ATOM     32  H   UNL     1      -6.661  -7.141   1.991  0.00  0.00    +0.210 HD
ENDBRANCH  30  31
BRANCH  30  33
ATOM     33  C   UNL     1      -8.682  -5.639   1.269  0.00  0.00    +0.033 C 
BRANCH  33  34
ATOM     34  C   UNL     1      -9.101  -6.379  -0.003  0.00  0.00    +0.029 C 
BRANCH  34  35
ATOM     35  C   UNL     1     -10.579  -6.669   0.050  0.00  0.00    -0.034 C 
ATOM     36  C   UNL     1     -11.360  -6.272  -0.925  0.00  0.00    +0.004 C 
ENDBRANCH  34  35
ENDBRANCH  33  34
ENDBRANCH  30  33
ENDBRANCH  29  30
ENDBRANCH  21  29
ENDBRANCH  20  21
ENDBRANCH  10  20
TORSDOF 12
