REMARK  Name = ZINC06650279
REMARK  3 active torsions:
REMARK  status: ('A' for Active; 'I' for Inactive)
REMARK    1  A    between atoms: C_1  and  C_2
REMARK    2  A    between atoms: C_2  and  C_3
REMARK    3  A    between atoms: C_2  and  N_4
REMARK                            x       y       z     vdW  Elec       q    Type
REMARK                         _______ _______ _______ _____ _____    ______ ____
ROOT
ATOM      1  N   UNL     1      -1.372  -0.511   0.012  0.00  0.00    -0.265 N 
ATOM      2  C   UNL     1      -1.911  -1.323  -0.988  0.00  0.00    +0.044 A 
ATOM      3  C   UNL     1      -1.342  -1.828  -2.155  0.00  0.00    +0.024 A 
ATOM      4  C   UNL     1      -2.087  -2.622  -3.002  0.00  0.00    +0.002 A 
ATOM      5  C   UNL     1      -3.402  -2.923  -2.701  0.00  0.00    +0.001 A 
ATOM      6  C   UNL     1      -3.975  -2.426  -1.543  0.00  0.00    +0.010 A 
ATOM      7  C   UNL     1      -3.234  -1.635  -0.693  0.00  0.00    +0.027 A 
ATOM      8  C   UNL     1      -3.539  -0.958   0.615  0.00  0.00    +0.221 C 
ATOM      9  C   UNL     1      -2.261  -0.253   0.990  0.00  0.00    +0.270 C 
ATOM     10  O   UNL     1      -2.070   0.420   1.981  0.00  0.00    -0.270 OA
ATOM     11  N   UNL     1      -3.793  -1.995   1.620  0.00  0.00    -0.325 N 
ATOM     12  C   UNL     1      -4.941  -1.958   2.259  0.00  0.00    +0.191 C 
ATOM     13  N   UNL     1      -5.860  -1.017   2.020  0.00  0.00    -0.186 NA
ATOM     14  C   UNL     1      -5.722  -0.046   1.138  0.00  0.00    +0.197 C 
ATOM     15  N   UNL     1      -4.578   0.047   0.392  0.00  0.00    -0.236 N 
ATOM     16  C   UNL     1      -4.685   1.145  -0.451  0.00  0.00    +0.060 A 
ATOM     17  C   UNL     1      -3.839   1.697  -1.403  0.00  0.00    +0.025 A 
ATOM     18  C   UNL     1      -4.229   2.821  -2.102  0.00  0.00    +0.002 A 
ATOM     19  C   UNL     1      -5.461   3.403  -1.858  0.00  0.00    +0.002 A 
ATOM     20  C   UNL     1      -6.311   2.862  -0.914  0.00  0.00    +0.025 A 
ATOM     21  C   UNL     1      -5.928   1.732  -0.206  0.00  0.00    +0.055 A 
ATOM     22  N   UNL     1      -6.554   0.977   0.783  0.00  0.00    -0.285 N 
ATOM     23  N   UNL     1      -5.206  -2.923   3.211  0.00  0.00    -0.329 N 
ATOM     24  H   UNL     1      -7.433   1.149   1.156  0.00  0.00    +0.155 HD
ATOM     25  H   UNL     1      -4.551  -3.613   3.397  0.00  0.00    +0.145 HD
ATOM     26  H   UNL     1      -6.048  -2.911   3.692  0.00  0.00    +0.145 HD
ATOM     27  H   UNL     1      -3.137  -2.685   1.806  0.00  0.00    +0.165 HD
ENDROOT
BRANCH   1  29
ATOM     28  C   UNL     1      -0.019   1.526   0.010  0.00  0.00    +0.028 C 
ATOM     29  C   UNL     1       0.002  -0.004   0.002  0.00  0.00    +0.076 C 
ATOM     30  C   UNL     1       0.742  -0.511   1.242  0.00  0.00    +0.028 C 
ENDBRANCH   1  29
TORSDOF 1
