REMARK  Name = ZINC00984920
REMARK  3 active torsions:
REMARK  status: ('A' for Active; 'I' for Inactive)
REMARK    1  A    between atoms: C_5  and  N_7
REMARK    2  A    between atoms: C_9  and  C_19
REMARK    3  A    between atoms: C_14  and  O_18
REMARK                            x       y       z     vdW  Elec       q    Type
REMARK                         _______ _______ _______ _____ _____    ______ ____
ROOT
ATOM      1  N   UNL     1       0.815   6.984   1.147  0.00  0.00    -0.211 NA
ATOM      2  C   UNL     1       0.964   5.868   0.468  0.00  0.00    +0.233 A 
ATOM      3  C   UNL     1       2.299   5.279   0.248  0.00  0.00    +0.099 A 
ATOM      4  C   UNL     1       2.365   3.911   0.029  0.00  0.00    +0.030 A 
ATOM      5  C   UNL     1       1.151   3.178  -0.001  0.00  0.00    +0.018 A 
ATOM      6  C   UNL     1       1.169   1.775  -0.025  0.00  0.00    +0.015 A 
ATOM      7  C   UNL     1      -0.004   1.080  -0.020  0.00  0.00    +0.046 A 
ATOM      8  C   UNL     1      -1.225   1.754  -0.006  0.00  0.00    +0.120 A 
ATOM      9  C   UNL     1      -1.262   3.140   0.001  0.00  0.00    +0.092 A 
ATOM     10  C   UNL     1      -0.080   3.861  -0.011  0.00  0.00    +0.141 A 
ATOM     11  O   UNL     1      -0.106   5.216  -0.057  0.00  0.00    -0.437 OA
ENDROOT
BRANCH   1  16
ATOM     12  C   UNL     1      -2.122   9.000   0.343  0.00  0.00    +0.002 A 
ATOM     13  C   UNL     1      -2.919   8.743   1.445  0.00  0.00    +0.001 A 
ATOM     14  C   UNL     1      -2.473   7.901   2.448  0.00  0.00    +0.017 A 
ATOM     15  C   UNL     1      -1.229   7.310   2.356  0.00  0.00    +0.043 A 
ATOM     16  C   UNL     1      -0.419   7.566   1.246  0.00  0.00    +0.082 A 
ATOM     17  C   UNL     1      -0.874   8.422   0.240  0.00  0.00    +0.029 A 
ATOM     18 BR   UNL     1      -0.621   6.160   3.728  0.00  0.00    -0.048 Br
ENDBRANCH   1  16
BRANCH   3  19
ATOM     19  C   UNL     1       3.513   6.111   0.260  0.00  0.00    +0.247 C 
ATOM     20  O   UNL     1       3.428   7.309   0.455  0.00  0.00    -0.270 OA
ATOM     21  N   UNL     1       4.720   5.546   0.057  0.00  0.00    -0.325 N 
ATOM     22  H   UNL     1       4.788   4.591  -0.098  0.00  0.00    +0.145 HD
ATOM     23  H   UNL     1       5.520   6.094   0.065  0.00  0.00    +0.145 HD
ENDBRANCH   3  19
BRANCH   8  24
ATOM     24  O   UNL     1      -2.384   1.048   0.006  0.00  0.00    -0.507 OA
ATOM     25  H   UNL     1      -2.710   0.843   0.892  0.00  0.00    +0.292 HD
ENDBRANCH   8  24
TORSDOF 3
