REMARK  Name = ZINC15289291
REMARK  4 active torsions:
REMARK  status: ('A' for Active; 'I' for Inactive)
REMARK    1  A    between atoms: C_1  and  C_2
REMARK    2  A    between atoms: C_7  and  C_13
REMARK    3  A    between atoms: C_13  and  N_14
REMARK    4  A    between atoms: N_14  and  C_15
REMARK                            x       y       z     vdW  Elec       q    Type
REMARK                         _______ _______ _______ _____ _____    ______ ____
ROOT
ATOM      1  C   UNL     1       0.095  -6.274   1.112  0.00  0.00    +0.157 C 
ENDROOT
BRANCH   1   8
ATOM      2  C   UNL     1      -0.018   1.503   0.010  0.00  0.00    +0.045 C 
ATOM      3  C   UNL     1       0.002  -0.004   0.002  0.00  0.00    -0.034 A 
ATOM      4  C   UNL     1       0.006  -0.697  -1.217  0.00  0.00    +0.008 A 
ATOM      5  C   UNL     1       0.025  -2.059  -1.216  0.00  0.00    +0.047 A 
ATOM      6  C   UNL     1       0.040  -2.750   0.010  0.00  0.00    +0.141 A 
ATOM      7  N   UNL     1       0.059  -4.082   0.013  0.00  0.00    -0.232 NA
ATOM      8  C   UNL     1       0.074  -4.768   1.145  0.00  0.00    +0.066 A 
ATOM      9  C   UNL     1       0.071  -4.104   2.356  0.00  0.00    +0.095 A 
ATOM     10  C   UNL     1       0.051  -2.704   2.361  0.00  0.00    +0.259 A 
ATOM     11  O   UNL     1       0.048  -2.088   3.415  0.00  0.00    -0.267 OA
ATOM     12  N   UNL     1       0.037  -2.046   1.182  0.00  0.00    -0.268 N 
ATOM     13  C   UNL     1       0.022  -0.685   1.170  0.00  0.00    +0.099 A 
ENDBRANCH   1   8
BRANCH   1  14
ATOM     14  N   UNL     1      -1.153  -6.767   0.524  0.00  0.00    -0.338 N 
ATOM     15  H   UNL     1      -1.832  -6.139   0.230  0.00  0.00    +0.146 HD
BRANCH  14  16
ATOM     16  C   UNL     1      -1.366  -8.137   0.388  0.00  0.00    +0.035 A 
ATOM     17  C   UNL     1      -0.408  -9.035   0.810  0.00  0.00    +0.023 A 
ATOM     18  C   UNL     1      -0.611 -10.405   0.679  0.00  0.00    +0.002 A 
ATOM     19  C   UNL     1      -1.757 -10.897   0.132  0.00  0.00    +0.008 A 
ATOM     20  C   UNL     1      -2.758 -10.016  -0.310  0.00  0.00    -0.016 A 
ATOM     21  C   UNL     1      -2.566  -8.619  -0.177  0.00  0.00    +0.003 A 
ATOM     22  C   UNL     1      -3.569  -7.740  -0.615  0.00  0.00    +0.010 A 
ATOM     23  C   UNL     1      -4.714  -8.240  -1.156  0.00  0.00    +0.001 A 
ATOM     24  C   UNL     1      -4.907  -9.614  -1.282  0.00  0.00    +0.001 A 
ATOM     25  C   UNL     1      -3.951 -10.495  -0.879  0.00  0.00    +0.008 A 
ENDBRANCH  14  16
ENDBRANCH   1  14
TORSDOF 3
