REMARK  Name = ZINC37621888
REMARK  8 active torsions:
REMARK  status: ('A' for Active; 'I' for Inactive)
REMARK    1  A    between atoms: C_1  and  C_2
REMARK    2  A    between atoms: C_2  and  C_3
REMARK    3  A    between atoms: C_3  and  C_4
REMARK    4  A    between atoms: C_4  and  C_5
REMARK    5  A    between atoms: C_4  and  C_6
REMARK    6  A    between atoms: C_4  and  N_17
REMARK    7  A    between atoms: N_8  and  C_9
REMARK    8  A    between atoms: C_9  and  C_16
REMARK                            x       y       z     vdW  Elec       q    Type
REMARK                         _______ _______ _______ _____ _____    ______ ____
ROOT
ATOM      1  C   UNL     1       1.382  -2.542   2.512  0.00  0.00    +0.202 C 
ATOM      2  O   UNL     1       2.157  -1.839   3.127  0.00  0.00    -0.277 OA
ATOM      3  N   UNL     1       1.076  -3.771   2.973  0.00  0.00    -0.310 N 
ATOM      4  H   UNL     1       0.456  -4.332   2.482  0.00  0.00    +0.149 HD
ENDROOT
BRANCH   3   5
ATOM      5  C   UNL     1       1.678  -4.258   4.217  0.00  0.00    +0.052 C 
ATOM      6  C   UNL     1       1.368  -3.262   5.334  0.00  0.00    +0.049 C 
ATOM      7  C   UNL     1       0.037  -3.641   6.040  0.00  0.00    +0.168 C 
ATOM      8  S   UNL     1       0.219  -5.479   6.072  0.00  0.00    -0.029 S 
ATOM      9  O   UNL     1      -1.063  -6.077   5.936  0.00  0.00    -0.174 OA
ATOM     10  O   UNL     1       1.054  -5.847   7.161  0.00  0.00    -0.174 OA
ATOM     11  C   UNL     1       1.151  -5.678   4.497  0.00  0.00    +0.191 C 
ATOM     12  C   UNL     1       3.195  -4.325   4.032  0.00  0.00    +0.033 C 
ENDBRANCH   3   5
BRANCH   1  13
ATOM     13  C   UNL     1       0.763  -2.041   1.233  0.00  0.00    +0.004 C 
ATOM     14  C   UNL     1       1.586  -2.533   0.041  0.00  0.00    -0.001 C 
BRANCH  13  15
ATOM     15  N   UNL     1      -0.611  -2.549   1.123  0.00  0.00    +0.387 N 
ATOM     16  H   UNL     1      -1.026  -2.213   0.266  0.00  0.00    -0.089 HD
ATOM     17  H   UNL     1      -0.598  -3.557   1.117  0.00  0.00    -0.089 HD
ATOM     18  H   UNL     1      -1.154  -2.224   1.909  0.00  0.00    -0.089 HD
ENDBRANCH  13  15
BRANCH  13  19
ATOM     19  C   UNL     1       0.742  -0.511   1.242  0.00  0.00    -0.004 C 
BRANCH  19  21
ATOM     20  C   UNL     1      -0.019   1.526   0.010  0.00  0.00    +0.004 C 
ATOM     21  C   UNL     1       0.002  -0.004   0.002  0.00  0.00    -0.004 C 
ENDBRANCH  19  21
ENDBRANCH  13  19
ENDBRANCH   1  13
TORSDOF 5
