REMARK  Name = ZINC63622959
REMARK  11 active torsions:
REMARK  status: ('A' for Active; 'I' for Inactive)
REMARK    1  A    between atoms: C_1  and  C_2
REMARK    2  A    between atoms: C_2  and  C_3
REMARK    3  A    between atoms: C_6  and  C_9
REMARK    4  A    between atoms: C_9  and  C_11
REMARK    5  A    between atoms: C_11  and  O_12
REMARK    6  A    between atoms: O_12  and  C_13
REMARK    7  A    between atoms: C_13  and  C_15
REMARK    8  A    between atoms: C_15  and  C_17
REMARK    9  A    between atoms: C_15  and  N_27
REMARK   10  A    between atoms: C_17  and  C_18
REMARK   11  A    between atoms: C_28  and  C_30
REMARK                            x       y       z     vdW  Elec       q    Type
REMARK                         _______ _______ _______ _____ _____    ______ ____
ROOT
ATOM      1  C   UNL     1       3.297  -3.429   9.248  0.00  0.00    +0.186 C 
ENDROOT
BRANCH   1   2
ATOM      2  N   UNL     1       2.494  -3.674  10.449  0.00  0.00    -0.302 N 
ATOM      3  C   UNL     1       3.069  -3.625  11.666  0.00  0.00    +0.220 C 
ATOM      4  O   UNL     1       4.252  -3.379  11.768  0.00  0.00    -0.275 OA
ATOM      5  H   UNL     1       1.547  -3.871  10.367  0.00  0.00    +0.150 HD
BRANCH   3   6
ATOM      6  C   UNL     1       2.243  -3.877  12.901  0.00  0.00    +0.048 C 
ATOM      7  C   UNL     1       1.640  -5.282  12.833  0.00  0.00    +0.019 C 
ATOM      8  C   UNL     1       0.801  -5.538  14.087  0.00  0.00    -0.009 C 
ATOM      9  C   UNL     1       1.689  -5.423  15.327  0.00  0.00    +0.007 C 
ATOM     10  C   UNL     1       2.292  -4.019  15.395  0.00  0.00    -0.009 C 
ATOM     11  C   UNL     1       3.131  -3.763  14.141  0.00  0.00    +0.019 C 
ATOM     12  C   UNL     1       1.168  -2.985  15.476  0.00  0.00    +0.007 C 
ATOM     13  C   UNL     1       0.280  -3.099  14.236  0.00  0.00    -0.009 C 
ATOM     14  C   UNL     1      -0.324  -4.503  14.168  0.00  0.00    +0.007 C 
ATOM     15  C   UNL     1       1.119  -2.843  12.982  0.00  0.00    +0.019 C 
ENDBRANCH   3   6
ENDBRANCH   1   2
BRANCH   1  16
ATOM     16  C   UNL     1       2.404  -2.937   8.138  0.00  0.00    +0.328 C 
ATOM     17  O   UNL     1       1.219  -2.804   8.330  0.00  0.00    -0.249 OA
BRANCH  16  18
ATOM     18  O   UNL     1       2.926  -2.646   6.936  0.00  0.00    -0.455 OA
BRANCH  18  19
ATOM     19  C   UNL     1       2.022  -2.184   5.931  0.00  0.00    +0.311 C 
BRANCH  19  20
ATOM     20  C   UNL     1       2.782  -1.910   4.659  0.00  0.00    +0.200 C 
ATOM     21  O   UNL     1       3.980  -2.091   4.618  0.00  0.00    -0.288 OA
BRANCH  20  25
ATOM     22  C   UNL     1       0.731  -0.503   1.223  0.00  0.00    -0.048 A 
ATOM     23  C   UNL     1       2.099  -0.709   1.172  0.00  0.00    +0.004 A 
ATOM     24  C   UNL     1       2.773  -1.166   2.285  0.00  0.00    +0.012 A 
ATOM     25  C   UNL     1       2.071  -1.421   3.467  0.00  0.00    +0.021 A 
ATOM     26  C   UNL     1       0.689  -1.211   3.510  0.00  0.00    +0.012 A 
ATOM     27  C   UNL     1       0.030  -0.749   2.391  0.00  0.00    +0.004 A 
BRANCH  22  29
ATOM     28  C   UNL     1      -0.019   1.526   0.010  0.00  0.00    +0.009 C 
ATOM     29  C   UNL     1       0.002  -0.004   0.002  0.00  0.00    +0.032 C 
ENDBRANCH  22  29
ENDBRANCH  20  25
ENDBRANCH  19  20
ENDBRANCH  18  19
ENDBRANCH  16  18
ENDBRANCH   1  16
BRANCH   1  30
ATOM     30  C   UNL     1       3.978  -4.729   8.816  0.00  0.00    +0.067 C 
BRANCH  30  31
ATOM     31  C   UNL     1       4.963  -5.156   9.874  0.00  0.00    -0.039 C 
ATOM     32  C   UNL     1       4.745  -6.034  10.881  0.00  0.00    -0.001 A 
ATOM     33  C   UNL     1       3.572  -6.822  11.276  0.00  0.00    +0.010 A 
ATOM     34  C   UNL     1       3.660  -7.632  12.356  0.00  0.00    +0.001 A 
ATOM     35  C   UNL     1       4.840  -7.736  13.105  0.00  0.00    +0.002 A 
ATOM     36  C   UNL     1       5.959  -7.044  12.803  0.00  0.00    +0.026 A 
ATOM     37  C   UNL     1       5.980  -6.162  11.688  0.00  0.00    +0.043 A 
ATOM     38  N   UNL     1       6.923  -5.394  11.200  0.00  0.00    -0.380 N 
ATOM     39  C   UNL     1       6.395  -4.695  10.023  0.00  0.00    +0.144 C 
ATOM     40  H   UNL     1       7.822  -5.305  11.555  0.00  0.00    +0.160 HD
ENDBRANCH  30  31
ENDBRANCH   1  30
TORSDOF 10
