REMARK  Name = ZINC04030491
REMARK  4 active torsions:
REMARK  status: ('A' for Active; 'I' for Inactive)
REMARK    1  A    between atoms: C_1  and  C_2
REMARK    2  A    between atoms: C_7  and  C_8
REMARK    3  A    between atoms: C_12  and  C_15
REMARK    4  A    between atoms: C_15  and  C_16
REMARK                            x       y       z     vdW  Elec       q    Type
REMARK                         _______ _______ _______ _____ _____    ______ ____
ROOT
ATOM      1  C   UNL     1      -2.103  -2.911   1.172  0.00  0.00    +0.044 C 
ATOM      2  C   UNL     1      -0.987  -2.115   0.546  0.00  0.00    -0.046 A 
ATOM      3  C   UNL     1      -1.025  -0.732   0.576  0.00  0.00    +0.028 A 
ATOM      4  C   UNL     1       0.002  -0.004   0.002  0.00  0.00    +0.049 A 
ATOM      5  C   UNL     1       1.077  -0.661  -0.598  0.00  0.00    +0.055 A 
ATOM      6  C   UNL     1       1.105  -2.046  -0.627  0.00  0.00    +0.028 A 
ATOM      7  C   UNL     1       0.073  -2.768  -0.055  0.00  0.00    -0.046 A 
ATOM      8  C   UNL     1       0.105  -4.274  -0.086  0.00  0.00    +0.044 C 
ATOM      9  N   UNL     1       2.124   0.084  -1.154  0.00  0.00    -0.282 N 
ATOM     10  C   UNL     1       2.209   1.412  -0.952  0.00  0.00    +0.238 C 
ATOM     11  O   UNL     1       3.050   2.056  -1.542  0.00  0.00    -0.273 OA
ATOM     12  C   UNL     1       1.270   2.108   0.001  0.00  0.00    +0.166 C 
ATOM     13  N   UNL     1      -0.017   1.398   0.010  0.00  0.00    -0.331 N 
ATOM     14  H   UNL     1       2.796  -0.362  -1.692  0.00  0.00    +0.155 HD
ATOM     15  H   UNL     1      -0.856   1.886   0.016  0.00  0.00    +0.147 HD
ENDROOT
BRANCH  12  16
ATOM     16  C   UNL     1       1.870   2.098   1.409  0.00  0.00    +0.128 C 
BRANCH  16  17
ATOM     17  C   UNL     1       0.985   2.890   2.337  0.00  0.00    +0.223 C 
ATOM     18  O   UNL     1      -0.025   3.411   1.914  0.00  0.00    -0.275 OA
ATOM     19  N   UNL     1       1.316   3.019   3.637  0.00  0.00    -0.240 N 
ATOM     20  C   UNL     1       0.525   3.727   4.467  0.00  0.00    +0.303 C 
ATOM     21  O   UNL     1      -0.487   4.249   4.043  0.00  0.00    -0.253 OA
ATOM     22  N   UNL     1       0.857   3.857   5.767  0.00  0.00    -0.313 N 
ATOM     23  H   UNL     1       2.124   2.603   3.975  0.00  0.00    +0.159 HD
ATOM     24  H   UNL     1       1.665   3.440   6.105  0.00  0.00    +0.146 HD
ATOM     25  H   UNL     1       0.287   4.367   6.364  0.00  0.00    +0.146 HD
ENDBRANCH  16  17
ENDBRANCH  12  16
TORSDOF 2
