REMARK  Name = ZINC38990108
REMARK  4 active torsions:
REMARK  status: ('A' for Active; 'I' for Inactive)
REMARK    1  A    between atoms: C_10  and  N_11
REMARK    2  A    between atoms: C_12  and  O_36
REMARK    3  A    between atoms: C_15  and  O_35
REMARK    4  A    between atoms: C_16  and  C_20
REMARK                            x       y       z     vdW  Elec       q    Type
REMARK                         _______ _______ _______ _____ _____    ______ ____
ROOT
ATOM      1  N   UNL     1       4.975   0.160   0.140  0.00  0.00    -0.225 N 
ATOM      2  C   UNL     1       5.657   0.611   1.345  0.00  0.00    +0.338 C 
ATOM      3  N   UNL     1       6.558   1.720   1.081  0.00  0.00    -0.204 NA
ATOM      4  C   UNL     1       7.024   2.008  -0.072  0.00  0.00    +0.200 C 
ATOM      5  C   UNL     1       6.686   1.224  -1.306  0.00  0.00    +0.183 C 
ATOM      6  C   UNL     1       5.437   0.418  -1.090  0.00  0.00    +0.237 C 
ATOM      7  O   UNL     1       4.831  -0.006  -2.051  0.00  0.00    -0.274 OA
ENDROOT
BRANCH   5   8
ATOM      8  C   UNL     1       7.841   0.275  -1.635  0.00  0.00    +0.122 C 
ATOM      9  C   UNL     1       7.560  -0.433  -2.939  0.00  0.00    +0.039 A 
ATOM     10  H   UNL     1       6.839   1.053  -4.209  0.00  0.00    +0.166 HD
ATOM     11  C   UNL     1       7.774  -1.756  -3.120  0.00  0.00    -0.016 A 
ATOM     12  C   UNL     1       7.392  -2.070  -4.478  0.00  0.00    +0.003 A 
ATOM     13  C   UNL     1       7.394  -3.256  -5.217  0.00  0.00    +0.010 A 
ATOM     14  C   UNL     1       6.952  -3.181  -6.515  0.00  0.00    +0.001 A 
ATOM     15  C   UNL     1       6.521  -1.992  -7.078  0.00  0.00    +0.002 A 
ATOM     16  C   UNL     1       6.509  -0.802  -6.371  0.00  0.00    +0.026 A 
ATOM     17  C   UNL     1       6.952  -0.847  -5.051  0.00  0.00    +0.047 A 
ATOM     18  N   UNL     1       7.069   0.118  -4.091  0.00  0.00    -0.356 N 
ATOM     19  C   UNL     1       8.317  -2.666  -2.046  0.00  0.00    +0.052 C 
ATOM     20  C   UNL     1       8.925  -1.788  -0.944  0.00  0.00    +0.086 C 
ATOM     21  N   UNL     1       7.970  -0.733  -0.570  0.00  0.00    -0.307 NA
ATOM     22  H   UNL     1       8.227  -0.303   0.306  0.00  0.00    +0.123 HD
ENDBRANCH   5   8
BRANCH   1  32
ATOM     23  C   UNL     1       0.072   1.329   0.400  0.00  0.00    +0.001 A 
ATOM     24  C   UNL     1       1.237   2.082   0.268  0.00  0.00    +0.001 A 
ATOM     25  C   UNL     1       2.458   1.480   0.225  0.00  0.00    +0.010 A 
ATOM     26  C   UNL     1       2.548   0.083   0.314  0.00  0.00    +0.004 A 
ATOM     27  C   UNL     1       1.364  -0.684   0.449  0.00  0.00    -0.016 A 
ATOM     28  C   UNL     1       0.121  -0.028   0.490  0.00  0.00    +0.008 A 
ATOM     29  C   UNL     1       1.452  -2.083   0.539  0.00  0.00    +0.008 A 
ATOM     30  C   UNL     1       2.670  -2.692   0.497  0.00  0.00    +0.002 A 
ATOM     31  C   UNL     1       3.840  -1.949   0.365  0.00  0.00    +0.024 A 
ATOM     32  C   UNL     1       3.796  -0.575   0.273  0.00  0.00    +0.048 A 
ENDBRANCH   1  32
BRANCH   4  33
ATOM     33  O   UNL     1       7.857   3.063  -0.186  0.00  0.00    -0.495 OA
ATOM     34  H   UNL     1       8.029   3.521   0.648  0.00  0.00    +0.293 HD
ENDBRANCH   4  33
BRANCH   2  35
ATOM     35  O   UNL     1       6.409  -0.476   1.887  0.00  0.00    -0.356 OA
ATOM     36  H   UNL     1       6.894  -0.256   2.694  0.00  0.00    +0.214 HD
ENDBRANCH   2  35
TORSDOF 4
