REMARK  Name = ZINC03870337
REMARK  7 active torsions:
REMARK  status: ('A' for Active; 'I' for Inactive)
REMARK    1  A    between atoms: C_2  and  C_10
REMARK    2  A    between atoms: C_4  and  O_9
REMARK    3  A    between atoms: C_5  and  O_8
REMARK    4  A    between atoms: C_6  and  O_7
REMARK    5  A    between atoms: C_12  and  O_24
REMARK    6  A    between atoms: C_16  and  O_23
REMARK    7  A    between atoms: C_18  and  O_22
REMARK                            x       y       z     vdW  Elec       q    Type
REMARK                         _______ _______ _______ _____ _____    ______ ____
ROOT
ATOM      1  C   UNL     1       1.145   3.598   0.011  0.00  0.00    +0.232 C 
ATOM      2  C   UNL     1       1.413   4.112   1.431  0.00  0.00    +0.164 C 
ATOM      3  C   UNL     1       1.271   5.636   1.426  0.00  0.00    +0.078 C 
ATOM      4  C   UNL     1       2.050   6.215   0.272  0.00  0.00    +0.038 A 
ATOM      5  C   UNL     1       2.370   7.568   0.293  0.00  0.00    +0.127 A 
ATOM      6  C   UNL     1       3.080   8.134  -0.752  0.00  0.00    +0.091 A 
ATOM      7  C   UNL     1       3.475   7.348  -1.825  0.00  0.00    +0.124 A 
ATOM      8  C   UNL     1       3.160   6.000  -1.846  0.00  0.00    +0.091 A 
ATOM      9  C   UNL     1       2.447   5.429  -0.796  0.00  0.00    +0.132 A 
ATOM     10  O   UNL     1       2.166   4.101  -0.852  0.00  0.00    -0.481 OA
ENDROOT
BRANCH   1  12
ATOM     11  C   UNL     1      -0.017   1.382   0.010  0.00  0.00    +0.056 A 
ATOM     12  C   UNL     1       1.170   2.092   0.002  0.00  0.00    +0.002 A 
ATOM     13  C   UNL     1       2.379   1.423  -0.013  0.00  0.00    +0.056 A 
ATOM     14  C   UNL     1       2.407   0.036  -0.022  0.00  0.00    +0.162 A 
ATOM     15  C   UNL     1       1.216  -0.681  -0.014  0.00  0.00    +0.201 A 
ATOM     16  C   UNL     1       0.002  -0.004   0.002  0.00  0.00    +0.162 A 
BRANCH  16  17
ATOM     17  O   UNL     1      -1.166  -0.701   0.010  0.00  0.00    -0.503 OA
ATOM     18  H   UNL     1      -1.512  -0.898  -0.871  0.00  0.00    +0.292 HD
ENDBRANCH  16  17
BRANCH  15  19
ATOM     19  O   UNL     1       1.239  -2.041  -0.022  0.00  0.00    -0.501 OA
ATOM     20  H   UNL     1       1.254  -2.440   0.859  0.00  0.00    +0.292 HD
ENDBRANCH  15  19
BRANCH  14  21
ATOM     21  O   UNL     1       3.597  -0.621  -0.038  0.00  0.00    -0.503 OA
ATOM     22  H   UNL     1       3.951  -0.816   0.841  0.00  0.00    +0.292 HD
ENDBRANCH  14  21
ENDBRANCH   1  12
BRANCH   7  23
ATOM     23  O   UNL     1       4.171   7.900  -2.853  0.00  0.00    -0.507 OA
ATOM     24  H   UNL     1       5.130   7.876  -2.737  0.00  0.00    +0.292 HD
ENDBRANCH   7  23
BRANCH   5  25
ATOM     25  O   UNL     1       1.982   8.338   1.344  0.00  0.00    -0.506 OA
ATOM     26  H   UNL     1       2.628   8.375   2.063  0.00  0.00    +0.292 HD
ENDBRANCH   5  25
BRANCH   2  27
ATOM     27  O   UNL     1       0.466   3.542   2.336  0.00  0.00    -0.387 OA
ATOM     28  H   UNL     1       0.579   3.825   3.254  0.00  0.00    +0.210 HD
ENDBRANCH   2  27
TORSDOF 7
