REMARK  Name = ZINC13064488
REMARK  17 active torsions:
REMARK  status: ('A' for Active; 'I' for Inactive)
REMARK    1  A    between atoms: C_1  and  C_2
REMARK    2  A    between atoms: C_2  and  C_3
REMARK    3  A    between atoms: C_3  and  C_5
REMARK    4  A    between atoms: C_3  and  N_73
REMARK    5  A    between atoms: N_9  and  C_10
REMARK    6  A    between atoms: C_10  and  C_11
REMARK    7  A    between atoms: C_10  and  C_12
REMARK    8  A    between atoms: C_10  and  C_13
REMARK    9  A    between atoms: C_13  and  C_14
REMARK   10  A    between atoms: C_15  and  C_16
REMARK   11  A    between atoms: C_15  and  N_73
REMARK   12  A    between atoms: C_23  and  C_24
REMARK   13  A    between atoms: C_23  and  N_73
REMARK   14  A    between atoms: C_28  and  O_38
REMARK   15  A    between atoms: C_29  and  O_36
REMARK   16  A    between atoms: O_36  and  C_37
REMARK   17  A    between atoms: O_38  and  C_39
REMARK                            x       y       z     vdW  Elec       q    Type
REMARK                         _______ _______ _______ _____ _____    ______ ____
ROOT
ATOM      1  N   UNL     1      -0.251  -0.218   4.311  0.00  0.00    +0.392 N 
ATOM      2  H   UNL     1      -0.536   0.294   5.153  0.00  0.00    -0.080 HD
ENDROOT
BRANCH   1   3
ATOM      3  C   UNL     1       0.200   0.750   3.289  0.00  0.00    +0.003 C 
BRANCH   3   4
ATOM      4  C   UNL     1       0.814   1.935   3.989  0.00  0.00    +0.139 A 
ATOM      5  N   UNL     1       1.444   1.925   5.138  0.00  0.00    -0.115 NA
ATOM      6  N   UNL     1       1.815   3.131   5.399  0.00  0.00    -0.023 NA
ATOM      7  N   UNL     1       1.442   3.909   4.443  0.00  0.00    -0.043 NA
ATOM      8  N   UNL     1       0.825   3.208   3.553  0.00  0.00    -0.225 N 
BRANCH   8   9
ATOM      9  C   UNL     1       0.240   3.706   2.305  0.00  0.00    +0.061 C 
ATOM     10  C   UNL     1      -1.285   3.599   2.379  0.00  0.00    +0.036 C 
ATOM     11  C   UNL     1       0.754   2.870   1.132  0.00  0.00    +0.036 C 
BRANCH   9  12
ATOM     12  C   UNL     1       0.639   5.169   2.103  0.00  0.00    +0.026 C 
ATOM     13  C   UNL     1       0.028   5.689   0.801  0.00  0.00    +0.006 C 
ENDBRANCH   9  12
ENDBRANCH   8   9
ENDBRANCH   3   4
BRANCH   3  15
ATOM     14  C   UNL     1       0.614  -1.094   1.654  0.00  0.00    +0.002 C 
ATOM     15  C   UNL     1       1.238   0.107   2.367  0.00  0.00    -0.011 C 
ENDBRANCH   3  15
ENDBRANCH   1   3
BRANCH   1  16
ATOM     16  C   UNL     1      -1.406  -0.988   3.803  0.00  0.00    -0.042 C 
BRANCH  16  17
ATOM     17  C   UNL     1      -2.073  -1.681   4.962  0.00  0.00    -0.064 A 
ATOM     18  C   UNL     1      -1.749  -2.991   5.263  0.00  0.00    +0.004 A 
ATOM     19  C   UNL     1      -2.357  -3.626   6.330  0.00  0.00    +0.038 A 
ATOM     20  C   UNL     1      -3.299  -2.954   7.090  0.00  0.00    +0.123 A 
ATOM     21  C   UNL     1      -3.627  -1.644   6.784  0.00  0.00    +0.038 A 
ATOM     22  C   UNL     1      -3.014  -1.009   5.720  0.00  0.00    +0.004 A 
ATOM     23  F   UNL     1      -3.897  -3.575   8.129  0.00  0.00    -0.205 F 
ENDBRANCH  16  17
ENDBRANCH   1  16
BRANCH   1  24
ATOM     24  C   UNL     1       0.854  -1.137   4.659  0.00  0.00    -0.036 C 
BRANCH  24  25
ATOM     25  C   UNL     1       1.686  -0.498   5.741  0.00  0.00    +0.001 A 
ATOM     26  C   UNL     1       1.275  -0.554   7.033  0.00  0.00    +0.017 A 
ATOM     27  C   UNL     1       2.107   0.071   8.060  0.00  0.00    +0.002 A 
ATOM     28  C   UNL     1       1.733   0.038   9.410  0.00  0.00    +0.059 A 
ATOM     29  C   UNL     1       2.535   0.641  10.354  0.00  0.00    +0.162 A 
ATOM     30  C   UNL     1       3.717   1.283   9.968  0.00  0.00    +0.163 A 
ATOM     31  C   UNL     1       4.095   1.320   8.639  0.00  0.00    +0.075 A 
ATOM     32  C   UNL     1       3.297   0.717   7.674  0.00  0.00    +0.053 A 
ATOM     33  N   UNL     1       3.656   0.744   6.342  0.00  0.00    -0.322 N 
ATOM     34  H   UNL     1       4.476   1.190   6.077  0.00  0.00    +0.169 HD
ATOM     35  C   UNL     1       2.886   0.162   5.406  0.00  0.00    +0.251 A 
ATOM     36  O   UNL     1       3.235   0.205   4.239  0.00  0.00    -0.268 OA
BRANCH  30  37
ATOM     37  O   UNL     1       4.500   1.874  10.908  0.00  0.00    -0.491 OA
ATOM     38  C   UNL     1       5.693   2.513  10.450  0.00  0.00    +0.277 C 
ENDBRANCH  30  37
BRANCH  29  39
ATOM     39  O   UNL     1       2.177   0.613  11.665  0.00  0.00    -0.491 OA
ATOM     40  C   UNL     1       0.958  -0.059  11.990  0.00  0.00    +0.277 C 
ENDBRANCH  29  39
ENDBRANCH  24  25
ENDBRANCH   1  24
TORSDOF 11
