REMARK  Name = ZINC37298378
REMARK  3 active torsions:
REMARK  status: ('A' for Active; 'I' for Inactive)
REMARK    1  A    between atoms: C_3  and  N_10
REMARK    2  A    between atoms: C_5  and  N_7
REMARK    3  A    between atoms: N_10  and  C_11
REMARK                            x       y       z     vdW  Elec       q    Type
REMARK                         _______ _______ _______ _____ _____    ______ ____
ROOT
ATOM      1  N   UNL     1       3.582   2.122  -0.021  0.00  0.00    -0.337 N 
ATOM      2  H   UNL     1       4.428   1.647  -0.032  0.00  0.00    +0.147 HD
ENDROOT
BRANCH   1   3
ATOM      3  C   UNL     1       3.564   3.587  -0.014  0.00  0.00    +0.107 C 
ATOM      4  C   UNL     1       4.871   4.109   0.588  0.00  0.00    +0.068 C 
ATOM      5  C   UNL     1       4.958   5.617   0.317  0.00  0.00    +0.231 C 
ATOM      6  O   UNL     1       5.051   5.816  -1.094  0.00  0.00    -0.492 OA
ATOM      7  C   UNL     1       4.156   5.170  -1.886  0.00  0.00    +0.125 A 
ATOM      8  C   UNL     1       3.418   4.094  -1.426  0.00  0.00    +0.015 A 
ATOM      9  C   UNL     1       2.521   3.463  -2.271  0.00  0.00    +0.024 A 
ATOM     10  C   UNL     1       2.359   3.904  -3.571  0.00  0.00    +0.018 A 
ATOM     11  C   UNL     1       3.095   4.980  -4.032  0.00  0.00    +0.019 A 
ATOM     12  C   UNL     1       3.989   5.612  -3.195  0.00  0.00    +0.047 A 
ATOM     13 BR   UNL     1       1.133   3.034  -4.719  0.00  0.00    -0.050 Br
ENDBRANCH   1   3
BRANCH   1  16
ATOM     14  C   UNL     1      -0.017   1.378   0.010  0.00  0.00    +0.004 A 
ATOM     15  C   UNL     1       1.169   2.087   0.002  0.00  0.00    +0.023 A 
ATOM     16  C   UNL     1       2.381   1.409  -0.013  0.00  0.00    +0.030 A 
ATOM     17  C   UNL     1       2.396   0.020  -0.021  0.00  0.00    +0.055 A 
ATOM     18  C   UNL     1       1.207  -0.682  -0.013  0.00  0.00    +0.128 A 
ATOM     19  C   UNL     1       0.002  -0.004   0.002  0.00  0.00    +0.033 A 
BRANCH  18  20
ATOM     20  N   UNL     1       1.222  -2.162  -0.021  0.00  0.00    +0.056 N 
ATOM     21  O   UNL     1       2.276  -2.756  -0.035  0.00  0.00    -0.126 OA
ATOM     22  O   UNL     1       0.182  -2.778  -0.015  0.00  0.00    -0.126 OA
ENDBRANCH  18  20
ENDBRANCH   1  16
TORSDOF 3
