REMARK  Name = ZINC62954297
REMARK  5 active torsions:
REMARK  status: ('A' for Active; 'I' for Inactive)
REMARK    1  A    between atoms: C_1  and  C_2
REMARK    2  A    between atoms: C_2  and  C_3
REMARK    3  A    between atoms: C_3  and  C_18
REMARK    4  A    between atoms: C_10  and  C_15
REMARK    5  A    between atoms: C_18  and  C_19
REMARK                            x       y       z     vdW  Elec       q    Type
REMARK                         _______ _______ _______ _____ _____    ______ ____
ROOT
ATOM      1  C   UNL     1       1.020  -2.139   0.046  0.00  0.00    -0.027 C 
ATOM      2  C   UNL     1       0.623  -1.278   1.248  0.00  0.00    +0.026 C 
ATOM      3  C   UNL     1      -0.879  -1.428   1.504  0.00  0.00    +0.107 C 
ATOM      4  N   UNL     1      -1.194  -2.856   1.654  0.00  0.00    -0.313 N 
ATOM      5  C   UNL     1      -0.775  -3.786   0.597  0.00  0.00    +0.107 C 
ATOM      6  C   UNL     1       0.726  -3.610   0.350  0.00  0.00    +0.026 C 
ATOM      7  C   UNL     1      -1.870  -3.315   2.770  0.00  0.00    +0.150 A 
ATOM      8  C   UNL     1      -3.271  -3.240   2.827  0.00  0.00    +0.141 A 
ATOM      9  N   UNL     1      -3.911  -3.684   3.904  0.00  0.00    -0.247 NA
ATOM     10  C   UNL     1      -3.230  -4.192   4.912  0.00  0.00    +0.131 A 
ATOM     11  C   UNL     1      -1.847  -4.266   4.857  0.00  0.00    +0.132 A 
ATOM     12  N   UNL     1      -1.198  -3.834   3.791  0.00  0.00    -0.237 NA
ENDROOT
BRANCH   8  13
ATOM     13  C   UNL     1      -4.030  -2.669   1.694  0.00  0.00    +0.116 C 
ATOM     14  N   UNL     1      -3.665  -2.941   0.443  0.00  0.00    -0.385 N 
ATOM     15  N   UNL     1      -5.080  -1.882   1.926  0.00  0.00    -0.343 N 
ATOM     16  H   UNL     1      -2.958  -3.582   0.273  0.00  0.00    +0.157 HD
ATOM     17  H   UNL     1      -5.346  -1.684   2.837  0.00  0.00    +0.144 HD
ATOM     18  H   UNL     1      -5.579  -1.508   1.183  0.00  0.00    +0.144 HD
ATOM     19  H   UNL     1      -4.107  -2.498  -0.298  0.00  0.00    +0.157 HD
ENDBRANCH   8  13
BRANCH   1  21
ATOM     20  C   UNL     1       0.576  -0.258  -1.538  0.00  0.00    +0.004 C 
ATOM     21  C   UNL     1       0.217  -1.702  -1.181  0.00  0.00    +0.003 C 
ENDBRANCH   1  21
BRANCH   1  22
ATOM     22  C   UNL     1       2.514  -1.965  -0.234  0.00  0.00    +0.003 C 
ATOM     23  C   UNL     1       3.321  -2.514   0.944  0.00  0.00    +0.004 C 
ENDBRANCH   1  22
TORSDOF 3
