REMARK  Name = ZINC66435470
REMARK  6 active torsions:
REMARK  status: ('A' for Active; 'I' for Inactive)
REMARK    1  A    between atoms: C_1  and  C_2
REMARK    2  A    between atoms: C_8  and  N_10
REMARK    3  A    between atoms: C_11  and  C_13
REMARK    4  A    between atoms: C_13  and  N_14
REMARK    5  A    between atoms: N_18  and  S_21
REMARK    6  A    between atoms: S_21  and  C_24
REMARK                            x       y       z     vdW  Elec       q    Type
REMARK                         _______ _______ _______ _____ _____    ______ ____
ROOT
ATOM      1  N   UNL     1       4.723   0.698   3.753  0.00  0.00    +0.386 N 
ATOM      2  C   UNL     1       3.862   1.582   4.536  0.00  0.00    -0.077 C 
ATOM      3  C   UNL     1       3.868   1.133   5.980  0.00  0.00    -0.001 C 
ATOM      4  C   UNL     1       4.946   1.913   6.755  0.00  0.00    +0.107 C 
ATOM      5  N   UNL     1       6.168   2.080   5.942  0.00  0.00    -0.178 NA
ATOM      6  C   UNL     1       6.705   1.014   5.122  0.00  0.00    +0.091 C 
ATOM      7  C   UNL     1       6.083   1.078   3.707  0.00  0.00    -0.061 C 
ATOM      8  H   UNL     1       4.665  -0.229   4.146  0.00  0.00    -0.081 HD
ENDROOT
BRANCH   5   9
ATOM      9  S   UNL     1       6.952   3.538   5.971  0.00  0.00    +0.061 S 
ATOM     10  O   UNL     1       7.690   3.626   4.760  0.00  0.00    -0.153 OA
ATOM     11  O   UNL     1       5.987   4.511   6.348  0.00  0.00    -0.153 OA
BRANCH   9  12
ATOM     12  C   UNL     1       8.133   3.469   7.277  0.00  0.00    +0.105 A 
ATOM     13  C   UNL     1       7.777   3.862   8.553  0.00  0.00    +0.028 A 
ATOM     14  C   UNL     1       8.703   3.807   9.577  0.00  0.00    +0.002 A 
ATOM     15  C   UNL     1       9.987   3.360   9.325  0.00  0.00    +0.000 A 
ATOM     16  C   UNL     1      10.343   2.966   8.049  0.00  0.00    +0.002 A 
ATOM     17  C   UNL     1       9.415   3.016   7.025  0.00  0.00    +0.028 A 
ENDBRANCH   9  12
ENDBRANCH   5   9
BRANCH   1  18
ATOM     18  C   UNL     1       4.209   0.649   2.377  0.00  0.00    +0.019 C 
BRANCH  18  20
ATOM     19  N   UNL     1       2.116  -0.004   1.231  0.00  0.00    -0.314 N 
ATOM     20  C   UNL     1       2.795   0.128   2.388  0.00  0.00    +0.197 C 
ATOM     21  O   UNL     1       2.268  -0.174   3.438  0.00  0.00    -0.278 OA
ATOM     22  H   UNL     1       2.538   0.237   0.392  0.00  0.00    +0.149 HD
BRANCH  19  29
ATOM     23  C   UNL     1      -0.019   1.526   0.010  0.00  0.00    +0.009 C 
ATOM     24  C   UNL     1       0.002  -0.004   0.002  0.00  0.00    +0.006 C 
ATOM     25  C   UNL     1       0.718  -0.497  -1.257  0.00  0.00    +0.005 C 
ATOM     26  C   UNL     1       0.739  -2.027  -1.265  0.00  0.00    +0.000 C 
ATOM     27  C   UNL     1       1.479  -2.534  -0.026  0.00  0.00    +0.002 C 
ATOM     28  C   UNL     1       0.763  -2.041   1.233  0.00  0.00    +0.022 C 
ATOM     29  C   UNL     1       0.742  -0.511   1.242  0.00  0.00    +0.076 C 
ENDBRANCH  19  29
ENDBRANCH  18  20
ENDBRANCH   1  18
TORSDOF 5
