REMARK  Name = ZINC32479661
REMARK  4 active torsions:
REMARK  status: ('A' for Active; 'I' for Inactive)
REMARK    1  A    between atoms: C_1  and  C_2
REMARK    2  A    between atoms: C_4  and  O_5
REMARK    3  A    between atoms: C_14  and  C_16
REMARK    4  A    between atoms: C_25  and  N_28
REMARK                            x       y       z     vdW  Elec       q    Type
REMARK                         _______ _______ _______ _____ _____    ______ ____
ROOT
ATOM      1  C   UNL     1      -6.262   3.805   8.221  0.00  0.00    +0.045 C 
ATOM      2  C   UNL     1      -5.247   4.702   7.561  0.00  0.00    -0.033 A 
ATOM      3  C   UNL     1      -4.907   5.895   8.114  0.00  0.00    +0.091 A 
ATOM      4  C   UNL     1      -3.955   6.718   7.476  0.00  0.00    +0.285 A 
ATOM      5  O   UNL     1      -3.367   6.355   6.326  0.00  0.00    -0.425 OA
ATOM      6  C   UNL     1      -3.660   5.182   5.724  0.00  0.00    +0.141 A 
ATOM      7  C   UNL     1      -4.602   4.312   6.306  0.00  0.00    +0.021 A 
ATOM      8  C   UNL     1      -4.910   3.096   5.685  0.00  0.00    +0.013 A 
ATOM      9  C   UNL     1      -4.298   2.758   4.513  0.00  0.00    +0.024 A 
ATOM     10  C   UNL     1      -3.360   3.612   3.935  0.00  0.00    +0.037 A 
ATOM     11  C   UNL     1      -3.043   4.822   4.536  0.00  0.00    +0.070 A 
ATOM     12  N   UNL     1      -2.739   3.251   2.739  0.00  0.00    -0.285 N 
ATOM     13  C   UNL     1      -1.454   3.592   2.517  0.00  0.00    +0.223 C 
ATOM     14  O   UNL     1      -0.863   4.283   3.319  0.00  0.00    -0.275 OA
ATOM     15  H   UNL     1      -3.298   2.687   1.977  0.00  0.00    +0.155 HD
ENDROOT
BRANCH  13  16
ATOM     16  C   UNL     1      -0.752   3.114   1.272  0.00  0.00    +0.050 C 
ATOM     17  C   UNL     1      -0.737   1.584   1.250  0.00  0.00    +0.020 C 
ATOM     18  C   UNL     1      -0.025   1.099  -0.014  0.00  0.00    -0.007 C 
ATOM     19  C   UNL     1      -0.764   1.620  -1.248  0.00  0.00    +0.007 C 
ATOM     20  C   UNL     1      -0.778   3.150  -1.226  0.00  0.00    -0.007 C 
ATOM     21  C   UNL     1      -1.491   3.635   0.038  0.00  0.00    +0.020 C 
ATOM     22  C   UNL     1       0.659   3.673  -1.234  0.00  0.00    +0.034 C 
ATOM     23  C   UNL     1       1.399   3.152   0.000  0.00  0.00    +0.067 C 
ATOM     24  C   UNL     1       1.413   1.623  -0.022  0.00  0.00    +0.034 C 
ATOM     25  C   UNL     1       0.686   3.638   1.264  0.00  0.00    +0.046 C 
BRANCH  23  26
ATOM     26  N   UNL     1       2.775   3.654  -0.007  0.00  0.00    -0.245 N 
ATOM     27  C   UNL     1       3.784   3.226  -0.785  0.00  0.00    +0.220 A 
ATOM     28  N   UNL     1       4.850   3.925  -0.490  0.00  0.00    -0.209 NA
ATOM     29  C   UNL     1       4.561   4.806   0.468  0.00  0.00    +0.217 A 
ATOM     30  N   UNL     1       3.300   4.682   0.792  0.00  0.00    -0.142 NA
ATOM     31 BR   UNL     1       5.776   6.040   1.228  0.00  0.00    -0.005 Br
ENDBRANCH  23  26
ENDBRANCH  13  16
BRANCH   4  32
ATOM     32  O   UNL     1      -3.659   7.785   7.983  0.00  0.00    -0.480 OA
ATOM     33  H   UNL     1      -2.918   8.437   7.498  0.00  0.00    +0.295 HD
ENDBRANCH   4  32
TORSDOF 3
