REMARK  Name = ZINC56542688
REMARK  3 active torsions:
REMARK  status: ('A' for Active; 'I' for Inactive)
REMARK    1  A    between atoms: C_6  and  N_7
REMARK    2  A    between atoms: N_10  and  N_11
REMARK    3  A    between atoms: N_14  and  C_15
REMARK                            x       y       z     vdW  Elec       q    Type
REMARK                         _______ _______ _______ _____ _____    ______ ____
ROOT
ATOM      1  N   UNL     1      -3.563  -2.061  -0.177  0.00  0.00    -0.217 N 
ATOM      2  C   UNL     1      -4.721  -2.744  -0.270  0.00  0.00    +0.316 C 
ATOM      3  O   UNL     1      -5.781  -2.148  -0.257  0.00  0.00    -0.251 OA
ATOM      4  N   UNL     1      -4.705  -4.087  -0.380  0.00  0.00    -0.295 N 
ATOM      5  H   UNL     1      -3.575  -1.094  -0.098  0.00  0.00    +0.174 HD
ATOM      6  H   UNL     1      -3.859  -4.562  -0.391  0.00  0.00    +0.151 HD
ENDROOT
BRANCH   4   7
ATOM      7  C   UNL     1      -5.964  -4.829  -0.481  0.00  0.00    +0.074 C 
ATOM      8  C   UNL     1      -6.513  -5.096   0.921  0.00  0.00    +0.022 C 
ATOM      9  C   UNL     1      -7.985  -5.503   0.824  0.00  0.00    +0.002 C 
ATOM     10  C   UNL     1      -8.704  -4.583  -0.164  0.00  0.00    +0.000 C 
ATOM     11  C   UNL     1      -9.128  -5.386  -1.395  0.00  0.00    +0.000 C 
ATOM     12  C   UNL     1      -7.907  -5.646  -2.279  0.00  0.00    +0.000 C 
ATOM     13  C   UNL     1      -7.050  -6.749  -1.654  0.00  0.00    +0.002 C 
ATOM     14  C   UNL     1      -5.715  -6.160  -1.194  0.00  0.00    +0.022 C 
ENDBRANCH   4   7
BRANCH   1  18
ATOM     15  N   UNL     1      -1.200  -0.722   0.010  0.00  0.00    -0.268 N 
ATOM     16  C   UNL     1      -1.183  -2.065  -0.099  0.00  0.00    +0.320 C 
ATOM     17  O   UNL     1      -0.124  -2.661  -0.113  0.00  0.00    -0.251 OA
ATOM     18  N   UNL     1      -2.342  -2.748  -0.193  0.00  0.00    -0.217 N 
ATOM     19  H   UNL     1      -2.044  -0.253   0.099  0.00  0.00    +0.156 HD
ATOM     20  H   UNL     1      -2.330  -3.714  -0.271  0.00  0.00    +0.174 HD
BRANCH  15  26
ATOM     21  C   UNL     1       1.071  -0.453  -0.768  0.00  0.00    +0.024 A 
ATOM     22  C   UNL     1       2.255   0.258  -0.781  0.00  0.00    +0.017 A 
ATOM     23  C   UNL     1       2.376   1.417  -0.036  0.00  0.00    +0.018 A 
ATOM     24  C   UNL     1       1.312   1.867   0.726  0.00  0.00    +0.017 A 
ATOM     25  C   UNL     1       0.126   1.160   0.743  0.00  0.00    +0.024 A 
ATOM     26  C   UNL     1       0.002  -0.004  -0.005  0.00  0.00    +0.035 A 
ATOM     27 BR   UNL     1       3.999   2.387  -0.056  0.00  0.00    -0.050 Br
ENDBRANCH  15  26
ENDBRANCH   1  18
TORSDOF 3
