REMARK  Name = ZINC47703565
REMARK  8 active torsions:
REMARK  status: ('A' for Active; 'I' for Inactive)
REMARK    1  A    between atoms: C_1  and  C_2
REMARK    2  A    between atoms: C_2  and  C_3
REMARK    3  A    between atoms: C_2  and  N_16
REMARK    4  A    between atoms: C_6  and  N_9
REMARK    5  A    between atoms: N_12  and  C_13
REMARK    6  A    between atoms: N_19  and  C_20
REMARK    7  A    between atoms: C_25  and  S_26
REMARK    8  A    between atoms: S_26  and  C_27
REMARK                            x       y       z     vdW  Elec       q    Type
REMARK                         _______ _______ _______ _____ _____    ______ ____
ROOT
ATOM      1  C   UNL     1      -0.197   1.224   0.685  0.00  0.00    +0.033 C 
ATOM      2  C   UNL     1       0.067  -0.260   0.947  0.00  0.00    +0.102 C 
ENDROOT
BRANCH   2   3
ATOM      3  C   UNL     1       0.934  -0.816  -0.153  0.00  0.00    -0.027 A 
ATOM      4  C   UNL     1       2.301  -0.608  -0.126  0.00  0.00    +0.007 A 
ATOM      5  C   UNL     1       3.099  -1.117  -1.133  0.00  0.00    +0.023 A 
ATOM      6  C   UNL     1       2.527  -1.838  -2.172  0.00  0.00    +0.035 A 
ATOM      7  C   UNL     1       1.154  -2.046  -2.196  0.00  0.00    +0.023 A 
ATOM      8  C   UNL     1       0.362  -1.539  -1.184  0.00  0.00    +0.007 A 
BRANCH   6   9
ATOM      9  N   UNL     1       3.332  -2.354  -3.194  0.00  0.00    -0.269 N 
ATOM     10  C   UNL     1       4.583  -2.773  -2.919  0.00  0.00    +0.304 C 
ATOM     11  O   UNL     1       4.979  -2.794  -1.770  0.00  0.00    -0.253 OA
ATOM     12  N   UNL     1       5.396  -3.169  -3.918  0.00  0.00    -0.296 N 
ATOM     13  H   UNL     1       2.989  -2.411  -4.100  0.00  0.00    +0.156 HD
ATOM     14  H   UNL     1       5.080  -3.153  -4.836  0.00  0.00    +0.151 HD
BRANCH  12  15
ATOM     15  C   UNL     1       6.756  -3.624  -3.620  0.00  0.00    +0.075 C 
ATOM     16  C   UNL     1       7.883  -3.124  -4.525  0.00  0.00    +0.024 C 
ATOM     17  C   UNL     1       7.417  -4.578  -4.617  0.00  0.00    +0.024 C 
ENDBRANCH  12  15
ENDBRANCH   6   9
ENDBRANCH   2   3
BRANCH   2  18
ATOM     18  N   UNL     1       0.751  -0.415   2.233  0.00  0.00    -0.293 N 
ATOM     19  C   UNL     1       0.035  -0.475   3.373  0.00  0.00    +0.304 C 
ATOM     20  O   UNL     1      -1.178  -0.400   3.334  0.00  0.00    -0.252 OA
ATOM     21  N   UNL     1       0.663  -0.618   4.557  0.00  0.00    -0.268 N 
ATOM     22  H   UNL     1       1.718  -0.475   2.264  0.00  0.00    +0.151 HD
ATOM     23  H   UNL     1       1.633  -0.599   4.597  0.00  0.00    +0.156 HD
BRANCH  21  24
ATOM     24  C   UNL     1      -0.083  -0.794   5.730  0.00  0.00    +0.048 A 
ATOM     25  C   UNL     1      -1.388  -1.256   5.661  0.00  0.00    +0.024 A 
ATOM     26  C   UNL     1      -2.123  -1.429   6.820  0.00  0.00    +0.002 A 
ATOM     27  C   UNL     1      -1.560  -1.142   8.050  0.00  0.00    +0.001 A 
ATOM     28  C   UNL     1      -0.260  -0.681   8.129  0.00  0.00    +0.016 A 
ATOM     29  C   UNL     1       0.487  -0.510   6.972  0.00  0.00    +0.029 A 
BRANCH  29  30
ATOM     30  S   UNL     1       2.148   0.071   7.069  0.00  0.00    -0.127 S 
ATOM     31  C   UNL     1       2.431   0.294   8.847  0.00  0.00    +0.090 C 
ENDBRANCH  29  30
ENDBRANCH  21  24
ENDBRANCH   2  18
TORSDOF 6
