REMARK  Name = ZINC39663805
REMARK  11 active torsions:
REMARK  status: ('A' for Active; 'I' for Inactive)
REMARK    1  A    between atoms: C_1  and  C_2
REMARK    2  A    between atoms: C_6  and  C_9
REMARK    3  A    between atoms: C_13  and  C_22
REMARK    4  A    between atoms: N_24  and  C_25
REMARK    5  A    between atoms: C_25  and  C_26
REMARK    6  A    between atoms: C_26  and  C_28
REMARK    7  A    between atoms: C_26  and  N_36
REMARK    8  A    between atoms: C_31  and  O_34
REMARK    9  A    between atoms: O_34  and  C_35
REMARK   10  A    between atoms: N_36  and  C_37
REMARK   11  A    between atoms: N_36  and  C_38
REMARK                            x       y       z     vdW  Elec       q    Type
REMARK                         _______ _______ _______ _____ _____    ______ ____
ROOT
ATOM      1  C   UNL     1       0.270  -3.615   3.245  0.00  0.00    +0.252 C 
ATOM      2  O   UNL     1       1.243  -4.037   3.840  0.00  0.00    -0.270 OA
ATOM      3  N   UNL     1      -0.969  -3.887   3.703  0.00  0.00    -0.296 N 
ATOM      4  C   UNL     1      -2.264  -3.470   3.117  0.00  0.00    +0.121 C 
ATOM      5  C   UNL     1      -3.186  -4.698   3.293  0.00  0.00    +0.100 C 
ATOM      6  C   UNL     1      -2.577  -5.480   4.468  0.00  0.00    -0.004 C 
ATOM      7  C   UNL     1      -1.343  -4.675   4.901  0.00  0.00    +0.115 C 
ATOM      8  C   UNL     1      -2.156  -6.874   4.014  0.00  0.00    -0.010 C 
ATOM      9  C   UNL     1      -1.607  -7.652   5.213  0.00  0.00    -0.082 C 
ATOM     10  N   UNL     1      -2.638  -7.745   6.254  0.00  0.00    +0.379 N 
ATOM     11  C   UNL     1      -2.970  -6.404   6.750  0.00  0.00    -0.082 C 
ATOM     12  C   UNL     1      -3.577  -5.573   5.616  0.00  0.00    -0.010 C 
ATOM     13  H   UNL     1      -3.466  -8.173   5.867  0.00  0.00    -0.086 HD
ATOM     14  H   UNL     1      -2.295  -8.309   7.016  0.00  0.00    -0.086 HD
ENDROOT
BRANCH   1  20
ATOM     15  C   UNL     1       0.837   0.835   1.054  0.00  0.00    +0.047 C 
ATOM     16  C   UNL     1       0.719  -0.665   0.962  0.00  0.00    -0.014 A 
ATOM     17  C   UNL     1       0.773  -1.287  -0.272  0.00  0.00    +0.009 A 
ATOM     18  C   UNL     1       0.665  -2.662  -0.368  0.00  0.00    +0.039 A 
ATOM     19  C   UNL     1       0.501  -3.428   0.772  0.00  0.00    +0.138 A 
ATOM     20  C   UNL     1       0.445  -2.807   2.024  0.00  0.00    +0.107 A 
ATOM     21  C   UNL     1       0.561  -1.415   2.112  0.00  0.00    +0.141 A 
ATOM     22  F   UNL     1       0.514  -0.806   3.317  0.00  0.00    -0.204 F 
ATOM     23  F   UNL     1       0.395  -4.771   0.676  0.00  0.00    -0.205 F 
ENDBRANCH   1  20
BRANCH   5  24
ATOM     24  C   UNL     1      -4.589  -4.258   3.623  0.00  0.00    +0.218 C 
ATOM     25  O   UNL     1      -4.772  -3.246   4.266  0.00  0.00    -0.275 OA
ATOM     26  N   UNL     1      -5.640  -4.989   3.203  0.00  0.00    -0.316 N 
ATOM     27  H   UNL     1      -5.494  -5.798   2.689  0.00  0.00    +0.149 HD
BRANCH  26  28
ATOM     28  C   UNL     1      -7.005  -4.562   3.524  0.00  0.00    +0.093 C 
BRANCH  28  29
ATOM     29  C   UNL     1      -7.998  -5.615   3.030  0.00  0.00    -0.021 C 
BRANCH  29  30
ATOM     30  C   UNL     1      -7.949  -5.686   1.525  0.00  0.00    -0.059 A 
ATOM     31  C   UNL     1      -8.616  -4.742   0.767  0.00  0.00    +0.005 A 
ATOM     32  C   UNL     1      -8.572  -4.805  -0.612  0.00  0.00    +0.046 A 
ATOM     33  C   UNL     1      -7.857  -5.817  -1.236  0.00  0.00    +0.120 A 
ATOM     34  C   UNL     1      -7.188  -6.763  -0.473  0.00  0.00    +0.046 A 
ATOM     35  C   UNL     1      -7.231  -6.692   0.905  0.00  0.00    +0.005 A 
BRANCH  33  36
ATOM     36  O   UNL     1      -7.813  -5.881  -2.593  0.00  0.00    -0.495 OA
ATOM     37  C   UNL     1      -7.058  -6.950  -3.167  0.00  0.00    +0.277 C 
ENDBRANCH  33  36
ENDBRANCH  29  30
BRANCH  29  38
ATOM     38  N   UNL     1      -9.355  -5.247   3.458  0.00  0.00    +0.382 N 
ATOM     39  C   UNL     1     -10.310  -6.251   2.973  0.00  0.00    -0.096 C 
ATOM     40  C   UNL     1      -9.407  -5.190   4.925  0.00  0.00    -0.096 C 
ATOM     41  H   UNL     1      -9.594  -4.343   3.078  0.00  0.00    -0.082 HD
ENDBRANCH  29  38
ENDBRANCH  28  29
ENDBRANCH  26  28
ENDBRANCH   5  24
TORSDOF 7
