REMARK  Name = ZINC35745352
REMARK  15 active torsions:
REMARK  status: ('A' for Active; 'I' for Inactive)
REMARK    1  A    between atoms: C_1  and  C_2
REMARK    2  A    between atoms: C_7  and  C_8
REMARK    3  A    between atoms: C_8  and  N_9
REMARK    4  A    between atoms: N_9  and  C_10
REMARK    5  A    between atoms: N_9  and  C_16
REMARK    6  A    between atoms: C_10  and  C_11
REMARK    7  A    between atoms: C_16  and  C_17
REMARK    8  A    between atoms: C_20  and  C_22
REMARK    9  A    between atoms: C_22  and  C_23
REMARK   10  A    between atoms: C_22  and  C_31
REMARK   11  A    between atoms: C_22  and  O_39
REMARK   12  A    between atoms: C_26  and  O_29
REMARK   13  A    between atoms: O_29  and  C_30
REMARK   14  A    between atoms: C_34  and  O_37
REMARK   15  A    between atoms: O_37  and  C_38
REMARK                            x       y       z     vdW  Elec       q    Type
REMARK                         _______ _______ _______ _____ _____    ______ ____
ROOT
ATOM      1  C   UNL     1      -2.958   0.555   4.539  0.00  0.00    +0.089 A 
ATOM      2  C   UNL     1      -3.965   0.066   5.284  0.00  0.00    +0.043 A 
ATOM      3  C   UNL     1      -5.098   0.869   5.019  0.00  0.00    +0.048 A 
ATOM      4  C   UNL     1      -4.716   1.800   4.127  0.00  0.00    +0.146 A 
ATOM      5  O   UNL     1      -3.417   1.609   3.844  0.00  0.00    -0.463 OA
ENDROOT
BRANCH   1   6
ATOM      6  C   UNL     1      -1.552   0.015   4.495  0.00  0.00    -0.002 C 
BRANCH   6   7
ATOM      7  N   UNL     1      -1.484  -1.099   3.541  0.00  0.00    +0.392 N 
ATOM      8  H   UNL     1      -2.177  -1.791   3.782  0.00  0.00    -0.080 HD
BRANCH   7   9
ATOM      9  C   UNL     1      -1.743  -0.598   2.184  0.00  0.00    -0.042 C 
BRANCH   9  16
ATOM     10  C   UNL     1      -4.141  -2.195   1.975  0.00  0.00    +0.044 C 
ATOM     11  C   UNL     1      -2.942  -2.520   1.122  0.00  0.00    -0.049 A 
ATOM     12  C   UNL     1      -2.992  -3.580   0.235  0.00  0.00    +0.003 A 
ATOM     13  C   UNL     1      -1.893  -3.878  -0.547  0.00  0.00    +0.000 A 
ATOM     14  C   UNL     1      -0.743  -3.117  -0.443  0.00  0.00    +0.000 A 
ATOM     15  C   UNL     1      -0.694  -2.058   0.443  0.00  0.00    +0.002 A 
ATOM     16  C   UNL     1      -1.795  -1.756   1.222  0.00  0.00    -0.061 A 
ENDBRANCH   9  16
ENDBRANCH   7   9
BRANCH   7  17
ATOM     17  C   UNL     1      -0.147  -1.706   3.591  0.00  0.00    -0.002 C 
BRANCH  17  18
ATOM     18  C   UNL     1       0.063  -2.348   4.938  0.00  0.00    +0.089 A 
ATOM     19  C   UNL     1      -0.329  -3.586   5.290  0.00  0.00    +0.042 A 
ATOM     20  C   UNL     1       0.068  -3.775   6.634  0.00  0.00    +0.041 A 
ATOM     21  C   UNL     1       0.679  -2.641   7.023  0.00  0.00    +0.195 A 
ATOM     22  O   UNL     1       0.677  -1.782   5.990  0.00  0.00    -0.470 OA
ENDBRANCH  17  18
ENDBRANCH   7  17
ENDBRANCH   6   7
ENDBRANCH   1   6
BRANCH   4  23
ATOM     23  C   UNL     1      -5.594   2.879   3.547  0.00  0.00    +0.174 C 
BRANCH  23  24
ATOM     24  C   UNL     1      -4.755   4.088   3.222  0.00  0.00    -0.004 A 
ATOM     25  C   UNL     1      -5.051   5.309   3.800  0.00  0.00    +0.011 A 
ATOM     26  C   UNL     1      -4.284   6.419   3.502  0.00  0.00    +0.046 A 
ATOM     27  C   UNL     1      -3.217   6.308   2.623  0.00  0.00    +0.120 A 
ATOM     28  C   UNL     1      -2.922   5.082   2.045  0.00  0.00    +0.046 A 
ATOM     29  C   UNL     1      -3.688   3.974   2.350  0.00  0.00    +0.011 A 
BRANCH  27  30
ATOM     30  O   UNL     1      -2.461   7.399   2.329  0.00  0.00    -0.495 OA
ATOM     31  C   UNL     1      -1.378   7.210   1.416  0.00  0.00    +0.277 C 
ENDBRANCH  27  30
ENDBRANCH  23  24
BRANCH  23  32
ATOM     32  C   UNL     1      -6.252   2.371   2.291  0.00  0.00    -0.004 A 
ATOM     33  C   UNL     1      -5.520   1.630   1.380  0.00  0.00    +0.011 A 
ATOM     34  C   UNL     1      -6.121   1.163   0.227  0.00  0.00    +0.046 A 
ATOM     35  C   UNL     1      -7.459   1.437  -0.017  0.00  0.00    +0.120 A 
ATOM     36  C   UNL     1      -8.190   2.180   0.899  0.00  0.00    +0.046 A 
ATOM     37  C   UNL     1      -7.587   2.640   2.053  0.00  0.00    +0.011 A 
BRANCH  35  38
ATOM     38  O   UNL     1      -8.052   0.979  -1.151  0.00  0.00    -0.495 OA
ATOM     39  C   UNL     1      -9.432   1.299  -1.336  0.00  0.00    +0.277 C 
ENDBRANCH  35  38
ENDBRANCH  23  32
BRANCH  23  40
ATOM     40  O   UNL     1      -6.598   3.238   4.499  0.00  0.00    -0.372 OA
ATOM     41  H   UNL     1      -6.246   3.575   5.334  0.00  0.00    +0.212 HD
ENDBRANCH  23  40
ENDBRANCH   4  23
TORSDOF 12
