REMARK  Name = ZINC09647343
REMARK  5 active torsions:
REMARK  status: ('A' for Active; 'I' for Inactive)
REMARK    1  A    between atoms: C_1  and  C_2
REMARK    2  A    between atoms: C_2  and  C_28
REMARK    3  A    between atoms: N_5  and  C_9
REMARK    4  A    between atoms: C_9  and  C_10
REMARK    5  A    between atoms: C_16  and  C_19
REMARK                            x       y       z     vdW  Elec       q    Type
REMARK                         _______ _______ _______ _____ _____    ______ ____
ROOT
ATOM      1  C   UNL     1      -2.308  -1.102  -7.342  0.00  0.00    +0.047 C 
ATOM      2  C   UNL     1      -2.128  -1.478  -5.870  0.00  0.00    +0.136 C 
ATOM      3  C   UNL     1      -1.763  -0.254  -5.053  0.00  0.00    +0.251 C 
ATOM      4  O   UNL     1      -0.782   0.445  -5.180  0.00  0.00    -0.272 OA
ATOM      5  N   UNL     1      -2.756  -0.107  -4.153  0.00  0.00    -0.215 N 
ATOM      6  C   UNL     1      -3.692  -1.054  -4.292  0.00  0.00    +0.310 C 
ATOM      7  O   UNL     1      -4.687  -1.127  -3.598  0.00  0.00    -0.252 OA
ATOM      8  N   UNL     1      -3.408  -1.915  -5.286  0.00  0.00    -0.281 N 
ATOM      9  H   UNL     1      -3.943  -2.675  -5.564  0.00  0.00    +0.152 HD
ENDROOT
BRANCH   2  10
ATOM     10  C   UNL     1      -1.084  -2.554  -5.723  0.00  0.00    -0.008 A 
ATOM     11  C   UNL     1      -1.407  -3.749  -5.157  0.00  0.00    +0.007 A 
ATOM     12  C   UNL     1      -0.457  -4.758  -5.019  0.00  0.00    +0.001 A 
ATOM     13  C   UNL     1       0.827  -4.574  -5.434  0.00  0.00    +0.008 A 
ATOM     14  C   UNL     1       1.200  -3.351  -6.016  0.00  0.00    -0.018 A 
ATOM     15  C   UNL     1       0.231  -2.326  -6.163  0.00  0.00    -0.012 A 
ATOM     16  C   UNL     1       0.605  -1.103  -6.745  0.00  0.00    +0.009 A 
ATOM     17  C   UNL     1       1.888  -0.919  -7.160  0.00  0.00    +0.001 A 
ATOM     18  C   UNL     1       2.841  -1.926  -7.015  0.00  0.00    +0.001 A 
ATOM     19  C   UNL     1       2.515  -3.123  -6.456  0.00  0.00    +0.008 A 
ENDBRANCH   2  10
BRANCH   5  20
ATOM     20  C   UNL     1      -2.808   0.960  -3.151  0.00  0.00    +0.213 C 
BRANCH  20  21
ATOM     21  C   UNL     1      -2.125   0.499  -1.890  0.00  0.00    +0.234 C 
ATOM     22  O   UNL     1      -1.642  -0.612  -1.833  0.00  0.00    -0.274 OA
ATOM     23  N   UNL     1      -2.050   1.321  -0.825  0.00  0.00    -0.300 N 
ATOM     24  C   UNL     1      -2.629   2.670  -0.878  0.00  0.00    +0.108 C 
ATOM     25  C   UNL     1      -3.582   2.845   0.309  0.00  0.00    +0.020 C 
ATOM     26  C   UNL     1      -2.835   2.533   1.607  0.00  0.00    +0.013 C 
ATOM     27  C   UNL     1      -2.350   1.081   1.587  0.00  0.00    +0.062 C 
ATOM     28  C   UNL     1      -1.387   0.886   0.412  0.00  0.00    +0.118 C 
BRANCH  27  29
ATOM     29  C   UNL     1      -1.640   0.766   2.878  0.00  0.00    +0.084 A 
ATOM     30  N   UNL     1      -1.938  -0.141   3.764  0.00  0.00    -0.244 NA
ATOM     31  C   UNL     1      -1.214  -0.323   4.888  0.00  0.00    +0.078 A 
ATOM     32  C   UNL     1      -1.408  -1.254   5.932  0.00  0.00    +0.029 A 
ATOM     33  C   UNL     1      -0.564  -1.289   6.998  0.00  0.00    +0.002 A 
ATOM     34  C   UNL     1       0.513  -0.419   7.102  0.00  0.00    +0.001 A 
ATOM     35  C   UNL     1       0.738   0.507   6.101  0.00  0.00    +0.017 A 
ATOM     36  C   UNL     1      -0.110   0.550   5.021  0.00  0.00    +0.039 A 
ATOM     37  S   UNL     1      -0.222   1.520   3.539  0.00  0.00    -0.072 S 
ENDBRANCH  27  29
ENDBRANCH  20  21
ENDBRANCH   5  20
TORSDOF 4
