REMARK  Name = ZINC02143090
REMARK  12 active torsions:
REMARK  status: ('A' for Active; 'I' for Inactive)
REMARK    1  A    between atoms: C_1  and  C_2
REMARK    2  A    between atoms: C_2  and  C_3
REMARK    3  A    between atoms: C_3  and  C_4
REMARK    4  A    between atoms: C_4  and  O_5
REMARK    5  A    between atoms: O_5  and  C_6
REMARK    6  A    between atoms: C_7  and  O_32
REMARK    7  A    between atoms: C_9  and  C_13
REMARK    8  A    between atoms: C_15  and  C_22
REMARK    9  A    between atoms: C_16  and  C_21
REMARK   10  A    between atoms: N_24  and  C_25
REMARK   11  A    between atoms: C_28  and  C_31
REMARK   12  A    between atoms: O_32  and  C_33
REMARK                            x       y       z     vdW  Elec       q    Type
REMARK                         _______ _______ _______ _____ _____    ______ ____
ROOT
ATOM      1  C   UNL     1       5.075   1.335   0.121  0.00  0.00    +0.139 C 
ATOM      2  C   UNL     1       5.282   1.756  -1.319  0.00  0.00    +0.056 C 
ATOM      3  C   UNL     1       6.211   2.703  -1.570  0.00  0.00    +0.017 C 
ATOM      4  N   UNL     1       6.938   3.263  -0.558  0.00  0.00    -0.300 N 
ATOM      5  C   UNL     1       6.796   2.929   0.731  0.00  0.00    +0.135 C 
ATOM      6  S   UNL     1       7.772   3.709   1.901  0.00  0.00    -0.019 S 
ATOM      7  N   UNL     1       5.909   1.999   1.137  0.00  0.00    -0.315 N 
ATOM      8  C   UNL     1       6.450   3.150  -2.989  0.00  0.00    +0.061 C 
ATOM      9  H   UNL     1       7.690   4.034  -0.782  0.00  0.00    +0.154 HD
ATOM     10  H   UNL     1       5.800   1.731   2.199  0.00  0.00    +0.149 HD
ENDROOT
BRANCH   1  14
ATOM     11  C   UNL     1       0.975   2.027   1.125  0.00  0.00    +0.176 A 
ATOM     12  C   UNL     1       1.841   3.103   0.954  0.00  0.00    +0.163 A 
ATOM     13  C   UNL     1       3.169   2.875   0.631  0.00  0.00    +0.055 A 
ATOM     14  C   UNL     1       3.630   1.581   0.474  0.00  0.00    -0.018 A 
ATOM     15  C   UNL     1       2.770   0.512   0.638  0.00  0.00    +0.025 A 
ATOM     16  C   UNL     1       1.442   0.732   0.962  0.00  0.00    +0.063 A 
ATOM     17 BR   UNL     1       0.268  -0.733   1.188  0.00  0.00    -0.046 Br
BRANCH  12  18
ATOM     18  O   UNL     1       1.387   4.375   1.108  0.00  0.00    -0.491 OA
ATOM     19  C   UNL     1       2.313   5.431   0.848  0.00  0.00    +0.277 C 
ENDBRANCH  12  18
BRANCH  11  20
ATOM     20  O   UNL     1      -0.328   2.246   1.447  0.00  0.00    -0.487 OA
BRANCH  20  21
ATOM     21  C   UNL     1      -1.248   2.393   0.364  0.00  0.00    +0.229 C 
BRANCH  21  22
ATOM     22  C   UNL     1      -2.654   2.631   0.918  0.00  0.00    +0.041 C 
BRANCH  22  24
ATOM     23  C   UNL     1      -5.046   3.026   0.312  0.00  0.00    +0.004 C 
ATOM     24  C   UNL     1      -3.639   2.789  -0.242  0.00  0.00    -0.000 C 
ENDBRANCH  22  24
ENDBRANCH  21  22
ENDBRANCH  20  21
ENDBRANCH  11  20
ENDBRANCH   1  14
BRANCH   2  25
ATOM     25  C   UNL     1       4.528   1.175  -2.368  0.00  0.00    +0.248 C 
ATOM     26  O   UNL     1       4.617   1.616  -3.499  0.00  0.00    -0.270 OA
ATOM     27  N   UNL     1       3.712   0.133  -2.113  0.00  0.00    -0.282 N 
ATOM     28  H   UNL     1       3.540  -0.190  -1.076  0.00  0.00    +0.155 HD
BRANCH  27  29
ATOM     29  C   UNL     1       3.083  -0.537  -3.168  0.00  0.00    +0.034 A 
ATOM     30  C   UNL     1       3.712  -0.637  -4.402  0.00  0.00    +0.023 A 
ATOM     31  C   UNL     1       3.091  -1.303  -5.440  0.00  0.00    +0.005 A 
ATOM     32  C   UNL     1       1.839  -1.861  -5.255  0.00  0.00    -0.050 A 
ATOM     33  C   UNL     1       1.208  -1.758  -4.029  0.00  0.00    +0.005 A 
ATOM     34  C   UNL     1       1.826  -1.098  -2.985  0.00  0.00    +0.023 A 
ATOM     35  C   UNL     1       1.162  -2.582  -6.391  0.00  0.00    +0.044 C 
ENDBRANCH  27  29
ENDBRANCH   2  25
TORSDOF 8
