REMARK  Name = ZINC09339169
REMARK  6 active torsions:
REMARK  status: ('A' for Active; 'I' for Inactive)
REMARK    1  A    between atoms: C_1  and  C_2
REMARK    2  A    between atoms: C_5  and  N_8
REMARK    3  A    between atoms: C_12  and  S_13
REMARK    4  A    between atoms: S_13  and  C_14
REMARK    5  A    between atoms: C_14  and  C_15
REMARK    6  A    between atoms: N_17  and  N_18
REMARK                            x       y       z     vdW  Elec       q    Type
REMARK                         _______ _______ _______ _____ _____    ______ ____
ROOT
ATOM      1  S   UNL     1       5.963   5.067   1.001  0.00  0.00    -0.076 S 
ENDROOT
BRANCH   1   6
ATOM      2  N   UNL     1       3.696   3.444   1.207  0.00  0.00    -0.259 N 
ATOM      3  C   UNL     1       3.394   2.123   1.398  0.00  0.00    +0.225 A 
ATOM      4  N   UNL     1       4.520   1.464   1.518  0.00  0.00    -0.112 NA
ATOM      5  N   UNL     1       5.574   2.377   1.393  0.00  0.00    -0.120 NA
ATOM      6  C   UNL     1       5.059   3.569   1.209  0.00  0.00    +0.198 A 
ATOM      7  N   UNL     1       2.118   1.578   1.459  0.00  0.00    -0.299 N 
ATOM      8  C   UNL     1       1.921   0.579   0.402  0.00  0.00    +0.108 C 
ATOM      9  C   UNL     1       0.465   0.107   0.408  0.00  0.00    +0.019 C 
ATOM     10  C   UNL     1       0.136  -0.498   1.776  0.00  0.00    +0.003 C 
ATOM     11  C   UNL     1       0.395   0.548   2.864  0.00  0.00    +0.019 C 
ATOM     12  C   UNL     1       1.853   1.007   2.786  0.00  0.00    +0.108 C 
BRANCH   2  17
ATOM     13  C   UNL     1      -0.043   7.661   0.531  0.00  0.00    +0.044 C 
ATOM     14  C   UNL     1       0.950   6.541   0.711  0.00  0.00    -0.050 A 
ATOM     15  C   UNL     1       1.746   6.500   1.840  0.00  0.00    +0.005 A 
ATOM     16  C   UNL     1       2.656   5.475   2.008  0.00  0.00    +0.026 A 
ATOM     17  C   UNL     1       2.772   4.486   1.040  0.00  0.00    +0.052 A 
ATOM     18  C   UNL     1       1.976   4.534  -0.096  0.00  0.00    +0.026 A 
ATOM     19  C   UNL     1       1.063   5.558  -0.255  0.00  0.00    +0.005 A 
ENDBRANCH   2  17
ENDBRANCH   1   6
BRANCH   1  20
ATOM     20  C   UNL     1       7.699   4.551   1.103  0.00  0.00    +0.174 C 
BRANCH  20  21
ATOM     21  C   UNL     1       8.592   5.754   0.939  0.00  0.00    +0.240 C 
ATOM     22  O   UNL     1       8.105   6.851   0.769  0.00  0.00    -0.273 OA
ATOM     23  N   UNL     1       9.931   5.610   0.980  0.00  0.00    -0.223 N 
ATOM     24  H   UNL     1      10.320   4.731   1.115  0.00  0.00    +0.174 HD
BRANCH  23  25
ATOM     25  N   UNL     1      10.761   6.728   0.827  0.00  0.00    -0.137 N 
ATOM     26  C   UNL     1      11.427   7.322   1.839  0.00  0.00    +0.263 C 
ATOM     27  O   UNL     1      11.422   7.002   3.008  0.00  0.00    -0.271 OA
ATOM     28  C   UNL     1      12.181   8.470   1.207  0.00  0.00    +0.114 C 
ATOM     29  C   UNL     1      13.683   8.286   1.395  0.00  0.00    +0.035 C 
ATOM     30  C   UNL     1      14.429   9.443   0.724  0.00  0.00    +0.003 C 
ATOM     31  C   UNL     1      13.978  10.766   1.345  0.00  0.00    +0.000 C 
ATOM     32  C   UNL     1      12.475  10.948   1.127  0.00  0.00    +0.003 C 
ATOM     33  C   UNL     1      11.721   9.797   1.799  0.00  0.00    +0.035 C 
ATOM     34  N   UNL     1      11.826   8.389  -0.216  0.00  0.00    -0.284 N 
ATOM     35  C   UNL     1      10.996   7.336  -0.342  0.00  0.00    +0.326 C 
ATOM     36  O   UNL     1      10.512   6.980  -1.399  0.00  0.00    -0.251 OA
ATOM     37  H   UNL     1      12.132   8.976  -0.925  0.00  0.00    +0.151 HD
ENDBRANCH  23  25
ENDBRANCH  20  21
ENDBRANCH   1  20
TORSDOF 5
