REMARK  Name = ZINC05130871
REMARK  13 active torsions:
REMARK  status: ('A' for Active; 'I' for Inactive)
REMARK    1  A    between atoms: C_1  and  C_2
REMARK    2  A    between atoms: C_2  and  C_3
REMARK    3  A    between atoms: C_2  and  O_4
REMARK    4  A    between atoms: O_4  and  C_5
REMARK    5  A    between atoms: C_8  and  C_13
REMARK    6  A    between atoms: C_10  and  O_11
REMARK    7  A    between atoms: O_11  and  C_12
REMARK    8  A    between atoms: C_16  and  C_27
REMARK    9  A    between atoms: C_22  and  N_26
REMARK   10  A    between atoms: C_23  and  C_24
REMARK   11  A    between atoms: C_27  and  C_28
REMARK   12  A    between atoms: C_27  and  C_29
REMARK   13  A    between atoms: C_27  and  C_30
REMARK                            x       y       z     vdW  Elec       q    Type
REMARK                         _______ _______ _______ _____ _____    ______ ____
ROOT
ATOM      1  C   UNL     1      -2.598  -0.759   5.653  0.00  0.00    +0.101 C 
ATOM      2  C   UNL     1      -3.262   0.458   6.243  0.00  0.00    +0.050 A 
ATOM      3  C   UNL     1      -2.686   1.608   6.764  0.00  0.00    +0.076 A 
ATOM      4  N   UNL     1      -3.650   2.403   7.163  0.00  0.00    -0.175 NA
ATOM      5  N   UNL     1      -4.878   1.774   6.904  0.00  0.00    -0.246 N 
ATOM      6  H   UNL     1      -5.757   2.136   7.098  0.00  0.00    +0.192 HD
ATOM      7  C   UNL     1      -4.620   0.583   6.341  0.00  0.00    +0.222 A 
ATOM      8  O   UNL     1      -5.476  -0.380   5.919  0.00  0.00    -0.423 OA
ATOM      9  C   UNL     1      -4.962  -1.596   5.643  0.00  0.00    +0.200 C 
ATOM     10  C   UNL     1      -3.639  -1.841   5.508  0.00  0.00    +0.098 C 
ENDROOT
BRANCH   1  14
ATOM     11  C   UNL     1      -0.977   0.204   1.815  0.00  0.00    +0.162 A 
ATOM     12  C   UNL     1      -2.284   0.546   2.124  0.00  0.00    +0.050 A 
ATOM     13  C   UNL     1      -2.805   0.233   3.365  0.00  0.00    +0.008 A 
ATOM     14  C   UNL     1      -2.025  -0.421   4.301  0.00  0.00    -0.031 A 
ATOM     15  C   UNL     1      -0.720  -0.764   3.999  0.00  0.00    +0.054 A 
ATOM     16  C   UNL     1      -0.193  -0.459   2.755  0.00  0.00    +0.162 A 
BRANCH  16  17
ATOM     17  O   UNL     1       1.088  -0.801   2.454  0.00  0.00    -0.491 OA
ATOM     18  C   UNL     1       1.833  -1.480   3.468  0.00  0.00    +0.277 C 
ENDBRANCH  16  17
BRANCH  11  19
ATOM     19  O   UNL     1      -0.463   0.511   0.594  0.00  0.00    -0.486 OA
BRANCH  19  21
ATOM     20  C   UNL     1      -1.333   2.677  -0.031  0.00  0.00    +0.051 C 
ATOM     21  C   UNL     1      -1.330   1.176  -0.327  0.00  0.00    +0.167 C 
ATOM     22  C   UNL     1      -0.836   0.938  -1.755  0.00  0.00    +0.051 C 
ENDBRANCH  19  21
ENDBRANCH  11  19
ENDBRANCH   1  14
BRANCH   3  23
ATOM     23  C   UNL     1      -1.209   1.894   6.856  0.00  0.00    +0.007 C 
ATOM     24  C   UNL     1      -0.646   2.129   5.453  0.00  0.00    +0.017 C 
ATOM     25  C   UNL     1      -0.984   3.143   7.712  0.00  0.00    +0.017 C 
ATOM     26  C   UNL     1      -0.497   0.701   7.498  0.00  0.00    +0.017 C 
ENDBRANCH   3  23
BRANCH   9  27
ATOM     27  N   UNL     1      -5.832  -2.646   5.489  0.00  0.00    -0.328 N 
ATOM     28  H   UNL     1      -6.787  -2.502   5.579  0.00  0.00    +0.145 HD
ATOM     29  H   UNL     1      -5.493  -3.533   5.290  0.00  0.00    +0.145 HD
ENDBRANCH   9  27
BRANCH  10  30
ATOM     30  C   UNL     1      -3.210  -3.176   5.219  0.00  0.00    +0.101 C 
ATOM     31  N   UNL     1      -2.869  -4.236   4.989  0.00  0.00    -0.191 NA
ENDBRANCH  10  30
TORSDOF 7
