REMARK  Name = ZINC09009246
REMARK  5 active torsions:
REMARK  status: ('A' for Active; 'I' for Inactive)
REMARK    1  A    between atoms: C_4  and  S_7
REMARK    2  A    between atoms: S_7  and  N_10
REMARK    3  A    between atoms: N_10  and  C_11
REMARK    4  A    between atoms: C_16  and  C_28
REMARK    5  A    between atoms: C_19  and  C_21
REMARK                            x       y       z     vdW  Elec       q    Type
REMARK                         _______ _______ _______ _____ _____    ______ ____
ROOT
ATOM      1  C   UNL     1       5.568  -1.744   1.829  0.00  0.00    +0.255 A 
ATOM      2  N   UNL     1       6.026  -2.006   3.058  0.00  0.00    -0.293 N 
ATOM      3  C   UNL     1       7.170  -2.641   2.977  0.00  0.00    +0.228 A 
ATOM      4  N   UNL     1       7.458  -2.804   1.650  0.00  0.00    -0.221 N 
ATOM      5  N   UNL     1       6.415  -2.220   0.939  0.00  0.00    -0.130 NA
ATOM      6  C   UNL     1       8.662  -3.492   1.183  0.00  0.00    +0.147 C 
ATOM      7  C   UNL     1       9.757  -3.301   2.238  0.00  0.00    +0.087 C 
ATOM      8  C   UNL     1       9.206  -3.475   3.626  0.00  0.00    +0.055 C 
ATOM      9  N   UNL     1       7.991  -3.119   3.949  0.00  0.00    -0.217 NA
ATOM     10  H   UNL     1       5.580  -1.762   3.885  0.00  0.00    +0.172 HD
ENDROOT
BRANCH   8  11
ATOM     11  C   UNL     1      10.068  -4.068   4.659  0.00  0.00    -0.003 A 
ATOM     12  C   UNL     1      11.376  -4.454   4.347  0.00  0.00    +0.011 A 
ATOM     13  C   UNL     1      12.178  -5.010   5.321  0.00  0.00    +0.020 A 
ATOM     14  C   UNL     1      11.691  -5.186   6.606  0.00  0.00    +0.041 A 
ATOM     15  C   UNL     1      10.397  -4.806   6.923  0.00  0.00    +0.020 A 
ATOM     16  C   UNL     1       9.586  -4.244   5.961  0.00  0.00    +0.011 A 
ATOM     17 CL   UNL     1      12.708  -5.887   7.826  0.00  0.00    -0.084 Cl
ENDBRANCH   8  11
BRANCH   6  18
ATOM     18  C   UNL     1       9.109  -2.902  -0.130  0.00  0.00    -0.022 A 
ATOM     19  C   UNL     1       9.450  -1.564  -0.205  0.00  0.00    +0.008 A 
ATOM     20  C   UNL     1       9.861  -1.022  -1.408  0.00  0.00    +0.038 A 
ATOM     21  C   UNL     1       9.931  -1.819  -2.538  0.00  0.00    +0.123 A 
ATOM     22  C   UNL     1       9.590  -3.159  -2.461  0.00  0.00    +0.038 A 
ATOM     23  C   UNL     1       9.184  -3.700  -1.256  0.00  0.00    +0.008 A 
ATOM     24  F   UNL     1      10.332  -1.290  -3.715  0.00  0.00    -0.205 F 
ENDBRANCH   6  18
BRANCH   1  25
ATOM     25  N   UNL     1       4.378  -1.079   1.536  0.00  0.00    -0.058 NA
BRANCH  25  26
ATOM     26  S   UNL     1       3.934  -0.832  -0.041  0.00  0.00    +0.094 S 
ATOM     27  O   UNL     1       3.674  -2.114  -0.595  0.00  0.00    -0.148 OA
ATOM     28  O   UNL     1       4.890   0.060  -0.597  0.00  0.00    -0.148 OA
BRANCH  26  32
ATOM     29  C   UNL     1      -0.017   1.378   0.010  0.00  0.00    +0.000 A 
ATOM     30  C   UNL     1       1.171   2.086   0.002  0.00  0.00    +0.002 A 
ATOM     31  C   UNL     1       2.377   1.411  -0.013  0.00  0.00    +0.029 A 
ATOM     32  C   UNL     1       2.396   0.029  -0.020  0.00  0.00    +0.110 A 
ATOM     33  C   UNL     1       1.208  -0.679  -0.012  0.00  0.00    +0.029 A 
ATOM     34  C   UNL     1       0.002  -0.004   0.002  0.00  0.00    +0.002 A 
ENDBRANCH  26  32
ENDBRANCH  25  26
ENDBRANCH   1  25
TORSDOF 5
