REMARK  Name = ZINC10745115
REMARK  9 active torsions:
REMARK  status: ('A' for Active; 'I' for Inactive)
REMARK    1  A    between atoms: C_1  and  C_2
REMARK    2  A    between atoms: N_11  and  C_15
REMARK    3  A    between atoms: C_15  and  C_16
REMARK    4  A    between atoms: C_16  and  O_18
REMARK    5  A    between atoms: O_18  and  C_19
REMARK    6  A    between atoms: C_19  and  C_21
REMARK    7  A    between atoms: C_19  and  C_22
REMARK    8  A    between atoms: N_24  and  C_25
REMARK    9  A    between atoms: C_30  and  C_31
REMARK                            x       y       z     vdW  Elec       q    Type
REMARK                         _______ _______ _______ _____ _____    ______ ____
ROOT
ATOM      1  O   UNL     1       5.304  -2.950  -4.449  0.00  0.00    -0.451 OA
ENDROOT
BRANCH   1   2
ATOM      2  C   UNL     1       6.520  -2.536  -4.840  0.00  0.00    +0.326 C 
ATOM      3  O   UNL     1       6.912  -1.436  -4.531  0.00  0.00    -0.249 OA
BRANCH   2   4
ATOM      4  C   UNL     1       7.395  -3.445  -5.664  0.00  0.00    +0.238 C 
BRANCH   4  14
ATOM      5  C   UNL     1      11.031  -3.536  -8.200  0.00  0.00    +0.010 C 
ATOM      6  C   UNL     1      11.125  -2.011  -8.114  0.00  0.00    +0.018 C 
ATOM      7  C   UNL     1      10.588  -1.393  -9.408  0.00  0.00    +0.006 C 
ATOM      8  C   UNL     1      10.664   0.132  -9.312  0.00  0.00    +0.000 C 
ATOM      9  C   UNL     1       9.812   0.613  -8.136  0.00  0.00    +0.003 C 
ATOM     10  C   UNL     1      10.346   0.004  -6.838  0.00  0.00    +0.035 C 
ATOM     11  C   UNL     1      10.300  -1.518  -6.931  0.00  0.00    +0.115 C 
ATOM     12  C   UNL     1       8.873  -2.001  -7.050  0.00  0.00    +0.247 C 
ATOM     13  O   UNL     1       8.085  -1.750  -7.936  0.00  0.00    -0.273 OA
ATOM     14  N   UNL     1       8.660  -2.767  -5.960  0.00  0.00    -0.213 N 
ATOM     15  C   UNL     1       9.750  -2.836  -5.186  0.00  0.00    +0.310 C 
ATOM     16  O   UNL     1       9.804  -3.471  -4.150  0.00  0.00    -0.252 OA
ATOM     17  N   UNL     1      10.779  -2.124  -5.682  0.00  0.00    -0.285 N 
ATOM     18  H   UNL     1      11.662  -2.030  -5.292  0.00  0.00    +0.151 HD
ENDBRANCH   4  14
ENDBRANCH   2   4
ENDBRANCH   1   2
BRANCH   1  19
ATOM     19  C   UNL     1       4.515  -2.022  -3.658  0.00  0.00    +0.259 C 
ATOM     20  C   UNL     1       3.665  -1.153  -4.587  0.00  0.00    +0.062 C 
BRANCH  19  21
ATOM     21  C   UNL     1       3.615  -2.795  -2.728  0.00  0.00    +0.258 C 
ATOM     22  O   UNL     1       3.635  -4.007  -2.733  0.00  0.00    -0.271 OA
ATOM     23  N   UNL     1       2.786  -2.138  -1.893  0.00  0.00    -0.282 N 
ATOM     24  H   UNL     1       2.722  -1.171  -1.934  0.00  0.00    +0.155 HD
BRANCH  23  25
ATOM     25  C   UNL     1       2.020  -2.850  -0.966  0.00  0.00    +0.041 A 
ATOM     26  C   UNL     1       1.521  -4.103  -1.291  0.00  0.00    +0.024 A 
ATOM     27  C   UNL     1       0.764  -4.805  -0.373  0.00  0.00    +0.002 A 
ATOM     28  C   UNL     1       0.500  -4.265   0.874  0.00  0.00    +0.001 A 
ATOM     29  C   UNL     1       0.994  -3.022   1.212  0.00  0.00    +0.010 A 
ATOM     30  C   UNL     1       1.753  -2.302   0.294  0.00  0.00    +0.003 A 
BRANCH  30  31
ATOM     31  C   UNL     1       2.282  -0.963   0.651  0.00  0.00    -0.016 A 
ATOM     32  C   UNL     1       1.434   0.005   1.185  0.00  0.00    +0.008 A 
ATOM     33  C   UNL     1       1.932   1.248   1.517  0.00  0.00    +0.001 A 
ATOM     34  C   UNL     1       3.270   1.535   1.320  0.00  0.00    +0.000 A 
ATOM     35  C   UNL     1       4.117   0.579   0.790  0.00  0.00    +0.001 A 
ATOM     36  C   UNL     1       3.631  -0.669   0.455  0.00  0.00    +0.008 A 
ENDBRANCH  30  31
ENDBRANCH  23  25
ENDBRANCH  19  21
ENDBRANCH   1  19
TORSDOF 7
