REMARK  Name = ZINC19830856
REMARK  9 active torsions:
REMARK  status: ('A' for Active; 'I' for Inactive)
REMARK    1  A    between atoms: C_1  and  C_2
REMARK    2  A    between atoms: C_3  and  C_28
REMARK    3  A    between atoms: C_4  and  C_21
REMARK    4  A    between atoms: C_10  and  C_15
REMARK    5  A    between atoms: C_24  and  O_27
REMARK    6  A    between atoms: C_28  and  O_30
REMARK    7  A    between atoms: O_30  and  C_31
REMARK    8  A    between atoms: C_31  and  C_32
REMARK    9  A    between atoms: C_31  and  C_33
REMARK                            x       y       z     vdW  Elec       q    Type
REMARK                         _______ _______ _______ _____ _____    ______ ____
ROOT
ATOM      1  C   UNL     1       0.182  -4.192  -0.834  0.00  0.00    +0.061 C 
ATOM      2  C   UNL     1       0.057  -2.752  -0.406  0.00  0.00    +0.016 C 
ATOM      3  C   UNL     1      -1.152  -2.164  -0.391  0.00  0.00    +0.065 C 
ATOM      4  C   UNL     1      -1.316  -0.735   0.037  0.00  0.00    +0.092 C 
ATOM      5  C   UNL     1       0.002  -0.004   0.002  0.00  0.00    +0.024 C 
ATOM      6  C   UNL     1       1.167  -0.685  -0.032  0.00  0.00    +0.016 C 
ATOM      7  N   UNL     1       1.172  -2.054  -0.038  0.00  0.00    -0.321 N 
ATOM      8  C   UNL     1       2.490   0.040  -0.068  0.00  0.00    +0.059 C 
ATOM      9  C   UNL     1       2.365   1.374   0.670  0.00  0.00    +0.032 C 
ATOM     10  C   UNL     1       1.259   2.198   0.002  0.00  0.00    +0.088 C 
ATOM     11  C   UNL     1      -0.017   1.402   0.010  0.00  0.00    +0.162 C 
ATOM     12  O   UNL     1      -1.083   1.984   0.018  0.00  0.00    -0.292 OA
ATOM     13  H   UNL     1       2.085  -2.591   0.258  0.00  0.00    +0.152 HD
ENDROOT
BRANCH   9  14
ATOM     14  C   UNL     1       3.671   2.122   0.591  0.00  0.00    -0.044 A 
ATOM     15  C   UNL     1       4.196   2.467  -0.640  0.00  0.00    +0.004 A 
ATOM     16  C   UNL     1       5.393   3.156  -0.713  0.00  0.00    +0.000 A 
ATOM     17  C   UNL     1       6.069   3.491   0.445  0.00  0.00    +0.000 A 
ATOM     18  C   UNL     1       5.546   3.142   1.676  0.00  0.00    +0.000 A 
ATOM     19  C   UNL     1       4.348   2.457   1.749  0.00  0.00    +0.004 A 
ENDBRANCH   9  14
BRANCH   4  20
ATOM     20  C   UNL     1      -1.865  -0.700   1.440  0.00  0.00    -0.035 A 
ATOM     21  C   UNL     1      -1.143  -1.261   2.478  0.00  0.00    +0.008 A 
ATOM     22  C   UNL     1      -1.641  -1.224   3.766  0.00  0.00    +0.046 A 
ATOM     23  C   UNL     1      -2.871  -0.635   4.016  0.00  0.00    +0.117 A 
ATOM     24  C   UNL     1      -3.596  -0.077   2.973  0.00  0.00    +0.046 A 
ATOM     25  C   UNL     1      -3.091  -0.111   1.687  0.00  0.00    +0.008 A 
BRANCH  23  26
ATOM     26  O   UNL     1      -3.366  -0.603   5.282  0.00  0.00    -0.507 OA
ATOM     27  H   UNL     1      -4.342  -0.135   5.479  0.00  0.00    +0.292 HD
ENDBRANCH  23  26
ENDBRANCH   4  20
BRANCH   3  28
ATOM     28  C   UNL     1      -2.290  -2.905  -0.784  0.00  0.00    +0.338 C 
ATOM     29  O   UNL     1      -2.170  -4.065  -1.133  0.00  0.00    -0.245 OA
BRANCH  28  30
ATOM     30  O   UNL     1      -3.509  -2.327  -0.773  0.00  0.00    -0.459 OA
BRANCH  30  31
ATOM     31  C   UNL     1      -4.614  -3.135  -1.183  0.00  0.00    +0.171 C 
ATOM     32  C   UNL     1      -5.879  -2.678  -0.453  0.00  0.00    +0.052 C 
ATOM     33  C   UNL     1      -4.817  -2.994  -2.693  0.00  0.00    +0.052 C 
ENDBRANCH  30  31
ENDBRANCH  28  30
ENDBRANCH   3  28
TORSDOF 6
