REMARK  Name = ZINC67467446
REMARK  8 active torsions:
REMARK  status: ('A' for Active; 'I' for Inactive)
REMARK    1  A    between atoms: C_1  and  C_2
REMARK    2  A    between atoms: C_2  and  C_3
REMARK    3  A    between atoms: C_2  and  C_4
REMARK    4  A    between atoms: C_4  and  C_5
REMARK    5  A    between atoms: C_5  and  C_7
REMARK    6  A    between atoms: C_5  and  N_23
REMARK    7  A    between atoms: N_9  and  C_10
REMARK    8  A    between atoms: C_12  and  N_17
REMARK                            x       y       z     vdW  Elec       q    Type
REMARK                         _______ _______ _______ _____ _____    ______ ____
ROOT
ATOM      1  C   UNL     1      -2.820  -2.587   0.013  0.00  0.00    +0.238 C 
ATOM      2  O   UNL     1      -3.451  -2.888  -0.979  0.00  0.00    -0.273 OA
ATOM      3  N   UNL     1      -3.370  -2.737   1.234  0.00  0.00    -0.282 N 
ATOM      4  H   UNL     1      -2.840  -2.573   2.029  0.00  0.00    +0.155 HD
ENDROOT
BRANCH   3   5
ATOM      5  C   UNL     1      -4.709  -3.132   1.355  0.00  0.00    +0.071 A 
ATOM      6  C   UNL     1      -5.603  -2.881   0.324  0.00  0.00    +0.049 A 
ATOM      7  C   UNL     1      -6.928  -3.273   0.448  0.00  0.00    +0.041 A 
ATOM      8  C   UNL     1      -7.356  -3.916   1.601  0.00  0.00    +0.026 A 
ATOM      9  C   UNL     1      -6.465  -4.165   2.627  0.00  0.00    +0.042 A 
ATOM     10  C   UNL     1      -5.142  -3.781   2.506  0.00  0.00    +0.145 A 
ATOM     11  F   UNL     1      -4.271  -4.032   3.508  0.00  0.00    -0.204 F 
BRANCH   7  12
ATOM     12  N   UNL     1      -7.833  -3.020  -0.591  0.00  0.00    -0.234 N 
ATOM     13  C   UNL     1      -9.267  -3.371  -0.601  0.00  0.00    +0.158 C 
ATOM     14  C   UNL     1      -9.802  -2.528  -1.783  0.00  0.00    +0.253 C 
ATOM     15  O   UNL     1      -8.615  -2.337  -2.577  0.00  0.00    -0.448 OA
ATOM     16  C   UNL     1      -7.553  -2.408  -1.757  0.00  0.00    +0.407 C 
ATOM     17  O   UNL     1      -6.455  -1.968  -2.039  0.00  0.00    -0.226 OA
ENDBRANCH   7  12
ENDBRANCH   3   5
BRANCH   1  18
ATOM     18  C   UNL     1      -1.421  -2.043  -0.121  0.00  0.00    +0.161 C 
BRANCH  18  19
ATOM     19  N   UNL     1      -0.879  -2.408  -1.432  0.00  0.00    -0.288 N 
ATOM     20  C   UNL     1      -1.497  -1.996  -2.557  0.00  0.00    +0.298 C 
ATOM     21  O   UNL     1      -2.506  -1.320  -2.482  0.00  0.00    -0.253 OA
ATOM     22  N   UNL     1      -0.998  -2.332  -3.763  0.00  0.00    -0.313 N 
ATOM     23  H   UNL     1      -0.074  -2.947  -1.491  0.00  0.00    +0.151 HD
ATOM     24  H   UNL     1      -0.194  -2.871  -3.821  0.00  0.00    +0.146 HD
ATOM     25  H   UNL     1      -1.444  -2.035  -4.572  0.00  0.00    +0.146 HD
ENDBRANCH  18  19
BRANCH  18  26
ATOM     26  C   UNL     1      -1.451  -0.519   0.011  0.00  0.00    +0.034 C 
BRANCH  26  28
ATOM     27  C   UNL     1      -0.053   1.552   0.007  0.00  0.00    +0.007 C 
ATOM     28  C   UNL     1      -0.020   0.022   0.000  0.00  0.00    -0.015 C 
ATOM     29  C   UNL     1       0.724  -0.478   1.240  0.00  0.00    +0.007 C 
ENDBRANCH  26  28
ENDBRANCH  18  26
ENDBRANCH   1  18
TORSDOF 6
