REMARK  Name = ZINC02926255
REMARK  11 active torsions:
REMARK  status: ('A' for Active; 'I' for Inactive)
REMARK    1  A    between atoms: C_1  and  C_2
REMARK    2  A    between atoms: C_2  and  S_3
REMARK    3  A    between atoms: S_3  and  C_4
REMARK    4  A    between atoms: C_4  and  C_5
REMARK    5  A    between atoms: C_5  and  O_6
REMARK    6  A    between atoms: O_6  and  C_7
REMARK    7  A    between atoms: C_7  and  C_9
REMARK    8  A    between atoms: C_10  and  C_38
REMARK    9  A    between atoms: C_14  and  C_16
REMARK   10  A    between atoms: C_19  and  N_22
REMARK   11  A    between atoms: C_28  and  C_31
REMARK                            x       y       z     vdW  Elec       q    Type
REMARK                         _______ _______ _______ _____ _____    ______ ____
ROOT
ATOM      1  C   UNL     1      -1.151  -2.164  -0.391  0.00  0.00    +0.065 C 
ATOM      2  C   UNL     1       0.057  -2.752  -0.407  0.00  0.00    +0.016 C 
ATOM      3  N   UNL     1       1.172  -2.054  -0.038  0.00  0.00    -0.321 N 
ATOM      4  C   UNL     1       1.167  -0.685  -0.032  0.00  0.00    +0.016 C 
ATOM      5  C   UNL     1       0.002  -0.004   0.002  0.00  0.00    +0.024 C 
ATOM      6  C   UNL     1      -1.316  -0.735   0.037  0.00  0.00    +0.092 C 
ATOM      7  C   UNL     1      -0.017   1.402   0.010  0.00  0.00    +0.162 C 
ATOM      8  O   UNL     1      -1.083   1.984   0.018  0.00  0.00    -0.292 OA
ATOM      9  C   UNL     1       1.259   2.198   0.002  0.00  0.00    +0.088 C 
ATOM     10  C   UNL     1       2.365   1.374   0.670  0.00  0.00    +0.032 C 
ATOM     11  C   UNL     1       2.490   0.040  -0.068  0.00  0.00    +0.059 C 
ATOM     12  C   UNL     1       0.183  -4.192  -0.834  0.00  0.00    +0.061 C 
ATOM     13  H   UNL     1       2.085  -2.591   0.258  0.00  0.00    +0.152 HD
ENDROOT
BRANCH  10  14
ATOM     14  C   UNL     1       3.671   2.122   0.591  0.00  0.00    -0.043 A 
ATOM     15  C   UNL     1       4.196   2.467  -0.641  0.00  0.00    +0.005 A 
ATOM     16  C   UNL     1       5.391   3.157  -0.714  0.00  0.00    +0.020 A 
ATOM     17  C   UNL     1       6.068   3.492   0.445  0.00  0.00    +0.041 A 
ATOM     18  C   UNL     1       5.545   3.142   1.677  0.00  0.00    +0.020 A 
ATOM     19  C   UNL     1       4.347   2.456   1.749  0.00  0.00    +0.005 A 
ATOM     20 CL   UNL     1       7.574   4.352   0.353  0.00  0.00    -0.084 Cl
ENDBRANCH  10  14
BRANCH   6  21
ATOM     21  C   UNL     1      -1.865  -0.700   1.440  0.00  0.00    -0.035 A 
ATOM     22  C   UNL     1      -1.144  -1.260   2.478  0.00  0.00    +0.007 A 
ATOM     23  C   UNL     1      -1.645  -1.223   3.766  0.00  0.00    +0.033 A 
ATOM     24  C   UNL     1      -2.871  -0.635   4.015  0.00  0.00    +0.126 A 
ATOM     25  C   UNL     1      -3.594  -0.079   2.976  0.00  0.00    +0.033 A 
ATOM     26  C   UNL     1      -3.091  -0.111   1.689  0.00  0.00    +0.007 A 
BRANCH  24  27
ATOM     27  N   UNL     1      -3.410  -0.600   5.393  0.00  0.00    +0.056 N 
ATOM     28  O   UNL     1      -4.490  -0.082   5.612  0.00  0.00    -0.126 OA
ATOM     29  O   UNL     1      -2.773  -1.090   6.308  0.00  0.00    -0.126 OA
ENDBRANCH  24  27
ENDBRANCH   6  21
BRANCH   1  30
ATOM     30  C   UNL     1      -2.290  -2.905  -0.786  0.00  0.00    +0.338 C 
ATOM     31  O   UNL     1      -2.169  -4.064  -1.136  0.00  0.00    -0.245 OA
BRANCH  30  32
ATOM     32  O   UNL     1      -3.509  -2.327  -0.775  0.00  0.00    -0.460 OA
BRANCH  32  33
ATOM     33  C   UNL     1      -4.614  -3.135  -1.186  0.00  0.00    +0.243 C 
BRANCH  33  34
ATOM     34  C   UNL     1      -5.902  -2.314  -1.108  0.00  0.00    +0.110 C 
BRANCH  34  35
ATOM     35  S   UNL     1      -7.305  -3.339  -1.630  0.00  0.00    -0.158 S 
BRANCH  35  37
ATOM     36  C   UNL     1     -10.004  -2.982  -1.898  0.00  0.00    +0.015 C 
ATOM     37  C   UNL     1      -8.736  -2.234  -1.482  0.00  0.00    +0.066 C 
ENDBRANCH  35  37
ENDBRANCH  34  35
ENDBRANCH  33  34
ENDBRANCH  32  33
ENDBRANCH  30  32
ENDBRANCH   1  30
TORSDOF 9
