REMARK  Name = ZINC42583709
REMARK  5 active torsions:
REMARK  status: ('A' for Active; 'I' for Inactive)
REMARK    1  A    between atoms: C_1  and  N_2
REMARK    2  A    between atoms: C_4  and  C_7
REMARK    3  A    between atoms: C_7  and  S_8
REMARK    4  A    between atoms: S_8  and  C_9
REMARK    5  A    between atoms: N_13  and  C_14
REMARK                            x       y       z     vdW  Elec       q    Type
REMARK                         _______ _______ _______ _____ _____    ______ ____
ROOT
ATOM      1  C   UNL     1       1.600  -5.186  -2.955  0.00  0.00    +0.193 A 
ATOM      2  N   UNL     1       0.476  -5.737  -3.345  0.00  0.00    -0.121 NA
ATOM      3  N   UNL     1       0.791  -6.840  -4.149  0.00  0.00    -0.113 NA
ATOM      4  C   UNL     1       2.096  -6.928  -4.224  0.00  0.00    +0.215 A 
ATOM      5  N   UNL     1       2.631  -5.905  -3.492  0.00  0.00    -0.294 N 
ATOM      6  C   UNL     1       4.058  -5.629  -3.312  0.00  0.00    +0.154 C 
ATOM      7  N   UNL     1       2.811  -7.888  -4.928  0.00  0.00    -0.328 N 
ATOM      8  H   UNL     1       2.341  -8.576  -5.423  0.00  0.00    +0.145 HD
ATOM      9  H   UNL     1       3.781  -7.871  -4.923  0.00  0.00    +0.145 HD
ENDROOT
BRANCH   1  10
ATOM     10  S   UNL     1       1.754  -3.765  -1.925  0.00  0.00    -0.081 S 
BRANCH  10  11
ATOM     11  C   UNL     1       0.039  -3.298  -1.561  0.00  0.00    +0.115 C 
BRANCH  11  15
ATOM     12  C   UNL     1      -0.018   1.461   0.010  0.00  0.00    +0.172 C 
ATOM     13  N   UNL     1       0.002  -0.004   0.002  0.00  0.00    -0.274 N 
ATOM     14  C   UNL     1       0.008  -0.792  -1.094  0.00  0.00    +0.112 A 
ATOM     15  C   UNL     1       0.027  -2.079  -0.676  0.00  0.00    +0.000 A 
ATOM     16  C   UNL     1       0.034  -2.078   0.723  0.00  0.00    +0.138 A 
ATOM     17  N   UNL     1       0.025  -0.834   1.130  0.00  0.00    -0.180 NA
ENDBRANCH  11  15
ENDBRANCH  10  11
ENDBRANCH   1  10
TORSDOF 3
