REMARK  Name = ZINC10450655
REMARK  10 active torsions:
REMARK  status: ('A' for Active; 'I' for Inactive)
REMARK    1  A    between atoms: C_1  and  C_2
REMARK    2  A    between atoms: C_2  and  C_4
REMARK    3  A    between atoms: C_2  and  O_24
REMARK    4  A    between atoms: N_6  and  N_7
REMARK    5  A    between atoms: N_7  and  C_8
REMARK    6  A    between atoms: C_8  and  N_10
REMARK    7  A    between atoms: C_11  and  C_13
REMARK    8  A    between atoms: C_14  and  C_15
REMARK    9  A    between atoms: C_19  and  N_21
REMARK   10  A    between atoms: O_24  and  C_25
REMARK                            x       y       z     vdW  Elec       q    Type
REMARK                         _______ _______ _______ _____ _____    ______ ____
ROOT
ATOM      1  N   UNL     1       2.616  -1.144   2.606  0.00  0.00    -0.245 N 
ATOM      2  H   UNL     1       2.058  -1.508   3.311  0.00  0.00    +0.172 HD
ENDROOT
BRANCH   1   5
ATOM      3  C   UNL     1       0.694  -0.732   1.263  0.00  0.00    +0.270 C 
ATOM      4  O   UNL     1      -0.004  -1.187   2.145  0.00  0.00    -0.270 OA
ATOM      5  N   UNL     1       2.031  -0.676   1.422  0.00  0.00    -0.232 N 
ATOM      6  H   UNL     1       2.588  -0.312   0.716  0.00  0.00    +0.173 HD
BRANCH   3   8
ATOM      7  C   UNL     1       0.291   1.280  -0.130  0.00  0.00    +0.062 C 
ATOM      8  C   UNL     1       0.064  -0.228  -0.010  0.00  0.00    +0.257 C 
BRANCH   8   9
ATOM      9  O   UNL     1      -1.339  -0.499   0.012  0.00  0.00    -0.478 OA
BRANCH   9  10
ATOM     10  C   UNL     1      -1.966  -0.607  -1.189  0.00  0.00    +0.140 A 
ATOM     11  C   UNL     1      -1.272  -0.344  -2.361  0.00  0.00    +0.048 A 
ATOM     12  C   UNL     1      -1.911  -0.454  -3.581  0.00  0.00    +0.023 A 
ATOM     13  C   UNL     1      -3.242  -0.827  -3.635  0.00  0.00    +0.043 A 
ATOM     14  C   UNL     1      -3.937  -1.090  -2.468  0.00  0.00    +0.043 A 
ATOM     15  C   UNL     1      -3.300  -0.986  -1.245  0.00  0.00    +0.084 A 
ATOM     16 CL   UNL     1      -4.169  -1.323   0.219  0.00  0.00    -0.080 Cl
ATOM     17 CL   UNL     1      -4.042  -0.964  -5.170  0.00  0.00    -0.083 Cl
ENDBRANCH   9  10
ENDBRANCH   8   9
ENDBRANCH   3   8
ENDBRANCH   1   5
BRANCH   1  18
ATOM     18  C   UNL     1       3.953  -1.089   2.765  0.00  0.00    +0.153 C 
ATOM     19  S   UNL     1       4.668  -1.661   4.211  0.00  0.00    -0.017 S 
BRANCH  18  20
ATOM     20  N   UNL     1       4.728  -0.583   1.784  0.00  0.00    -0.263 N 
ATOM     21  C   UNL     1       6.065  -0.528   1.943  0.00  0.00    +0.242 C 
ATOM     22  O   UNL     1       6.573  -0.934   2.971  0.00  0.00    -0.270 OA
ATOM     23  H   UNL     1       4.323  -0.259   0.965  0.00  0.00    +0.157 HD
BRANCH  21  24
ATOM     24  C   UNL     1       6.906   0.021   0.879  0.00  0.00    +0.068 C 
ATOM     25  C   UNL     1       8.244   0.076   1.038  0.00  0.00    +0.013 C 
BRANCH  25  26
ATOM     26  C   UNL     1       9.090   0.628  -0.033  0.00  0.00    -0.023 A 
ATOM     27  C   UNL     1       8.509   1.102  -1.214  0.00  0.00    +0.008 A 
ATOM     28  C   UNL     1       9.308   1.618  -2.212  0.00  0.00    +0.003 A 
ATOM     29  C   UNL     1      10.682   1.667  -2.048  0.00  0.00    +0.033 A 
ATOM     30  C   UNL     1      11.264   1.201  -0.882  0.00  0.00    +0.127 A 
ATOM     31  C   UNL     1      10.478   0.688   0.128  0.00  0.00    +0.040 A 
BRANCH  30  32
ATOM     32  N   UNL     1      12.734   1.258  -0.717  0.00  0.00    +0.056 N 
ATOM     33  O   UNL     1      13.424   1.712  -1.599  0.00  0.00    -0.126 OA
ATOM     34  O   UNL     1      13.244   0.851   0.301  0.00  0.00    -0.126 OA
ENDBRANCH  30  32
ENDBRANCH  25  26
ENDBRANCH  21  24
ENDBRANCH  18  20
ENDBRANCH   1  18
TORSDOF 9
