REMARK  Name = ZINC35343801
REMARK  11 active torsions:
REMARK  status: ('A' for Active; 'I' for Inactive)
REMARK    1  A    between atoms: C_1  and  C_2
REMARK    2  A    between atoms: C_8  and  C_10
REMARK    3  A    between atoms: C_10  and  N_11
REMARK    4  A    between atoms: N_11  and  C_12
REMARK    5  A    between atoms: N_11  and  S_18
REMARK    6  A    between atoms: C_12  and  C_13
REMARK    7  A    between atoms: C_13  and  C_14
REMARK    8  A    between atoms: C_14  and  N_15
REMARK    9  A    between atoms: N_15  and  C_16
REMARK   10  A    between atoms: N_15  and  C_17
REMARK   11  A    between atoms: S_18  and  C_21
REMARK                            x       y       z     vdW  Elec       q    Type
REMARK                         _______ _______ _______ _____ _____    ______ ____
ROOT
ATOM      1  N   UNL     1       0.106  -6.552   2.651  0.00  0.00    -0.168 NA
ENDROOT
BRANCH   1   2
ATOM      2  S   UNL     1      -1.312  -7.394   2.498  0.00  0.00    +0.061 S 
ATOM      3  O   UNL     1      -0.974  -8.773   2.561  0.00  0.00    -0.153 OA
ATOM      4  O   UNL     1      -2.238  -6.795   3.393  0.00  0.00    -0.153 OA
BRANCH   2   5
ATOM      5  C   UNL     1      -1.920  -7.097   0.871  0.00  0.00    +0.106 A 
ATOM      6  C   UNL     1      -2.768  -6.016   0.642  0.00  0.00    +0.029 A 
ATOM      7  C   UNL     1      -3.255  -5.759  -0.603  0.00  0.00    +0.010 A 
ATOM      8  C   UNL     1      -2.900  -6.595  -1.675  0.00  0.00    -0.018 A 
ATOM      9  C   UNL     1      -3.383  -6.362  -2.974  0.00  0.00    +0.008 A 
ATOM     10  C   UNL     1      -3.017  -7.193  -3.988  0.00  0.00    +0.001 A 
ATOM     11  C   UNL     1      -2.169  -8.274  -3.758  0.00  0.00    +0.001 A 
ATOM     12  C   UNL     1      -1.682  -8.531  -2.514  0.00  0.00    +0.008 A 
ATOM     13  C   UNL     1      -2.037  -7.695  -1.442  0.00  0.00    -0.016 A 
ATOM     14  C   UNL     1      -1.550  -7.925  -0.144  0.00  0.00    +0.037 A 
ENDBRANCH   2   5
ENDBRANCH   1   2
BRANCH   1  15
ATOM     15  C   UNL     1       0.089  -5.172   3.144  0.00  0.00    +0.205 C 
BRANCH  15  23
ATOM     16  C   UNL     1      -0.018   1.503   0.010  0.00  0.00    +0.066 C 
ATOM     17  C   UNL     1       0.002  -0.004   0.002  0.00  0.00    +0.047 A 
ATOM     18  C   UNL     1       0.006  -0.706  -1.158  0.00  0.00    +0.071 A 
ATOM     19  S   UNL     1       0.032  -2.379  -0.535  0.00  0.00    -0.060 S 
ATOM     20  C   UNL     1       0.036  -2.015   1.108  0.00  0.00    +0.165 A 
ATOM     21  N   UNL     1       0.023  -0.700   1.124  0.00  0.00    -0.230 NA
ATOM     22  N   UNL     1       0.053  -2.891   2.187  0.00  0.00    -0.264 N 
ATOM     23  C   UNL     1       0.071  -4.222   1.974  0.00  0.00    +0.234 C 
ATOM     24  O   UNL     1       0.071  -4.655   0.841  0.00  0.00    -0.274 OA
ATOM     25  H   UNL     1       0.053  -2.545   3.093  0.00  0.00    +0.157 HD
ENDBRANCH  15  23
ENDBRANCH   1  15
BRANCH   1  26
ATOM     26  C   UNL     1       1.377  -7.187   2.295  0.00  0.00    +0.108 C 
BRANCH  26  27
ATOM     27  C   UNL     1       2.020  -7.782   3.550  0.00  0.00    -0.002 C 
BRANCH  27  28
ATOM     28  C   UNL     1       3.347  -8.445   3.178  0.00  0.00    -0.078 C 
BRANCH  28  29
ATOM     29  N   UNL     1       3.964  -9.016   4.383  0.00  0.00    +0.376 N 
ATOM     30  C   UNL     1       3.118 -10.101   4.898  0.00  0.00    -0.097 C 
ATOM     31  C   UNL     1       5.292  -9.547   4.048  0.00  0.00    -0.097 C 
ATOM     32  H   UNL     1       4.056  -8.299   5.086  0.00  0.00    -0.083 HD
ENDBRANCH  28  29
ENDBRANCH  27  28
ENDBRANCH  26  27
ENDBRANCH   1  26
TORSDOF 8
