REMARK  Name = ZINC59359705
REMARK  10 active torsions:
REMARK  status: ('A' for Active; 'I' for Inactive)
REMARK    1  A    between atoms: C_1  and  C_2
REMARK    2  A    between atoms: C_2  and  C_3
REMARK    3  A    between atoms: C_4  and  C_33
REMARK    4  A    between atoms: C_5  and  C_32
REMARK    5  A    between atoms: C_8  and  C_9
REMARK    6  A    between atoms: N_11  and  N_12
REMARK    7  A    between atoms: C_13  and  C_15
REMARK    8  A    between atoms: N_17  and  C_26
REMARK    9  A    between atoms: C_19  and  C_20
REMARK   10  A    between atoms: C_33  and  C_35
REMARK                            x       y       z     vdW  Elec       q    Type
REMARK                         _______ _______ _______ _____ _____    ______ ____
ROOT
ATOM      1  N   UNL     1      -1.978  -1.769  -4.885  0.00  0.00    -0.230 N 
ATOM      2  C   UNL     1      -2.875  -1.936  -5.876  0.00  0.00    +0.264 C 
ATOM      3  O   UNL     1      -4.019  -2.255  -5.613  0.00  0.00    -0.269 OA
ATOM      4  H   UNL     1      -1.065  -1.514  -5.095  0.00  0.00    +0.173 HD
ENDROOT
BRANCH   2   5
ATOM      5  C   UNL     1      -2.471  -1.734  -7.278  0.00  0.00    +0.084 A 
ATOM      6  C   UNL     1      -1.196  -1.483  -7.742  0.00  0.00    +0.128 A 
ATOM      7  N   UNL     1      -1.262  -1.362  -9.080  0.00  0.00    -0.239 N 
ATOM      8  N   UNL     1      -2.583  -1.532  -9.503  0.00  0.00    -0.166 NA
ATOM      9  C   UNL     1      -3.343  -1.764  -8.457  0.00  0.00    +0.105 A 
BRANCH   9  10
ATOM     10  C   UNL     1      -4.806  -2.007  -8.465  0.00  0.00    +0.003 A 
ATOM     11  C   UNL     1      -5.624  -1.381  -7.527  0.00  0.00    +0.010 A 
ATOM     12  C   UNL     1      -6.985  -1.610  -7.540  0.00  0.00    +0.001 A 
ATOM     13  C   UNL     1      -7.537  -2.460  -8.482  0.00  0.00    +0.000 A 
ATOM     14  C   UNL     1      -6.729  -3.084  -9.415  0.00  0.00    +0.001 A 
ATOM     15  C   UNL     1      -5.368  -2.858  -9.416  0.00  0.00    +0.010 A 
ENDBRANCH   9  10
BRANCH   7  16
ATOM     16  C   UNL     1      -0.172  -1.104  -9.921  0.00  0.00    +0.065 A 
ATOM     17  C   UNL     1       1.101  -0.958  -9.385  0.00  0.00    +0.028 A 
ATOM     18  C   UNL     1       2.174  -0.704 -10.217  0.00  0.00    +0.002 A 
ATOM     19  C   UNL     1       1.982  -0.594 -11.582  0.00  0.00    +0.000 A 
ATOM     20  C   UNL     1       0.715  -0.739 -12.119  0.00  0.00    +0.002 A 
ATOM     21  C   UNL     1      -0.360  -0.999 -11.293  0.00  0.00    +0.028 A 
ENDBRANCH   7  16
ENDBRANCH   2   5
BRANCH   1  24
ATOM     22  C   UNL     1      -1.464  -1.794  -2.561  0.00  0.00    +0.277 C 
ATOM     23  O   UNL     1      -0.320  -1.475  -2.824  0.00  0.00    -0.267 OA
ATOM     24  N   UNL     1      -2.362  -1.962  -3.552  0.00  0.00    -0.229 N 
ATOM     25  H   UNL     1      -3.274  -2.216  -3.342  0.00  0.00    +0.173 HD
BRANCH  22  31
ATOM     26  C   UNL     1      -1.061  -1.859  -0.073  0.00  0.00    -0.007 A 
ATOM     27  C   UNL     1      -1.854  -2.139   1.066  0.00  0.00    +0.041 A 
ATOM     28  C   UNL     1      -3.126  -2.444   0.608  0.00  0.00    +0.024 A 
ATOM     29  N   UNL     1      -3.125  -2.360  -0.731  0.00  0.00    -0.354 N 
ATOM     30  H   UNL     1      -3.889  -2.524  -1.304  0.00  0.00    +0.166 HD
ATOM     31  C   UNL     1      -1.867  -1.996  -1.163  0.00  0.00    +0.107 A 
ATOM     32  C   UNL     1      -4.309  -2.809   1.467  0.00  0.00    +0.064 C 
BRANCH  27  33
ATOM     33  C   UNL     1      -1.413  -2.112   2.464  0.00  0.00    +0.162 C 
ATOM     34  O   UNL     1      -1.555  -1.105   3.125  0.00  0.00    -0.292 OA
ATOM     35  C   UNL     1      -0.783  -3.335   3.079  0.00  0.00    +0.091 C 
ENDBRANCH  27  33
BRANCH  26  37
ATOM     36  C   UNL     1       0.525   0.045   0.014  0.00  0.00    +0.009 C 
ATOM     37  C   UNL     1       0.397  -1.477  -0.079  0.00  0.00    +0.035 C 
ENDBRANCH  26  37
ENDBRANCH  22  31
ENDBRANCH   1  24
TORSDOF 7
