REMARK  Name = ZINC40004536
REMARK  8 active torsions:
REMARK  status: ('A' for Active; 'I' for Inactive)
REMARK    1  A    between atoms: C_1  and  C_2
REMARK    2  A    between atoms: C_5  and  O_8
REMARK    3  A    between atoms: O_8  and  C_9
REMARK    4  A    between atoms: C_10  and  C_20
REMARK    5  A    between atoms: C_21  and  C_22
REMARK    6  A    between atoms: C_21  and  C_24
REMARK    7  A    between atoms: N_26  and  C_27
REMARK    8  A    between atoms: C_28  and  C_36
REMARK                            x       y       z     vdW  Elec       q    Type
REMARK                         _______ _______ _______ _____ _____    ______ ____
ROOT
ATOM      1  C   UNL     1       0.438  -4.758   1.147  0.00  0.00    +0.235 A 
ATOM      2  C   UNL     1       0.320  -6.168   1.197  0.00  0.00    +0.103 A 
ATOM      3  C   UNL     1       0.198  -6.788   2.469  0.00  0.00    +0.269 A 
ATOM      4  O   UNL     1       0.095  -7.998   2.561  0.00  0.00    -0.266 OA
ATOM      5  N   UNL     1       0.199  -6.011   3.574  0.00  0.00    -0.268 N 
ATOM      6  C   UNL     1       0.083  -6.596   4.799  0.00  0.00    +0.096 A 
ATOM      7  C   UNL     1       0.080  -5.848   5.926  0.00  0.00    +0.018 A 
ATOM      8  C   UNL     1       0.198  -4.455   5.844  0.00  0.00    +0.005 A 
ATOM      9  C   UNL     1       0.315  -3.861   4.622  0.00  0.00    +0.047 A 
ATOM     10  C   UNL     1       0.316  -4.654   3.462  0.00  0.00    +0.144 A 
ATOM     11  N   UNL     1       0.436  -4.063   2.271  0.00  0.00    -0.194 NA
ENDROOT
BRANCH   2  12
ATOM     12  C   UNL     1       0.324  -6.935   0.018  0.00  0.00    +0.042 C 
ATOM     13  C   UNL     1      -0.605  -6.677  -0.981  0.00  0.00    +0.114 C 
BRANCH  13  14
ATOM     14  C   UNL     1      -0.524  -7.389  -2.260  0.00  0.00    +0.259 C 
ATOM     15  O   UNL     1       0.358  -8.207  -2.445  0.00  0.00    -0.269 OA
ATOM     16  N   UNL     1      -1.426  -7.138  -3.229  0.00  0.00    -0.274 N 
ATOM     17  H   UNL     1      -2.128  -6.486  -3.081  0.00  0.00    +0.156 HD
BRANCH  16  18
ATOM     18  C   UNL     1      -1.349  -7.812  -4.439  0.00  0.00    +0.090 A 
ATOM     19  C   UNL     1      -2.178  -7.681  -5.541  0.00  0.00    +0.084 A 
ATOM     20  C   UNL     1      -1.882  -8.509  -6.697  0.00  0.00    -0.018 A 
ATOM     21  C   UNL     1      -0.811  -9.317  -6.538  0.00  0.00    -0.004 A 
ATOM     22  S   UNL     1      -0.226  -8.970  -4.906  0.00  0.00    -0.077 S 
ATOM     23  C   UNL     1      -0.258 -10.284  -7.539  0.00  0.00    +0.043 C 
ATOM     24  C   UNL     1      -1.311 -10.497  -8.637  0.00  0.00    +0.005 C 
ATOM     25  C   UNL     1      -1.830  -9.131  -9.097  0.00  0.00    +0.005 C 
ATOM     26  C   UNL     1      -2.680  -8.499  -7.992  0.00  0.00    +0.037 C 
BRANCH  19  27
ATOM     27  C   UNL     1      -3.280  -6.767  -5.541  0.00  0.00    +0.102 C 
ATOM     28  N   UNL     1      -4.154  -6.042  -5.540  0.00  0.00    -0.191 NA
ENDBRANCH  19  27
ENDBRANCH  16  18
ENDBRANCH  13  14
BRANCH  13  29
ATOM     29  C   UNL     1      -1.643  -5.714  -0.762  0.00  0.00    +0.104 C 
ATOM     30  N   UNL     1      -2.466  -4.951  -0.589  0.00  0.00    -0.191 NA
ENDBRANCH  13  29
ENDBRANCH   2  12
BRANCH   1  31
ATOM     31  O   UNL     1       0.557  -4.126  -0.043  0.00  0.00    -0.437 OA
BRANCH  31  36
ATOM     32  C   UNL     1       1.510   1.425  -0.009  0.00  0.00    +0.044 C 
ATOM     33  C   UNL     1       1.255  -0.061  -0.018  0.00  0.00    -0.050 A 
ATOM     34  C   UNL     1       2.251  -0.934   0.379  0.00  0.00    +0.007 A 
ATOM     35  C   UNL     1       2.019  -2.296   0.372  0.00  0.00    +0.046 A 
ATOM     36  C   UNL     1       0.787  -2.787  -0.034  0.00  0.00    +0.130 A 
ATOM     37  C   UNL     1      -0.211  -1.908  -0.431  0.00  0.00    +0.046 A 
ATOM     38  C   UNL     1       0.024  -0.547  -0.417  0.00  0.00    +0.007 A 
ENDBRANCH  31  36
ENDBRANCH   1  31
TORSDOF 7
