REMARK  Name = ZINC01088382
REMARK  15 active torsions:
REMARK  status: ('A' for Active; 'I' for Inactive)
REMARK    1  A    between atoms: C_1  and  C_2
REMARK    2  A    between atoms: C_2  and  N_3
REMARK    3  A    between atoms: C_5  and  O_38
REMARK    4  A    between atoms: C_8  and  O_36
REMARK    5  A    between atoms: C_18  and  O_35
REMARK    6  A    between atoms: C_20  and  O_33
REMARK    7  A    between atoms: C_27  and  O_32
REMARK    8  A    between atoms: C_28  and  O_30
REMARK    9  A    between atoms: O_30  and  C_31
REMARK   10  A    between atoms: O_33  and  C_34
REMARK   11  A    between atoms: O_36  and  C_37
REMARK   12  A    between atoms: O_38  and  C_39
REMARK   13  A    between atoms: C_39  and  C_41
REMARK   14  A    between atoms: C_46  and  N_47
REMARK   15  A    between atoms: C_48  and  C_50
REMARK                            x       y       z     vdW  Elec       q    Type
REMARK                         _______ _______ _______ _____ _____    ______ ____
ROOT
ATOM      1  N   UNL     1       0.717  -0.501   1.206  0.00  0.00    +0.385 N 
ATOM      2  C   UNL     1       0.068   0.036   2.387  0.00  0.00    -0.029 C 
ATOM      3  C   UNL     1       0.410  -0.657   3.700  0.00  0.00    +0.103 C 
ATOM      4  C   UNL     1       1.750  -0.191   4.250  0.00  0.00    +0.049 C 
ATOM      5  C   UNL     1       2.818  -0.364   3.174  0.00  0.00    +0.036 C 
ATOM      6  C   UNL     1       2.846  -1.783   2.651  0.00  0.00    +0.123 C 
ATOM      7  C   UNL     1       1.526  -2.464   2.412  0.00  0.00    -0.003 C 
ATOM      8  C   UNL     1       0.437  -2.183   3.463  0.00  0.00    +0.039 C 
ATOM      9  C   UNL     1      -0.919  -2.426   2.737  0.00  0.00    +0.012 C 
ATOM     10  C   UNL     1      -0.556  -2.637   1.252  0.00  0.00    +0.011 C 
ATOM     11  C   UNL     1       0.828  -1.956   1.126  0.00  0.00    -0.053 C 
ATOM     12  C   UNL     1      -0.388  -4.156   1.003  0.00  0.00    +0.101 C 
ATOM     13  C   UNL     1       0.204  -4.285  -0.392  0.00  0.00    +0.070 C 
ATOM     14  C   UNL     1       1.153  -5.436  -0.660  0.00  0.00    +0.126 C 
ATOM     15  C   UNL     1       2.017  -5.718   0.586  0.00  0.00    +0.050 C 
ATOM     16  C   UNL     1       2.584  -4.357   1.067  0.00  0.00    +0.015 C 
ATOM     17  C   UNL     1       1.756  -3.965   2.299  0.00  0.00    +0.034 C 
ATOM     18  C   UNL     1       0.448  -4.754   2.127  0.00  0.00    +0.124 C 
ATOM     19  C   UNL     1       0.985  -6.142   1.664  0.00  0.00    +0.158 C 
ATOM     20  H   UNL     1       1.658  -0.119   1.141  0.00  0.00    -0.081 HD
ENDROOT
BRANCH   1  22
ATOM     21  C   UNL     1      -0.007   1.520   0.016  0.00  0.00    -0.017 C 
ATOM     22  C   UNL     1       0.009  -0.010   0.008  0.00  0.00    -0.082 C 
ENDBRANCH   1  22
BRANCH  19  23
ATOM     23  O   UNL     1       1.621  -6.823   2.748  0.00  0.00    -0.376 OA
ATOM     24  C   UNL     1       1.677  -8.242   2.590  0.00  0.00    +0.194 C 
ENDBRANCH  19  23
BRANCH  18  25
ATOM     25  O   UNL     1      -0.266  -4.912   3.360  0.00  0.00    -0.383 OA
ATOM     26  H   UNL     1      -1.045  -5.481   3.293  0.00  0.00    +0.210 HD
ENDBRANCH  18  25
BRANCH  14  27
ATOM     27  O   UNL     1       0.420  -6.609  -1.034  0.00  0.00    -0.379 OA
ATOM     28  C   UNL     1       0.197  -6.731  -2.440  0.00  0.00    +0.194 C 
ENDBRANCH  14  27
BRANCH  12  29
ATOM     29  O   UNL     1      -1.696  -4.776   1.014  0.00  0.00    -0.385 OA
ATOM     30  H   UNL     1      -2.298  -4.434   0.339  0.00  0.00    +0.210 HD
ENDBRANCH  12  29
BRANCH   6  31
ATOM     31  O   UNL     1       3.598  -1.794   1.428  0.00  0.00    -0.379 OA
ATOM     32  C   UNL     1       4.997  -2.024   1.608  0.00  0.00    +0.194 C 
ENDBRANCH   6  31
BRANCH   3  33
ATOM     33  O   UNL     1      -0.606  -0.360   4.669  0.00  0.00    -0.456 OA
BRANCH  33  34
ATOM     34  C   UNL     1      -0.795   0.938   4.978  0.00  0.00    +0.341 C 
ATOM     35  O   UNL     1      -0.120   1.795   4.444  0.00  0.00    -0.245 OA
BRANCH  34  36
ATOM     36  C   UNL     1      -1.822   1.318   5.965  0.00  0.00    +0.080 A 
ATOM     37  C   UNL     1      -2.667   0.347   6.510  0.00  0.00    +0.017 A 
ATOM     38  C   UNL     1      -3.624   0.709   7.432  0.00  0.00    +0.001 A 
ATOM     39  C   UNL     1      -3.754   2.032   7.824  0.00  0.00    +0.002 A 
ATOM     40  C   UNL     1      -2.928   3.002   7.294  0.00  0.00    +0.024 A 
ATOM     41  C   UNL     1      -1.953   2.655   6.368  0.00  0.00    +0.047 A 
BRANCH  41  42
ATOM     42  N   UNL     1      -1.114   3.632   5.837  0.00  0.00    -0.285 N 
ATOM     43  C   UNL     1      -0.714   4.666   6.603  0.00  0.00    +0.214 C 
ATOM     44  O   UNL     1      -1.006   4.697   7.780  0.00  0.00    -0.276 OA
ATOM     45  C   UNL     1       0.096   5.783   5.998  0.00  0.00    +0.109 C 
ATOM     46  H   UNL     1      -0.817   3.567   4.916  0.00  0.00    +0.155 HD
ENDBRANCH  41  42
ENDBRANCH  34  36
ENDBRANCH  33  34
ENDBRANCH   3  33
TORSDOF 10
