REMARK  Name = ZINC32827822
REMARK  13 active torsions:
REMARK  status: ('A' for Active; 'I' for Inactive)
REMARK    1  A    between atoms: C_1  and  C_2
REMARK    2  A    between atoms: C_7  and  C_8
REMARK    3  A    between atoms: C_8  and  C_9
REMARK    4  A    between atoms: C_8  and  C_10
REMARK    5  A    between atoms: C_11  and  C_16
REMARK    6  A    between atoms: C_16  and  O_17
REMARK    7  A    between atoms: O_17  and  C_18
REMARK    8  A    between atoms: C_18  and  C_20
REMARK    9  A    between atoms: C_20  and  N_21
REMARK   10  A    between atoms: C_27  and  C_30
REMARK   11  A    between atoms: C_30  and  C_31
REMARK   12  A    between atoms: C_30  and  C_32
REMARK   13  A    between atoms: C_30  and  C_33
REMARK                            x       y       z     vdW  Elec       q    Type
REMARK                         _______ _______ _______ _____ _____    ______ ____
ROOT
ATOM      1  C   UNL     1       3.151   7.561  -2.429  0.00  0.00    +0.326 C 
ATOM      2  O   UNL     1       3.963   6.815  -1.936  0.00  0.00    -0.249 OA
ENDROOT
BRANCH   1   3
ATOM      3  O   UNL     1       3.422   8.871  -2.538  0.00  0.00    -0.459 OA
BRANCH   3   4
ATOM      4  C   UNL     1       4.710   9.321  -2.042  0.00  0.00    +0.268 C 
BRANCH   4  12
ATOM      5  C   UNL     1       9.546  13.668  -0.650  0.00  0.00    +0.044 C 
ATOM      6  C   UNL     1       8.307  12.919  -1.070  0.00  0.00    -0.044 A 
ATOM      7  C   UNL     1       7.262  13.602  -1.656  0.00  0.00    +0.050 A 
ATOM      8  C   UNL     1       6.119  12.915  -2.044  0.00  0.00    +0.140 A 
ATOM      9  C   UNL     1       6.045  11.527  -1.834  0.00  0.00    +0.024 A 
ATOM     10  C   UNL     1       7.116  10.853  -1.239  0.00  0.00    +0.016 A 
ATOM     11  C   UNL     1       8.231  11.550  -0.864  0.00  0.00    -0.041 A 
ATOM     12  C   UNL     1       4.835  10.809  -2.247  0.00  0.00    +0.007 A 
ATOM     13  C   UNL     1       3.834  11.520  -2.825  0.00  0.00    +0.099 A 
ATOM     14  C   UNL     1       3.974  12.913  -3.001  0.00  0.00    +0.338 A 
ATOM     15  O   UNL     1       3.066  13.541  -3.515  0.00  0.00    -0.245 OA
ATOM     16  O   UNL     1       5.085  13.564  -2.619  0.00  0.00    -0.422 OA
BRANCH  11  17
ATOM     17  C   UNL     1       9.385  10.824  -0.222  0.00  0.00    +0.013 C 
ATOM     18  C   UNL     1       8.950  10.277   1.139  0.00  0.00    +0.012 C 
ATOM     19  C   UNL     1       9.823   9.666  -1.121  0.00  0.00    +0.012 C 
ENDBRANCH  11  17
ENDBRANCH   4  12
ENDBRANCH   3   4
ENDBRANCH   1   3
BRANCH   1  20
ATOM     20  C   UNL     1       1.833   7.021  -2.922  0.00  0.00    +0.238 C 
BRANCH  20  21
ATOM     21  N   UNL     1       1.781   5.575  -2.692  0.00  0.00    -0.213 N 
ATOM     22  C   UNL     1       1.305   5.003  -1.566  0.00  0.00    +0.247 C 
ATOM     23  O   UNL     1       0.856   5.565  -0.591  0.00  0.00    -0.273 OA
ATOM     24  C   UNL     1       1.450   3.513  -1.778  0.00  0.00    +0.113 C 
ATOM     25  C   UNL     1       2.380   2.915  -0.729  0.00  0.00    +0.035 C 
ATOM     26  C   UNL     1       2.535   1.413  -0.977  0.00  0.00    +0.006 C 
ATOM     27  C   UNL     1       1.162   0.741  -0.908  0.00  0.00    -0.005 C 
ATOM     28  C   UNL     1       0.249   1.334  -1.983  0.00  0.00    +0.006 C 
ATOM     29  C   UNL     1       0.084   2.836  -1.739  0.00  0.00    +0.035 C 
ATOM     30  N   UNL     1       2.042   3.399  -3.117  0.00  0.00    -0.285 N 
ATOM     31  C   UNL     1       2.200   4.657  -3.572  0.00  0.00    +0.310 C 
ATOM     32  O   UNL     1       2.670   4.928  -4.660  0.00  0.00    -0.252 OA
ATOM     33  H   UNL     1       2.262   2.407  -3.538  0.00  0.00    +0.151 HD
BRANCH  27  34
ATOM     34  C   UNL     1       1.317  -0.763  -1.144  0.00  0.00    -0.035 C 
ATOM     35  C   UNL     1       2.230  -1.356  -0.068  0.00  0.00    +0.011 C 
ATOM     36  C   UNL     1      -0.056  -1.434  -1.075  0.00  0.00    +0.011 C 
ATOM     37  C   UNL     1       1.933  -1.002  -2.524  0.00  0.00    +0.011 C 
ENDBRANCH  27  34
ENDBRANCH  20  21
ENDBRANCH   1  20
TORSDOF 7
