REMARK  Name = ZINC09254682
REMARK  11 active torsions:
REMARK  status: ('A' for Active; 'I' for Inactive)
REMARK    1  A    between atoms: C_1  and  N_2
REMARK    2  A    between atoms: N_2  and  C_3
REMARK    3  A    between atoms: N_2  and  S_9
REMARK    4  A    between atoms: S_9  and  C_12
REMARK    5  A    between atoms: C_16  and  C_18
REMARK    6  A    between atoms: N_20  and  C_21
REMARK    7  A    between atoms: C_21  and  C_22
REMARK    8  A    between atoms: C_22  and  C_24
REMARK    9  A    between atoms: C_22  and  N_72
REMARK   10  A    between atoms: C_29  and  O_30
REMARK   11  A    between atoms: O_30  and  C_31
REMARK                            x       y       z     vdW  Elec       q    Type
REMARK                         _______ _______ _______ _____ _____    ______ ____
ROOT
ATOM      1  C   UNL     1      -0.601   1.094   2.435  0.00  0.00    +0.244 C 
ATOM      2  O   UNL     1       0.469   0.549   2.625  0.00  0.00    -0.270 OA
ATOM      3  N   UNL     1      -0.995   1.387   1.179  0.00  0.00    -0.313 N 
ATOM      4  H   UNL     1      -1.849   1.822   1.028  0.00  0.00    +0.149 HD
ENDROOT
BRANCH   1   9
ATOM      5  C   UNL     1      -1.880   1.458   5.947  0.00  0.00    +0.106 A 
ATOM      6  C   UNL     1      -3.097   2.079   5.727  0.00  0.00    +0.028 A 
ATOM      7  C   UNL     1      -3.505   2.380   4.440  0.00  0.00    +0.003 A 
ATOM      8  C   UNL     1      -2.696   2.068   3.367  0.00  0.00    +0.013 A 
ATOM      9  C   UNL     1      -1.470   1.437   3.581  0.00  0.00    +0.039 A 
ATOM     10  C   UNL     1      -1.065   1.136   4.882  0.00  0.00    +0.041 A 
BRANCH   5  11
ATOM     11  S   UNL     1      -1.371   1.079   7.591  0.00  0.00    +0.061 S 
ATOM     12  O   UNL     1      -2.554   0.990   8.372  0.00  0.00    -0.153 OA
ATOM     13  O   UNL     1      -0.441   0.009   7.491  0.00  0.00    -0.153 OA
BRANCH  11  15
ATOM     14  C   UNL     1      -1.231   3.466   8.855  0.00  0.00    +0.132 C 
ATOM     15  N   UNL     1      -0.528   2.387   8.156  0.00  0.00    -0.177 NA
BRANCH  15  16
ATOM     16  C   UNL     1       0.922   2.466   7.957  0.00  0.00    +0.080 C 
ATOM     17  C   UNL     1       1.619   2.542   9.317  0.00  0.00    +0.020 C 
ATOM     18  C   UNL     1       3.133   2.625   9.109  0.00  0.00    +0.002 C 
ATOM     19  C   UNL     1       3.469   3.875   8.293  0.00  0.00    +0.000 C 
ATOM     20  C   UNL     1       2.771   3.799   6.934  0.00  0.00    +0.002 C 
ATOM     21  C   UNL     1       1.257   3.716   7.141  0.00  0.00    +0.020 C 
ENDBRANCH  15  16
ENDBRANCH  11  15
ENDBRANCH   5  11
ENDBRANCH   1   9
BRANCH   3  22
ATOM     22  C   UNL     1      -0.134   1.047   0.044  0.00  0.00    +0.094 C 
BRANCH  22  23
ATOM     23  C   UNL     1      -0.753   1.590  -1.246  0.00  0.00    -0.017 C 
BRANCH  23  24
ATOM     24  C   UNL     1       0.077   1.152  -2.425  0.00  0.00    -0.018 A 
ATOM     25  C   UNL     1      -0.238  -0.012  -3.098  0.00  0.00    +0.005 A 
ATOM     26  C   UNL     1       0.521  -0.412  -4.183  0.00  0.00    +0.000 A 
ATOM     27  C   UNL     1       1.602   0.347  -4.590  0.00  0.00    +0.004 A 
ATOM     28  C   UNL     1       1.925   1.509  -3.917  0.00  0.00    +0.046 A 
ATOM     29  C   UNL     1       1.162   1.915  -2.831  0.00  0.00    +0.122 A 
BRANCH  29  30
ATOM     30  O   UNL     1       1.477   3.058  -2.167  0.00  0.00    -0.495 OA
ATOM     31  C   UNL     1       2.607   3.793  -2.642  0.00  0.00    +0.277 C 
ENDBRANCH  29  30
ENDBRANCH  23  24
BRANCH  23  36
ATOM     32  C   UNL     1      -2.606   1.230  -2.784  0.00  0.00    -0.078 C 
ATOM     33  C   UNL     1      -3.762   0.202  -2.876  0.00  0.00    -0.020 C 
ATOM     34  C   UNL     1      -3.236  -0.986  -2.038  0.00  0.00    -0.020 C 
ATOM     35  C   UNL     1      -2.167  -0.381  -1.109  0.00  0.00    -0.078 C 
ATOM     36  N   UNL     1      -2.139   1.053  -1.400  0.00  0.00    +0.385 N 
ATOM     37  H   UNL     1      -2.766   1.550  -0.756  0.00  0.00    -0.081 HD
ENDBRANCH  23  36
ENDBRANCH  22  23
ENDBRANCH   3  22
TORSDOF 9
