REMARK  Name = ZINC12887441
REMARK  9 active torsions:
REMARK  status: ('A' for Active; 'I' for Inactive)
REMARK    1  A    between atoms: C_1  and  C_2
REMARK    2  A    between atoms: C_2  and  C_3
REMARK    3  A    between atoms: C_2  and  C_4
REMARK    4  A    between atoms: C_4  and  C_5
REMARK    5  A    between atoms: C_5  and  C_7
REMARK    6  A    between atoms: C_5  and  N_17
REMARK    7  A    between atoms: N_9  and  C_10
REMARK    8  A    between atoms: C_10  and  C_11
REMARK    9  A    between atoms: C_18  and  C_20
REMARK                            x       y       z     vdW  Elec       q    Type
REMARK                         _______ _______ _______ _____ _____    ______ ____
ROOT
ATOM      1  C   UNL     1       1.011  -2.904  -2.959  0.00  0.00    +0.167 C 
ATOM      2  C   UNL     1       0.500  -4.295  -3.358  0.00  0.00    +0.069 C 
ATOM      3  C   UNL     1       1.301  -5.365  -2.662  0.00  0.00    -0.015 A 
ATOM      4  C   UNL     1       0.952  -6.766  -2.510  0.00  0.00    +0.003 A 
ATOM      5  C   UNL     1      -0.159  -7.511  -2.919  0.00  0.00    +0.010 A 
ATOM      6  C   UNL     1      -0.159  -8.847  -2.601  0.00  0.00    +0.001 A 
ATOM      7  C   UNL     1       0.884  -9.440  -1.909  0.00  0.00    +0.002 A 
ATOM      8  C   UNL     1       1.994  -8.726  -1.492  0.00  0.00    +0.026 A 
ATOM      9  C   UNL     1       2.022  -7.367  -1.800  0.00  0.00    +0.047 A 
ATOM     10  N   UNL     1       2.938  -6.388  -1.544  0.00  0.00    -0.356 N 
ATOM     11  H   UNL     1       3.776  -6.518  -1.073  0.00  0.00    +0.166 HD
ATOM     12  C   UNL     1       2.497  -5.197  -2.053  0.00  0.00    +0.046 A 
ATOM     13  C   UNL     1       3.190  -3.860  -1.957  0.00  0.00    +0.155 C 
ATOM     14  N   UNL     1       2.474  -2.962  -2.895  0.00  0.00    -0.273 N 
ATOM     15  C   UNL     1       3.381  -2.306  -3.631  0.00  0.00    +0.248 C 
ATOM     16  O   UNL     1       3.151  -1.337  -4.328  0.00  0.00    -0.270 OA
ATOM     17  C   UNL     1       4.696  -2.936  -3.466  0.00  0.00    +0.042 A 
ATOM     18  C   UNL     1       4.605  -3.915  -2.423  0.00  0.00    -0.009 A 
ATOM     19  C   UNL     1       5.677  -4.685  -2.032  0.00  0.00    +0.006 A 
ATOM     20  C   UNL     1       6.887  -4.462  -2.683  0.00  0.00    +0.000 A 
ATOM     21  C   UNL     1       7.016  -3.511  -3.675  0.00  0.00    +0.001 A 
ATOM     22  C   UNL     1       5.907  -2.705  -4.120  0.00  0.00    +0.013 A 
ENDROOT
BRANCH   1  24
ATOM     23  N   UNL     1      -0.876  -2.426  -1.433  0.00  0.00    -0.302 N 
ATOM     24  C   UNL     1       0.456  -2.525  -1.610  0.00  0.00    +0.235 C 
ATOM     25  O   UNL     1       1.209  -2.308  -0.684  0.00  0.00    -0.274 OA
ATOM     26  H   UNL     1      -1.478  -2.600  -2.173  0.00  0.00    +0.150 HD
BRANCH  23  27
ATOM     27  C   UNL     1      -1.416  -2.058  -0.121  0.00  0.00    +0.159 C 
BRANCH  27  28
ATOM     28  C   UNL     1      -2.819  -2.590   0.013  0.00  0.00    +0.233 C 
ATOM     29  O   UNL     1      -3.320  -3.216  -0.898  0.00  0.00    -0.274 OA
ATOM     30  N   UNL     1      -3.518  -2.371   1.144  0.00  0.00    -0.311 N 
ATOM     31  H   UNL     1      -3.118  -1.870   1.872  0.00  0.00    +0.149 HD
BRANCH  30  32
ATOM     32  C   UNL     1      -4.882  -2.888   1.274  0.00  0.00    +0.135 C 
BRANCH  32  33
ATOM     33  C   UNL     1      -5.446  -2.503   2.643  0.00  0.00    +0.135 C 
ATOM     34  C   UNL     1      -6.836  -3.146   2.838  0.00  0.00    +0.035 C 
ATOM     35  C   UNL     1      -7.622  -2.018   3.559  0.00  0.00    +0.031 C 
ATOM     36  C   UNL     1      -6.998  -0.759   2.905  0.00  0.00    +0.160 C 
ATOM     37  O   UNL     1      -5.609  -1.082   2.720  0.00  0.00    -0.375 OA
ENDBRANCH  32  33
ENDBRANCH  30  32
ENDBRANCH  27  28
BRANCH  27  38
ATOM     38  C   UNL     1      -1.433  -0.534   0.013  0.00  0.00    +0.034 C 
BRANCH  38  40
ATOM     39  C   UNL     1      -0.019   1.526   0.010  0.00  0.00    +0.007 C 
ATOM     40  C   UNL     1       0.002  -0.004   0.002  0.00  0.00    -0.015 C 
ATOM     41  C   UNL     1       0.742  -0.511   1.242  0.00  0.00    +0.007 C 
ENDBRANCH  38  40
ENDBRANCH  27  38
ENDBRANCH  23  27
ENDBRANCH   1  24
TORSDOF 7
