REMARK  Name = ZINC35893867
REMARK  9 active torsions:
REMARK  status: ('A' for Active; 'I' for Inactive)
REMARK    1  A    between atoms: C_1  and  C_2
REMARK    2  A    between atoms: C_2  and  C_3
REMARK    3  A    between atoms: C_6  and  C_9
REMARK    4  A    between atoms: C_13  and  C_22
REMARK    5  A    between atoms: N_19  and  C_20
REMARK    6  A    between atoms: C_20  and  C_21
REMARK    7  A    between atoms: N_24  and  C_25
REMARK    8  A    between atoms: C_25  and  C_26
REMARK    9  A    between atoms: C_30  and  C_32
REMARK                            x       y       z     vdW  Elec       q    Type
REMARK                         _______ _______ _______ _____ _____    ______ ____
ROOT
ATOM      1  C   UNL     1      -5.419  -2.006   0.042  0.00  0.00    +0.108 C 
ATOM      2  C   UNL     1      -5.416  -3.489  -0.343  0.00  0.00    +0.028 C 
ATOM      3  C   UNL     1      -6.859  -3.981  -0.471  0.00  0.00    +0.016 C 
ATOM      4  C   UNL     1      -7.572  -3.197  -1.575  0.00  0.00    +0.092 C 
ATOM      5  C   UNL     1      -7.599  -1.711  -1.205  0.00  0.00    +0.122 C 
ATOM      6  N   UNL     1      -6.226  -1.262  -0.936  0.00  0.00    -0.278 N 
ATOM      7  C   UNL     1      -5.715  -0.192  -1.576  0.00  0.00    +0.303 C 
ATOM      8  O   UNL     1      -4.548   0.111  -1.417  0.00  0.00    -0.253 OA
ATOM      9  N   UNL     1      -6.497   0.542  -2.392  0.00  0.00    -0.299 N 
ATOM     10  H   UNL     1      -7.444   0.346  -2.461  0.00  0.00    +0.150 HD
ENDROOT
BRANCH   1  14
ATOM     11  C   UNL     1      -1.416  -0.516   0.026  0.00  0.00    -0.048 A 
ATOM     12  C   UNL     1      -2.222  -0.319   1.131  0.00  0.00    +0.004 A 
ATOM     13  C   UNL     1      -3.518  -0.801   1.137  0.00  0.00    +0.006 A 
ATOM     14  C   UNL     1      -4.007  -1.480   0.036  0.00  0.00    -0.027 A 
ATOM     15  C   UNL     1      -3.201  -1.675  -1.070  0.00  0.00    +0.006 A 
ATOM     16  C   UNL     1      -1.907  -1.190  -1.077  0.00  0.00    +0.004 A 
BRANCH  11  18
ATOM     17  C   UNL     1       0.009   1.435  -0.536  0.00  0.00    +0.009 C 
ATOM     18  C   UNL     1      -0.003   0.009   0.021  0.00  0.00    +0.032 C 
ENDBRANCH  11  18
ENDBRANCH   1  14
BRANCH   4  19
ATOM     19  C   UNL     1      -6.834  -3.378  -2.877  0.00  0.00    +0.218 C 
ATOM     20  O   UNL     1      -5.836  -4.067  -2.917  0.00  0.00    -0.275 OA
ATOM     21  N   UNL     1      -7.282  -2.775  -3.995  0.00  0.00    -0.311 N 
ATOM     22  H   UNL     1      -8.081  -2.225  -3.963  0.00  0.00    +0.149 HD
BRANCH  21  23
ATOM     23  C   UNL     1      -6.565  -2.951  -5.260  0.00  0.00    +0.139 C 
BRANCH  23  24
ATOM     24  C   UNL     1      -7.267  -2.179  -6.348  0.00  0.00    -0.030 A 
ATOM     25  C   UNL     1      -8.265  -2.783  -7.090  0.00  0.00    +0.005 A 
ATOM     26  C   UNL     1      -8.909  -2.074  -8.087  0.00  0.00    +0.001 A 
ATOM     27  C   UNL     1      -8.555  -0.762  -8.342  0.00  0.00    +0.003 A 
ATOM     28  C   UNL     1      -7.558  -0.159  -7.599  0.00  0.00    -0.050 A 
ATOM     29  C   UNL     1      -6.917  -0.866  -6.599  0.00  0.00    +0.008 A 
ATOM     30  C   UNL     1      -7.173   1.271  -7.877  0.00  0.00    +0.044 C 
ENDBRANCH  23  24
ENDBRANCH  21  23
ENDBRANCH   4  19
BRANCH   9  31
ATOM     31  C   UNL     1      -5.916   1.635  -3.175  0.00  0.00    +0.102 C 
ATOM     32  C   UNL     1      -7.011   2.301  -4.011  0.00  0.00    +0.024 C 
ENDBRANCH   9  31
TORSDOF 6
