REMARK  Name = ZINC37516488
REMARK  4 active torsions:
REMARK  status: ('A' for Active; 'I' for Inactive)
REMARK    1  A    between atoms: C_3  and  C_11
REMARK    2  A    between atoms: C_6  and  N_7
REMARK    3  A    between atoms: C_11  and  S_12
REMARK    4  A    between atoms: S_12  and  C_13
REMARK                            x       y       z     vdW  Elec       q    Type
REMARK                         _______ _______ _______ _____ _____    ______ ____
ROOT
ATOM      1  C   UNL     1       3.672   2.184  -0.022  0.00  0.00    +0.113 C 
ENDROOT
BRANCH   1   4
ATOM      2  C   UNL     1      -0.017   1.378   0.010  0.00  0.00    +0.033 A 
ATOM      3  C   UNL     1       1.171   2.086   0.002  0.00  0.00    +0.008 A 
ATOM      4  C   UNL     1       2.377   1.412  -0.013  0.00  0.00    -0.023 A 
ATOM      5  C   UNL     1       2.397   0.029  -0.021  0.00  0.00    +0.024 A 
ATOM      6  C   UNL     1       1.208  -0.679  -0.013  0.00  0.00    +0.048 A 
ATOM      7  C   UNL     1       0.002  -0.004   0.002  0.00  0.00    +0.127 A 
ATOM      8 BR   UNL     1       4.047  -0.894  -0.042  0.00  0.00    -0.050 Br
BRANCH   7   9
ATOM      9  N   UNL     1      -1.270  -0.761   0.010  0.00  0.00    +0.056 N 
ATOM     10  O   UNL     1      -2.325  -0.171   0.023  0.00  0.00    -0.126 OA
ATOM     11  O   UNL     1      -1.253  -1.970   0.004  0.00  0.00    -0.126 OA
ENDBRANCH   7   9
ENDBRANCH   1   4
BRANCH   1  12
ATOM     12  S   UNL     1       4.208   2.485   1.685  0.00  0.00    -0.080 S 
BRANCH  12  13
ATOM     13  C   UNL     1       5.713   3.384   1.507  0.00  0.00    +0.210 A 
ATOM     14  N   UNL     1       6.479   3.824   2.511  0.00  0.00    -0.188 NA
ATOM     15  C   UNL     1       7.527   4.455   2.025  0.00  0.00    +0.209 A 
ATOM     16  N   UNL     1       7.442   4.427   0.679  0.00  0.00    -0.246 N 
ATOM     17  H   UNL     1       8.072   4.811   0.049  0.00  0.00    +0.192 HD
ATOM     18  N   UNL     1       6.266   3.726   0.368  0.00  0.00    -0.144 NA
ATOM     19  N   UNL     1       8.536   5.044   2.764  0.00  0.00    -0.328 N 
ATOM     20  H   UNL     1       8.509   5.013   3.733  0.00  0.00    +0.145 HD
ATOM     21  H   UNL     1       9.271   5.489   2.313  0.00  0.00    +0.145 HD
ENDBRANCH  12  13
ENDBRANCH   1  12
TORSDOF 4
