REMARK  Name = ZINC20301567
REMARK  6 active torsions:
REMARK  status: ('A' for Active; 'I' for Inactive)
REMARK    1  A    between atoms: C_1  and  C_2
REMARK    2  A    between atoms: C_7  and  N_8
REMARK    3  A    between atoms: N_8  and  C_9
REMARK    4  A    between atoms: C_9  and  C_11
REMARK    5  A    between atoms: C_9  and  C_12
REMARK    6  A    between atoms: N_17  and  C_18
REMARK                            x       y       z     vdW  Elec       q    Type
REMARK                         _______ _______ _______ _____ _____    ______ ____
ROOT
ATOM      1  C   UNL     1      -2.482   0.853   0.018  0.00  0.00    +0.154 C 
ATOM      2  C   UNL     1      -2.545  -0.035   1.263  0.00  0.00    +0.038 C 
ENDROOT
BRANCH   1   3
ATOM      3  C   UNL     1      -1.187   1.624   0.017  0.00  0.00    +0.240 C 
ATOM      4  O   UNL     1      -1.204   2.836   0.023  0.00  0.00    -0.273 OA
ATOM      5  N   UNL     1      -0.011   0.966   0.007  0.00  0.00    -0.239 N 
ATOM      6  C   UNL     1       1.147   1.655   0.000  0.00  0.00    +0.306 C 
ATOM      7  O   UNL     1       1.130   2.871   0.007  0.00  0.00    -0.252 OA
ATOM      8  N   UNL     1       2.323   0.998  -0.015  0.00  0.00    -0.302 N 
ATOM      9  C   UNL     1       3.582   1.747  -0.023  0.00  0.00    +0.129 C 
ATOM     10  H   UNL     1       0.004  -0.134   0.006  0.00  0.00    +0.159 HD
ATOM     11  H   UNL     1       2.338  -0.102  -0.021  0.00  0.00    +0.150 HD
ENDBRANCH   1   3
BRANCH   1  12
ATOM     12  N   UNL     1      -3.608   1.789   0.029  0.00  0.00    -0.333 N 
ATOM     13  H   UNL     1      -3.477   2.803   0.436  0.00  0.00    +0.147 HD
BRANCH  12  20
ATOM     14  C   UNL     1      -5.741   3.671   0.089  0.00  0.00    +0.046 C 
ATOM     15  C   UNL     1      -5.918   2.283  -0.469  0.00  0.00    -0.029 A 
ATOM     16  C   UNL     1      -7.143   1.891  -0.972  0.00  0.00    +0.020 A 
ATOM     17  C   UNL     1      -7.307   0.616  -1.484  0.00  0.00    +0.018 A 
ATOM     18  C   UNL     1      -6.244  -0.270  -1.496  0.00  0.00    +0.017 A 
ATOM     19  C   UNL     1      -5.015   0.118  -0.999  0.00  0.00    +0.024 A 
ATOM     20  C   UNL     1      -4.849   1.396  -0.479  0.00  0.00    +0.031 A 
ATOM     21 BR   UNL     1      -8.986   0.084  -2.172  0.00  0.00    -0.050 Br
ENDBRANCH  12  20
ENDBRANCH   1  12
TORSDOF 3
