REMARK  Name = ZINC14737167
REMARK  12 active torsions:
REMARK  status: ('A' for Active; 'I' for Inactive)
REMARK    1  A    between atoms: C_1  and  C_2
REMARK    2  A    between atoms: C_9  and  N_15
REMARK    3  A    between atoms: C_10  and  C_11
REMARK    4  A    between atoms: C_11  and  O_13
REMARK    5  A    between atoms: O_13  and  C_14
REMARK    6  A    between atoms: C_16  and  C_18
REMARK    7  A    between atoms: C_18  and  N_19
REMARK    8  A    between atoms: C_22  and  C_26
REMARK    9  A    between atoms: C_22  and  C_27
REMARK   10  A    between atoms: C_30  and  C_33
REMARK   11  A    between atoms: C_33  and  C_34
REMARK   12  A    between atoms: C_33  and  C_35
REMARK                            x       y       z     vdW  Elec       q    Type
REMARK                         _______ _______ _______ _____ _____    ______ ____
ROOT
ATOM      1  C   UNL     1       2.462   0.920  -0.017  0.00  0.00    +0.214 C 
ENDROOT
BRANCH   1   2
ATOM      2  N   UNL     1       3.562   1.887  -0.022  0.00  0.00    -0.215 N 
ATOM      3  C   UNL     1       4.142   2.381   1.090  0.00  0.00    +0.251 C 
ATOM      4  O   UNL     1       3.861   2.118   2.240  0.00  0.00    -0.272 OA
ATOM      5  C   UNL     1       5.218   3.332   0.604  0.00  0.00    +0.135 C 
ATOM      6  N   UNL     1       5.109   3.256  -0.863  0.00  0.00    -0.281 N 
ATOM      7  C   UNL     1       4.120   2.385  -1.131  0.00  0.00    +0.310 C 
ATOM      8  O   UNL     1       3.770   2.086  -2.256  0.00  0.00    -0.252 OA
ATOM      9  C   UNL     1       4.939   4.755   1.092  0.00  0.00    +0.047 C 
ATOM     10  H   UNL     1       5.649   3.737  -1.509  0.00  0.00    +0.152 HD
BRANCH   5  11
ATOM     11  C   UNL     1       6.578   2.872   1.063  0.00  0.00    -0.015 A 
ATOM     12  C   UNL     1       6.708   2.177   2.251  0.00  0.00    +0.006 A 
ATOM     13  C   UNL     1       7.955   1.751   2.669  0.00  0.00    +0.004 A 
ATOM     14  C   UNL     1       9.073   2.031   1.905  0.00  0.00    -0.045 A 
ATOM     15  C   UNL     1       8.943   2.731   0.721  0.00  0.00    +0.004 A 
ATOM     16  C   UNL     1       7.696   3.152   0.300  0.00  0.00    +0.006 A 
BRANCH  14  17
ATOM     17  C   UNL     1      10.433   1.573   2.365  0.00  0.00    +0.013 C 
ATOM     18  C   UNL     1      10.749   2.197   3.726  0.00  0.00    +0.012 C 
ATOM     19  C   UNL     1      10.443   0.048   2.489  0.00  0.00    +0.012 C 
ENDBRANCH  14  17
ENDBRANCH   5  11
ENDBRANCH   1   2
BRANCH   1  21
ATOM     20  N   UNL     1      -0.011   0.966   0.007  0.00  0.00    -0.278 N 
ATOM     21  C   UNL     1       1.147   1.655   0.000  0.00  0.00    +0.236 C 
ATOM     22  O   UNL     1       1.130   2.868   0.007  0.00  0.00    -0.274 OA
ATOM     23  H   UNL     1       0.002  -0.004   0.002  0.00  0.00    +0.155 HD
BRANCH  20  31
ATOM     24  C   UNL     1      -6.614   5.158   0.157  0.00  0.00    +0.008 C 
ATOM     25  C   UNL     1      -5.595   4.050   0.430  0.00  0.00    -0.009 C 
ATOM     26  C   UNL     1      -5.936   2.817  -0.412  0.00  0.00    +0.008 C 
ATOM     27  C   UNL     1      -5.080   1.629   0.035  0.00  0.00    +0.037 C 
ATOM     28  C   UNL     1      -3.616   2.051   0.031  0.00  0.00    -0.021 A 
ATOM     29  C   UNL     1      -3.268   3.356   0.036  0.00  0.00    -0.004 A 
ATOM     30  S   UNL     1      -1.498   3.353   0.027  0.00  0.00    -0.077 S 
ATOM     31  C   UNL     1      -1.221   1.643   0.017  0.00  0.00    +0.086 A 
ATOM     32  C   UNL     1      -2.505   1.114   0.014  0.00  0.00    +0.091 A 
ATOM     33  C   UNL     1      -4.189   4.537   0.047  0.00  0.00    +0.046 C 
BRANCH  32  34
ATOM     34  C   UNL     1      -2.732  -0.332   0.000  0.00  0.00    +0.342 C 
ATOM     35  O   UNL     1      -2.824  -0.944   1.048  0.00  0.00    -0.245 OA
BRANCH  34  36
ATOM     36  O   UNL     1      -2.838  -0.987  -1.175  0.00  0.00    -0.464 OA
ATOM     37  C   UNL     1      -3.062  -2.420  -1.113  0.00  0.00    +0.280 C 
ENDBRANCH  34  36
ENDBRANCH  32  34
ENDBRANCH  20  31
ENDBRANCH   1  21
TORSDOF 7
