REMARK  Name = ZINC61674806
REMARK  5 active torsions:
REMARK  status: ('A' for Active; 'I' for Inactive)
REMARK    1  A    between atoms: C_6  and  C_7
REMARK    2  A    between atoms: C_7  and  N_8
REMARK    3  A    between atoms: N_8  and  C_9
REMARK    4  A    between atoms: C_12  and  C_16
REMARK    5  A    between atoms: C_14  and  N_15
REMARK                            x       y       z     vdW  Elec       q    Type
REMARK                         _______ _______ _______ _____ _____    ______ ____
ROOT
ATOM      1  C   UNL     1      -2.907  -1.714  -1.615  0.00  0.00    +0.048 A 
ATOM      2  C   UNL     1      -3.675  -2.175  -0.553  0.00  0.00    +0.025 A 
ATOM      3  C   UNL     1      -4.843  -2.866  -0.793  0.00  0.00    +0.015 A 
ATOM      4  C   UNL     1      -5.258  -3.105  -2.106  0.00  0.00    +0.038 A 
ATOM      5  C   UNL     1      -4.487  -2.642  -3.176  0.00  0.00    +0.037 A 
ATOM      6  C   UNL     1      -3.319  -1.944  -2.931  0.00  0.00    +0.046 A 
ENDROOT
BRANCH   4   7
ATOM      7  C   UNL     1      -6.508  -3.846  -2.362  0.00  0.00    +0.242 C 
ATOM      8  O   UNL     1      -6.868  -4.053  -3.505  0.00  0.00    -0.270 OA
ATOM      9  N   UNL     1      -7.250  -4.292  -1.330  0.00  0.00    -0.325 N 
ATOM     10  H   UNL     1      -6.963  -4.127  -0.418  0.00  0.00    +0.145 HD
ATOM     11  H   UNL     1      -8.072  -4.779  -1.499  0.00  0.00    +0.145 HD
ENDBRANCH   4   7
BRANCH   6  12
ATOM     12  N   UNL     1      -2.547  -1.473  -4.000  0.00  0.00    -0.357 N 
ATOM     13  H   UNL     1      -1.725  -0.987  -3.827  0.00  0.00    +0.142 HD
ATOM     14  H   UNL     1      -2.833  -1.633  -4.913  0.00  0.00    +0.142 HD
ENDBRANCH   6  12
BRANCH   1  15
ATOM     15  N   UNL     1      -1.727  -1.016  -1.368  0.00  0.00    -0.338 N 
ATOM     16  H   UNL     1      -1.192  -0.690  -2.109  0.00  0.00    +0.146 HD
BRANCH  15  17
ATOM     17  C   UNL     1      -1.294  -0.774   0.010  0.00  0.00    +0.137 C 
BRANCH  17  23
ATOM     18  C   UNL     1      -0.017   1.378   0.010  0.00  0.00    +0.009 A 
ATOM     19  C   UNL     1       1.170   2.088   0.002  0.00  0.00    +0.050 A 
ATOM     20  C   UNL     1       2.380   1.416  -0.013  0.00  0.00    +0.166 A 
ATOM     21  C   UNL     1       2.399   0.023  -0.021  0.00  0.00    +0.167 A 
ATOM     22  C   UNL     1       1.207  -0.682  -0.014  0.00  0.00    +0.054 A 
ATOM     23  C   UNL     1       0.002  -0.004   0.002  0.00  0.00    -0.027 A 
ATOM     24  O   UNL     1       3.698  -0.395  -0.036  0.00  0.00    -0.453 OA
ATOM     25  C   UNL     1       4.466   0.750  -0.450  0.00  0.00    +0.466 C 
ATOM     26  O   UNL     1       3.668   1.870  -0.024  0.00  0.00    -0.453 OA
ENDBRANCH  17  23
ENDBRANCH  15  17
ENDBRANCH   1  15
TORSDOF 5
