REMARK  Name = ZINC06445637
REMARK  5 active torsions:
REMARK  status: ('A' for Active; 'I' for Inactive)
REMARK    1  A    between atoms: C_5  and  C_7
REMARK    2  A    between atoms: C_12  and  S_28
REMARK    3  A    between atoms: C_22  and  C_25
REMARK    4  A    between atoms: S_28  and  C_29
REMARK    5  A    between atoms: C_34  and  N_35
REMARK                            x       y       z     vdW  Elec       q    Type
REMARK                         _______ _______ _______ _____ _____    ______ ____
ROOT
ATOM      1  C   UNL     1       0.041   5.509   0.302  0.00  0.00    +0.107 C 
ATOM      2  C   UNL     1       1.092   6.295  -0.474  0.00  0.00    +0.024 C 
ATOM      3  C   UNL     1       0.898   6.077  -1.991  0.00  0.00    +0.022 C 
ATOM      4  C   UNL     1       2.300   6.314  -2.590  0.00  0.00    +0.070 C 
ATOM      5  C   UNL     1       3.311   6.074  -1.455  0.00  0.00    +0.101 C 
ATOM      6  C   UNL     1       2.488   5.705  -0.201  0.00  0.00    +0.045 C 
ATOM      7  C   UNL     1       2.425   4.203  -0.102  0.00  0.00    -0.021 A 
ATOM      8  C   UNL     1       3.624   3.511  -0.012  0.00  0.00    +0.006 A 
ATOM      9  C   UNL     1       3.645   2.132   0.084  0.00  0.00    +0.001 A 
ATOM     10  C   UNL     1       2.465   1.420   0.097  0.00  0.00    +0.017 A 
ATOM     11  C   UNL     1       1.249   2.097   0.001  0.00  0.00    +0.084 A 
ATOM     12  C   UNL     1       1.232   3.504  -0.097  0.00  0.00    +0.045 A 
ATOM     13  N   UNL     1      -0.001   4.131  -0.190  0.00  0.00    -0.336 N 
ATOM     14 CL   UNL     1       4.416   4.718  -1.889  0.00  0.00    -0.120 Cl
ATOM     15  H   UNL     1      -0.714   3.598   0.285  0.00  0.00    +0.147 HD
ENDROOT
BRANCH   1  20
ATOM     16  C   UNL     1      -3.442   6.210  -0.974  0.00  0.00    +0.000 A 
ATOM     17  C   UNL     1      -3.787   7.330  -0.239  0.00  0.00    +0.003 A 
ATOM     18  C   UNL     1      -2.894   7.861   0.671  0.00  0.00    +0.039 A 
ATOM     19  C   UNL     1      -1.653   7.272   0.848  0.00  0.00    +0.128 A 
ATOM     20  C   UNL     1      -1.309   6.151   0.111  0.00  0.00    +0.008 A 
ATOM     21  C   UNL     1      -2.202   5.625  -0.803  0.00  0.00    +0.008 A 
ATOM     22  F   UNL     1      -0.779   7.790   1.737  0.00  0.00    -0.205 F 
ENDBRANCH   1  20
BRANCH  11  23
ATOM     23  C   UNL     1      -0.016   1.343   0.009  0.00  0.00    +0.388 C 
ATOM     24  O   UNL     1      -1.067   1.918  -0.195  0.00  0.00    -0.241 OA
ATOM     25  O   UNL     1      -0.008   0.015   0.238  0.00  0.00    -0.241 OA
ENDBRANCH  11  23
BRANCH   4  26
ATOM     26  S   UNL     1       2.601   5.149  -3.948  0.00  0.00    -0.118 S 
BRANCH  26  27
ATOM     27  C   UNL     1       4.158   5.651  -4.602  0.00  0.00    +0.038 A 
ATOM     28  C   UNL     1       4.833   6.731  -4.045  0.00  0.00    +0.017 A 
ATOM     29  C   UNL     1       6.053   7.121  -4.561  0.00  0.00    +0.001 A 
ATOM     30  C   UNL     1       6.603   6.439  -5.631  0.00  0.00    +0.002 A 
ATOM     31  C   UNL     1       5.934   5.365  -6.188  0.00  0.00    +0.034 A 
ATOM     32  C   UNL     1       4.717   4.965  -5.674  0.00  0.00    +0.140 A 
BRANCH  32  33
ATOM     33  N   UNL     1       4.005   3.811  -6.267  0.00  0.00    +0.058 N 
ATOM     34  O   UNL     1       4.495   3.210  -7.206  0.00  0.00    -0.126 OA
ATOM     35  O   UNL     1       2.928   3.462  -5.816  0.00  0.00    -0.126 OA
ENDBRANCH  32  33
ENDBRANCH  26  27
ENDBRANCH   4  26
TORSDOF 5
