REMARK  Name = ZINC11147819
REMARK  10 active torsions:
REMARK  status: ('A' for Active; 'I' for Inactive)
REMARK    1  A    between atoms: C_1  and  C_2
REMARK    2  A    between atoms: C_3  and  C_29
REMARK    3  A    between atoms: N_4  and  C_24
REMARK    4  A    between atoms: C_5  and  N_9
REMARK    5  A    between atoms: C_6  and  C_7
REMARK    6  A    between atoms: C_10  and  C_12
REMARK    7  A    between atoms: C_12  and  O_13
REMARK    8  A    between atoms: O_13  and  C_14
REMARK    9  A    between atoms: C_14  and  C_16
REMARK   10  A    between atoms: C_21  and  O_22
REMARK                            x       y       z     vdW  Elec       q    Type
REMARK                         _______ _______ _______ _____ _____    ______ ____
ROOT
ATOM      1  N   UNL     1       4.535   8.324  -0.089  0.00  0.00    -0.268 N 
ATOM      2  C   UNL     1       5.642   7.808   0.480  0.00  0.00    +0.256 C 
ATOM      3  O   UNL     1       6.447   8.541   1.015  0.00  0.00    -0.272 OA
ATOM      4  H   UNL     1       3.850   7.734  -0.440  0.00  0.00    +0.156 HD
ENDROOT
BRANCH   1   9
ATOM      5  C   UNL     1       5.405  13.289  -0.453  0.00  0.00    +0.047 C 
ATOM      6  C   UNL     1       4.731  11.946  -0.335  0.00  0.00    -0.011 A 
ATOM      7  C   UNL     1       3.410  11.715  -0.260  0.00  0.00    +0.022 A 
ATOM      8  N   UNL     1       3.191  10.367  -0.168  0.00  0.00    -0.329 N 
ATOM      9  C   UNL     1       4.373   9.699  -0.171  0.00  0.00    +0.124 A 
ATOM     10  C   UNL     1       5.391  10.636  -0.278  0.00  0.00    +0.095 A 
ATOM     11  C   UNL     1       2.338  12.774  -0.282  0.00  0.00    +0.064 C 
BRANCH   8  12
ATOM     12  C   UNL     1       1.872   9.736  -0.074  0.00  0.00    +0.089 C 
ATOM     13  C   UNL     1       1.826   8.784   1.138  0.00  0.00    +0.025 C 
ATOM     14  C   UNL     1       0.968   7.589   0.649  0.00  0.00    +0.002 C 
ATOM     15  C   UNL     1       1.415   7.427  -0.825  0.00  0.00    +0.002 C 
ATOM     16  C   UNL     1       1.610   8.875  -1.322  0.00  0.00    +0.025 C 
ENDBRANCH   8  12
BRANCH  10  17
ATOM     17  C   UNL     1       6.799  10.378  -0.324  0.00  0.00    +0.103 C 
ATOM     18  N   UNL     1       7.916  10.173  -0.360  0.00  0.00    -0.191 NA
ENDBRANCH  10  17
ENDBRANCH   1   9
BRANCH   2  19
ATOM     19  C   UNL     1       5.881   6.321   0.451  0.00  0.00    +0.328 C 
BRANCH  19  20
ATOM     20  O   UNL     1       7.186   6.029   1.018  0.00  0.00    -0.452 OA
BRANCH  20  21
ATOM     21  C   UNL     1       7.556   4.734   1.067  0.00  0.00    +0.343 C 
ATOM     22  O   UNL     1       6.809   3.873   0.647  0.00  0.00    -0.245 OA
BRANCH  21  23
ATOM     23  C   UNL     1       8.867   4.363   1.629  0.00  0.00    +0.101 A 
ATOM     24  C   UNL     1       9.729   5.351   2.113  0.00  0.00    +0.034 A 
ATOM     25  C   UNL     1      10.954   4.997   2.638  0.00  0.00    +0.019 A 
ATOM     26  C   UNL     1      11.332   3.664   2.693  0.00  0.00    +0.019 A 
ATOM     27  C   UNL     1      10.492   2.680   2.213  0.00  0.00    +0.047 A 
ATOM     28  C   UNL     1       9.256   3.018   1.682  0.00  0.00    +0.131 A 
ATOM     29 BR   UNL     1      12.119   6.334   3.293  0.00  0.00    -0.050 Br
BRANCH  28  30
ATOM     30  O   UNL     1       8.428   2.050   1.215  0.00  0.00    -0.506 OA
ATOM     31  H   UNL     1       7.823   1.696   1.881  0.00  0.00    +0.292 HD
ENDBRANCH  28  30
ENDBRANCH  21  23
ENDBRANCH  20  21
ENDBRANCH  19  20
ENDBRANCH   2  19
TORSDOF 8
