REMARK  Name = ZINC38592511
REMARK  7 active torsions:
REMARK  status: ('A' for Active; 'I' for Inactive)
REMARK    1  A    between atoms: C_5  and  N_7
REMARK    2  A    between atoms: N_10  and  C_13
REMARK    3  A    between atoms: C_13  and  C_14
REMARK    4  A    between atoms: C_14  and  C_15
REMARK    5  A    between atoms: C_15  and  N_16
REMARK    6  A    between atoms: C_17  and  C_19
REMARK    7  A    between atoms: N_24  and  C_26
REMARK                            x       y       z     vdW  Elec       q    Type
REMARK                         _______ _______ _______ _____ _____    ______ ____
ROOT
ATOM      1  C   UNL     1       4.071  -7.786  -1.233  0.00  0.00    +0.102 C 
ENDROOT
BRANCH   1   2
ATOM      2  N   UNL     1       3.849  -8.672  -2.378  0.00  0.00    -0.315 N 
ATOM      3  C   UNL     1       4.669  -9.722  -2.588  0.00  0.00    +0.218 C 
ATOM      4  O   UNL     1       5.590  -9.932  -1.828  0.00  0.00    -0.275 OA
ATOM      5  H   UNL     1       3.112  -8.504  -2.986  0.00  0.00    +0.149 HD
BRANCH   3   6
ATOM      6  C   UNL     1       4.440 -10.633  -3.766  0.00  0.00    +0.101 C 
ATOM      7  C   UNL     1       3.091 -11.377  -3.636  0.00  0.00    +0.110 C 
ATOM      8  C   UNL     1       3.372 -12.755  -4.192  0.00  0.00    +0.221 C 
ATOM      9  O   UNL     1       2.525 -13.554  -4.530  0.00  0.00    -0.275 OA
ATOM     10  N   UNL     1       4.698 -12.966  -4.256  0.00  0.00    -0.271 N 
ATOM     11  C   UNL     1       5.448 -11.804  -3.763  0.00  0.00    +0.127 C 
BRANCH  10  12
ATOM     12  C   UNL     1       5.289 -14.142  -4.733  0.00  0.00    +0.036 A 
ATOM     13  C   UNL     1       4.496 -15.229  -5.075  0.00  0.00    +0.025 A 
ATOM     14  C   UNL     1       5.081 -16.389  -5.545  0.00  0.00    +0.022 A 
ATOM     15  C   UNL     1       6.457 -16.467  -5.676  0.00  0.00    +0.041 A 
ATOM     16  C   UNL     1       7.249 -15.384  -5.337  0.00  0.00    +0.022 A 
ATOM     17  C   UNL     1       6.668 -14.221  -4.871  0.00  0.00    +0.025 A 
ATOM     18 CL   UNL     1       7.189 -17.925  -6.267  0.00  0.00    -0.084 Cl
ENDBRANCH  10  12
ENDBRANCH   3   6
ENDBRANCH   1   2
BRANCH   1  19
ATOM     19  C   UNL     1       3.009  -6.685  -1.226  0.00  0.00    +0.000 C 
BRANCH  19  20
ATOM     20  C   UNL     1       3.242  -5.760  -0.030  0.00  0.00    -0.077 C 
BRANCH  20  24
ATOM     21  N   UNL     1       1.238  -2.086  -0.001  0.00  0.00    -0.331 N 
ATOM     22  C   UNL     1       1.240  -2.856   1.253  0.00  0.00    +0.086 C 
ATOM     23  C   UNL     1       2.372  -3.887   1.188  0.00  0.00    -0.060 C 
ATOM     24  N   UNL     1       2.222  -4.702  -0.024  0.00  0.00    +0.382 N 
ATOM     25  C   UNL     1       2.385  -3.861  -1.216  0.00  0.00    -0.060 C 
ATOM     26  C   UNL     1       1.248  -2.829  -1.271  0.00  0.00    +0.086 C 
ATOM     27  H   UNL     1       1.305  -5.123  -0.033  0.00  0.00    -0.082 HD
BRANCH  21  32
ATOM     28  C   UNL     1      -0.001   1.375   0.035  0.00  0.00    +0.002 A 
ATOM     29  C   UNL     1       1.188   2.080   0.043  0.00  0.00    +0.003 A 
ATOM     30  C   UNL     1       2.396   1.406   0.037  0.00  0.00    +0.040 A 
ATOM     31  C   UNL     1       2.417   0.023   0.022  0.00  0.00    +0.144 A 
ATOM     32  C   UNL     1       1.222  -0.688   0.014  0.00  0.00    +0.065 A 
ATOM     33  C   UNL     1       0.012  -0.006   0.021  0.00  0.00    +0.026 A 
ATOM     34  F   UNL     1       3.596  -0.636   0.016  0.00  0.00    -0.204 F 
ENDBRANCH  21  32
ENDBRANCH  20  24
ENDBRANCH  19  20
ENDBRANCH   1  19
TORSDOF 7
