REMARK  Name = ZINC59564842
REMARK  7 active torsions:
REMARK  status: ('A' for Active; 'I' for Inactive)
REMARK    1  A    between atoms: C_1  and  C_2
REMARK    2  A    between atoms: C_2  and  C_3
REMARK    3  A    between atoms: C_3  and  C_32
REMARK    4  A    between atoms: N_5  and  C_26
REMARK    5  A    between atoms: C_6  and  S_8
REMARK    6  A    between atoms: S_8  and  C_9
REMARK    7  A    between atoms: C_9  and  C_10
REMARK                            x       y       z     vdW  Elec       q    Type
REMARK                         _______ _______ _______ _____ _____    ______ ____
ROOT
ATOM      1  S   UNL     1      -4.667  -1.019  -2.236  0.00  0.00    -0.082 S 
ENDROOT
BRANCH   1   5
ATOM      2  C   UNL     1      -1.426  -0.553  -0.016  0.00  0.00    +0.104 C 
ATOM      3  N   UNL     1      -1.738  -1.977   0.218  0.00  0.00    -0.209 NA
ATOM      4  N   UNL     1      -2.861  -2.232  -0.520  0.00  0.00    -0.213 N 
ATOM      5  C   UNL     1      -3.260  -1.099  -1.180  0.00  0.00    +0.151 C 
ATOM      6  N   UNL     1      -2.477  -0.091  -0.935  0.00  0.00    -0.348 N 
ATOM      7  C   UNL     1      -1.481   0.232   1.296  0.00  0.00    +0.053 C 
ATOM      8  H   UNL     1      -0.973  -2.567  -0.071  0.00  0.00    +0.147 HD
ATOM      9  H   UNL     1      -2.569   0.805  -1.293  0.00  0.00    +0.163 HD
BRANCH   4  10
ATOM     10  C   UNL     1      -3.508  -3.470  -0.591  0.00  0.00    +0.052 A 
ATOM     11  C   UNL     1      -3.839  -4.012  -1.827  0.00  0.00    +0.025 A 
ATOM     12  C   UNL     1      -4.478  -5.234  -1.894  0.00  0.00    +0.002 A 
ATOM     13  C   UNL     1      -4.788  -5.919  -0.733  0.00  0.00    +0.000 A 
ATOM     14  C   UNL     1      -4.460  -5.382   0.499  0.00  0.00    +0.002 A 
ATOM     15  C   UNL     1      -3.815  -4.163   0.572  0.00  0.00    +0.025 A 
ENDBRANCH   4  10
BRANCH   2  17
ATOM     16  C   UNL     1       0.270   1.075  -0.862  0.00  0.00    +0.007 C 
ATOM     17  C   UNL     1      -0.048  -0.408  -0.665  0.00  0.00    +0.042 C 
ENDBRANCH   2  17
ENDBRANCH   1   5
BRANCH   1  18
ATOM     18  C   UNL     1      -4.688   0.701  -2.810  0.00  0.00    +0.173 C 
BRANCH  18  19
ATOM     19  C   UNL     1      -5.860   0.908  -3.735  0.00  0.00    +0.234 C 
ATOM     20  O   UNL     1      -6.418  -0.048  -4.230  0.00  0.00    -0.274 OA
ATOM     21  N   UNL     1      -6.287   2.156  -4.012  0.00  0.00    -0.237 N 
ATOM     22  C   UNL     1      -7.440   2.324  -4.790  0.00  0.00    +0.055 A 
ATOM     23  C   UNL     1      -7.697   1.472  -5.853  0.00  0.00    +0.025 A 
ATOM     24  C   UNL     1      -8.837   1.645  -6.617  0.00  0.00    +0.002 A 
ATOM     25  C   UNL     1      -9.725   2.664  -6.330  0.00  0.00    +0.001 A 
ATOM     26  C   UNL     1      -9.479   3.520  -5.270  0.00  0.00    +0.017 A 
ATOM     27  C   UNL     1      -8.341   3.352  -4.503  0.00  0.00    +0.035 A 
ATOM     28  S   UNL     1      -8.000   4.429  -3.146  0.00  0.00    -0.086 S 
ATOM     29  C   UNL     1      -6.236   4.392  -3.070  0.00  0.00    +0.035 A 
ATOM     30  C   UNL     1      -5.570   3.249  -3.510  0.00  0.00    +0.055 A 
ATOM     31  C   UNL     1      -4.186   3.209  -3.448  0.00  0.00    +0.025 A 
ATOM     32  C   UNL     1      -3.484   4.293  -2.953  0.00  0.00    +0.002 A 
ATOM     33  C   UNL     1      -4.153   5.421  -2.516  0.00  0.00    +0.001 A 
ATOM     34  C   UNL     1      -5.527   5.474  -2.580  0.00  0.00    +0.017 A 
ENDBRANCH  18  19
ENDBRANCH   1  18
TORSDOF 5
