REMARK  Name = ZINC41353869
REMARK  6 active torsions:
REMARK  status: ('A' for Active; 'I' for Inactive)
REMARK    1  A    between atoms: C_1  and  C_2
REMARK    2  A    between atoms: C_2  and  C_3
REMARK    3  A    between atoms: C_2  and  C_4
REMARK    4  A    between atoms: C_10  and  C_15
REMARK    5  A    between atoms: C_15  and  N_16
REMARK    6  A    between atoms: C_17  and  C_19
REMARK                            x       y       z     vdW  Elec       q    Type
REMARK                         _______ _______ _______ _____ _____    ______ ____
ROOT
ATOM      1  C   UNL     1      -1.344  -3.047   4.046  0.00  0.00    +0.140 C 
ENDROOT
BRANCH   1   8
ATOM      2  C   UNL     1       0.731  -0.503   1.223  0.00  0.00    -0.044 A 
ATOM      3  C   UNL     1       2.055  -0.143   1.429  0.00  0.00    +0.007 A 
ATOM      4  C   UNL     1       2.740  -0.589   2.541  0.00  0.00    +0.047 A 
ATOM      5  C   UNL     1       2.101  -1.407   3.464  0.00  0.00    +0.139 A 
ATOM      6  C   UNL     1       0.759  -1.769   3.251  0.00  0.00    +0.023 A 
ATOM      7  C   UNL     1       0.081  -1.302   2.121  0.00  0.00    +0.015 A 
ATOM      8  C   UNL     1       0.093  -2.632   4.231  0.00  0.00    -0.013 A 
ATOM      9  C   UNL     1       0.805  -3.047   5.309  0.00  0.00    +0.097 A 
ATOM     10  C   UNL     1       2.149  -2.644   5.459  0.00  0.00    +0.338 A 
ATOM     11  O   UNL     1       2.777  -3.024   6.431  0.00  0.00    -0.245 OA
ATOM     12  O   UNL     1       2.753  -1.854   4.558  0.00  0.00    -0.422 OA
BRANCH   2  14
ATOM     13  C   UNL     1      -0.019   1.526   0.010  0.00  0.00    +0.012 C 
ATOM     14  C   UNL     1       0.002  -0.004   0.002  0.00  0.00    +0.013 C 
ATOM     15  C   UNL     1       0.718  -0.497  -1.257  0.00  0.00    +0.012 C 
ENDBRANCH   2  14
ENDBRANCH   1   8
BRANCH   1  16
ATOM     16  N   UNL     1      -2.226  -2.008   4.583  0.00  0.00    -0.305 N 
ATOM     17  C   UNL     1      -3.563  -2.163   4.527  0.00  0.00    +0.280 C 
ATOM     18  O   UNL     1      -4.039  -3.166   4.030  0.00  0.00    -0.267 OA
ATOM     19  H   UNL     1      -1.847  -1.207   4.979  0.00  0.00    +0.149 HD
BRANCH  17  20
ATOM     20  C   UNL     1      -4.447  -1.120   5.066  0.00  0.00    +0.190 A 
ATOM     21  C   UNL     1      -5.805  -1.171   5.068  0.00  0.00    +0.063 A 
ATOM     22  C   UNL     1      -6.255   0.071   5.697  0.00  0.00    +0.022 A 
ATOM     23  C   UNL     1      -7.508   0.613   5.993  0.00  0.00    +0.027 A 
ATOM     24  C   UNL     1      -7.591   1.833   6.604  0.00  0.00    +0.019 A 
ATOM     25  C   UNL     1      -6.438   2.536   6.931  0.00  0.00    +0.019 A 
ATOM     26  C   UNL     1      -5.193   2.018   6.647  0.00  0.00    +0.048 A 
ATOM     27  C   UNL     1      -5.084   0.778   6.026  0.00  0.00    +0.136 A 
ATOM     28  O   UNL     1      -4.033   0.030   5.638  0.00  0.00    -0.450 OA
ATOM     29 BR   UNL     1      -9.285   2.570   7.005  0.00  0.00    -0.050 Br
ENDBRANCH  17  20
ENDBRANCH   1  16
TORSDOF 4
