REMARK  Name = ZINC63349008
REMARK  4 active torsions:
REMARK  status: ('A' for Active; 'I' for Inactive)
REMARK    1  A    between atoms: C_4  and  C_7
REMARK    2  A    between atoms: N_16  and  C_23
REMARK    3  A    between atoms: C_23  and  C_24
REMARK    4  A    between atoms: C_24  and  C_25
REMARK                            x       y       z     vdW  Elec       q    Type
REMARK                         _______ _______ _______ _____ _____    ______ ____
ROOT
ATOM      1  C   UNL     1       3.699  -0.689  -0.038  0.00  0.00    +0.183 A 
ATOM      2  N   UNL     1       4.915  -0.112  -0.042  0.00  0.00    -0.193 NA
ATOM      3  C   UNL     1       5.831  -1.028  -0.061  0.00  0.00    +0.219 A 
ATOM      4  N   UNL     1       5.210  -2.247  -0.060  0.00  0.00    -0.221 N 
ATOM      5  N   UNL     1       3.846  -2.001  -0.047  0.00  0.00    -0.147 NA
ATOM      6  C   UNL     1       5.995  -3.477  -0.059  0.00  0.00    +0.171 C 
ATOM      7  C   UNL     1       5.247  -4.621  -0.665  0.00  0.00    +0.020 C 
ATOM      8  C   UNL     1       5.801  -5.446  -1.522  0.00  0.00    +0.076 C 
ATOM      9  N   UNL     1       7.118  -5.316  -1.932  0.00  0.00    -0.274 N 
ATOM     10  C   UNL     1       7.841  -4.226  -1.617  0.00  0.00    +0.250 C 
ATOM     11  O   UNL     1       8.984  -4.115  -2.022  0.00  0.00    -0.270 OA
ATOM     12  C   UNL     1       7.265  -3.214  -0.832  0.00  0.00    +0.057 C 
ATOM     13  H   UNL     1       7.723  -0.267   0.349  0.00  0.00    +0.154 HD
ATOM     14  C   UNL     1       7.839  -1.988  -0.802  0.00  0.00    +0.086 C 
ATOM     15  N   UNL     1       7.222  -0.970  -0.093  0.00  0.00    -0.290 N 
ENDROOT
BRANCH   1  19
ATOM     16  C   UNL     1      -0.017   1.379   0.010  0.00  0.00    +0.000 A 
ATOM     17  C   UNL     1       1.169   2.092   0.002  0.00  0.00    +0.001 A 
ATOM     18  C   UNL     1       2.377   1.426  -0.013  0.00  0.00    +0.011 A 
ATOM     19  C   UNL     1       2.402   0.033  -0.021  0.00  0.00    +0.021 A 
ATOM     20  C   UNL     1       1.205  -0.680  -0.013  0.00  0.00    +0.011 A 
ATOM     21  C   UNL     1       0.002  -0.004   0.002  0.00  0.00    +0.001 A 
ENDBRANCH   1  19
BRANCH   9  22
ATOM     22  C   UNL     1       7.735  -6.385  -2.721  0.00  0.00    +0.118 C 
BRANCH  22  23
ATOM     23  C   UNL     1       7.508  -6.115  -4.210  0.00  0.00    +0.052 C 
BRANCH  23  24
ATOM     24  C   UNL     1       8.143  -7.215  -5.022  0.00  0.00    -0.040 C 
ATOM     25  C   UNL     1       7.535  -8.322  -5.506  0.00  0.00    +0.002 A 
ATOM     26  C   UNL     1       6.156  -8.816  -5.423  0.00  0.00    +0.048 A 
ATOM     27  C   UNL     1       5.840  -9.988  -6.022  0.00  0.00    +0.124 A 
ATOM     28  C   UNL     1       6.799 -10.741  -6.719  0.00  0.00    +0.040 A 
ATOM     29  C   UNL     1       8.086 -10.352  -6.837  0.00  0.00    +0.029 A 
ATOM     30  C   UNL     1       8.527  -9.135  -6.247  0.00  0.00    +0.043 A 
ATOM     31  N   UNL     1       9.701  -8.553  -6.222  0.00  0.00    -0.380 N 
ATOM     32  C   UNL     1       9.585  -7.300  -5.468  0.00  0.00    +0.144 C 
ATOM     33  F   UNL     1       4.572 -10.446  -5.947  0.00  0.00    -0.205 F 
ATOM     34  H   UNL     1      10.509  -8.892  -6.636  0.00  0.00    +0.160 HD
ENDBRANCH  23  24
ENDBRANCH  22  23
ENDBRANCH   9  22
TORSDOF 4
