REMARK  Name = ZINC39856224
REMARK  10 active torsions:
REMARK  status: ('A' for Active; 'I' for Inactive)
REMARK    1  A    between atoms: C_1  and  C_2
REMARK    2  A    between atoms: C_9  and  O_12
REMARK    3  A    between atoms: O_12  and  C_13
REMARK    4  A    between atoms: C_13  and  C_15
REMARK    5  A    between atoms: C_16  and  C_31
REMARK    6  A    between atoms: C_21  and  C_29
REMARK    7  A    between atoms: C_21  and  C_30
REMARK    8  A    between atoms: N_24  and  N_25
REMARK    9  A    between atoms: N_25  and  C_26
REMARK   10  A    between atoms: C_26  and  N_28
REMARK                            x       y       z     vdW  Elec       q    Type
REMARK                         _______ _______ _______ _____ _____    ______ ____
ROOT
ATOM      1  C   UNL     1      -0.164  -1.975   6.017  0.00  0.00    +0.215 A 
ATOM      2  C   UNL     1      -0.256  -2.564   7.248  0.00  0.00    +0.011 A 
ATOM      3  C   UNL     1      -0.352  -1.520   8.175  0.00  0.00    +0.042 A 
ATOM      4  C   UNL     1      -0.317  -0.339   7.472  0.00  0.00    +0.116 A 
ATOM      5  O   UNL     1      -0.195  -0.633   6.180  0.00  0.00    -0.452 OA
ATOM      6  C   UNL     1      -0.403   1.013   8.134  0.00  0.00    +0.081 C 
ATOM      7  C   UNL     1      -1.030   0.860   9.523  0.00  0.00    -0.023 C 
ATOM      8  C   UNL     1      -0.286  -0.203  10.338  0.00  0.00    +0.064 C 
ATOM      9  C   UNL     1      -0.472  -1.547   9.650  0.00  0.00    +0.070 C 
ATOM     10  N   UNL     1      -0.717  -2.638  10.309  0.00  0.00    -0.185 NA
ATOM     11  C   UNL     1      -0.961   2.200  10.258  0.00  0.00    +0.011 C 
ATOM     12  C   UNL     1      -2.495   0.445   9.371  0.00  0.00    +0.011 C 
ATOM     13  C   UNL     1      -0.254  -4.041   7.547  0.00  0.00    +0.048 C 
ENDROOT
BRANCH   1  14
ATOM     14  C   UNL     1      -0.044  -2.680   4.738  0.00  0.00    +0.380 C 
ATOM     15  O   UNL     1      -0.026  -3.896   4.713  0.00  0.00    -0.241 OA
BRANCH  14  16
ATOM     16  O   UNL     1       0.045  -1.980   3.588  0.00  0.00    -0.418 OA
BRANCH  16  25
ATOM     17  C   UNL     1      -4.762  -2.971   2.671  0.00  0.00    +0.065 C 
ATOM     18  C   UNL     1      -3.475  -3.278   1.949  0.00  0.00    +0.039 A 
ATOM     19  C   UNL     1      -3.522  -3.990   0.752  0.00  0.00    +0.023 A 
ATOM     20  C   UNL     1      -2.366  -4.277   0.085  0.00  0.00    +0.012 A 
ATOM     21  C   UNL     1      -1.150  -3.835   0.641  0.00  0.00    +0.004 A 
ATOM     22  C   UNL     1       0.078  -4.092   0.011  0.00  0.00    +0.010 A 
ATOM     23  C   UNL     1       1.234  -3.648   0.578  0.00  0.00    +0.004 A 
ATOM     24  C   UNL     1       1.217  -2.941   1.777  0.00  0.00    +0.048 A 
ATOM     25  C   UNL     1       0.042  -2.671   2.419  0.00  0.00    +0.158 A 
ATOM     26  C   UNL     1      -1.175  -3.115   1.860  0.00  0.00    +0.113 A 
ATOM     27  N   UNL     1      -2.342  -2.863   2.460  0.00  0.00    -0.248 NA
ENDBRANCH  16  25
ENDBRANCH  14  16
ENDBRANCH   1  14
BRANCH  10  28
ATOM     28  N   UNL     1      -0.820  -2.605  11.706  0.00  0.00    -0.218 N 
ATOM     29  H   UNL     1      -0.708  -1.766  12.180  0.00  0.00    +0.176 HD
BRANCH  28  30
ATOM     30  C   UNL     1      -1.074  -3.738  12.390  0.00  0.00    +0.147 C 
ATOM     31  S   UNL     1      -1.200  -3.697  14.097  0.00  0.00    -0.017 S 
BRANCH  30  32
ATOM     32  N   UNL     1      -1.230  -4.902  11.730  0.00  0.00    -0.339 N 
ATOM     33  H   UNL     1      -1.159  -4.926  10.763  0.00  0.00    +0.144 HD
ATOM     34  H   UNL     1      -1.413  -5.718  12.222  0.00  0.00    +0.144 HD
ENDBRANCH  30  32
ENDBRANCH  28  30
ENDBRANCH  10  28
TORSDOF 6
