REMARK  Name = ZINC39637408
REMARK  7 active torsions:
REMARK  status: ('A' for Active; 'I' for Inactive)
REMARK    1  A    between atoms: C_1  and  C_2
REMARK    2  A    between atoms: C_7  and  N_12
REMARK    3  A    between atoms: C_9  and  C_11
REMARK    4  A    between atoms: C_13  and  C_15
REMARK    5  A    between atoms: C_26  and  C_28
REMARK    6  A    between atoms: C_33  and  S_34
REMARK    7  A    between atoms: S_34  and  C_35
REMARK                            x       y       z     vdW  Elec       q    Type
REMARK                         _______ _______ _______ _____ _____    ______ ____
ROOT
ATOM      1  C   UNL     1       1.763  -4.042   4.938  0.00  0.00    +0.100 C 
ATOM      2  C   UNL     1       3.179  -4.228   4.349  0.00  0.00    +0.121 C 
ATOM      3  N   UNL     1       3.634  -5.537   4.874  0.00  0.00    -0.296 N 
ATOM      4  C   UNL     1       2.427  -6.396   4.819  0.00  0.00    +0.115 C 
ATOM      5  C   UNL     1       1.272  -5.467   5.244  0.00  0.00    -0.004 C 
ATOM      6  C   UNL     1       0.019  -5.780   4.433  0.00  0.00    -0.010 C 
ATOM      7  C   UNL     1      -0.484  -7.179   4.798  0.00  0.00    -0.082 C 
ATOM      8  N   UNL     1      -0.779  -7.237   6.234  0.00  0.00    +0.379 N 
ATOM      9  C   UNL     1       0.452  -7.027   7.007  0.00  0.00    -0.082 C 
ATOM     10  C   UNL     1       0.993  -5.620   6.736  0.00  0.00    -0.010 C 
ATOM     11  C   UNL     1       4.867  -5.871   5.304  0.00  0.00    +0.249 C 
ATOM     12  O   UNL     1       5.110  -7.020   5.619  0.00  0.00    -0.270 OA
ATOM     13  H   UNL     1      -1.448  -6.518   6.468  0.00  0.00    -0.086 HD
ATOM     14  H   UNL     1      -1.167  -8.140   6.461  0.00  0.00    -0.086 HD
ENDROOT
BRANCH  11  15
ATOM     15  C   UNL     1       5.920  -4.843   5.394  0.00  0.00    +0.069 A 
ATOM     16  C   UNL     1       5.990  -3.810   4.452  0.00  0.00    +0.017 A 
ATOM     17  C   UNL     1       6.997  -2.871   4.580  0.00  0.00    +0.020 A 
ATOM     18  C   UNL     1       7.899  -2.976   5.625  0.00  0.00    +0.112 A 
ATOM     19  N   UNL     1       7.817  -3.956   6.502  0.00  0.00    -0.248 NA
ATOM     20  C   UNL     1       6.870  -4.880   6.430  0.00  0.00    +0.114 A 
BRANCH  20  21
ATOM     21  S   UNL     1       6.804  -6.164   7.634  0.00  0.00    -0.069 S 
BRANCH  21  22
ATOM     22  C   UNL     1       8.198  -5.853   8.666  0.00  0.00    +0.014 A 
ATOM     23  C   UNL     1       8.050  -5.112   9.832  0.00  0.00    +0.015 A 
ATOM     24  C   UNL     1       9.145  -4.871  10.638  0.00  0.00    +0.001 A 
ATOM     25  C   UNL     1      10.387  -5.365  10.286  0.00  0.00    +0.000 A 
ATOM     26  C   UNL     1      10.539  -6.102   9.126  0.00  0.00    +0.001 A 
ATOM     27  C   UNL     1       9.447  -6.352   8.318  0.00  0.00    +0.015 A 
ENDBRANCH  21  22
ENDBRANCH  20  21
ENDBRANCH  11  15
BRANCH   1  29
ATOM     28  N   UNL     1      -0.149  -2.588   4.347  0.00  0.00    -0.312 N 
ATOM     29  C   UNL     1       0.859  -3.380   3.930  0.00  0.00    +0.218 C 
ATOM     30  O   UNL     1       1.037  -3.561   2.744  0.00  0.00    -0.275 OA
ATOM     31  H   UNL     1      -0.292  -2.443   5.295  0.00  0.00    +0.149 HD
BRANCH  28  37
ATOM     32  C   UNL     1      -4.654  -0.678   3.640  0.00  0.00    +0.008 C 
ATOM     33  C   UNL     1      -3.300  -0.976   2.992  0.00  0.00    -0.009 C 
ATOM     34  C   UNL     1      -2.664   0.332   2.516  0.00  0.00    +0.003 C 
ATOM     35  C   UNL     1      -1.311   0.034   1.869  0.00  0.00    +0.002 C 
ATOM     36  C   UNL     1      -0.392  -0.637   2.892  0.00  0.00    +0.022 C 
ATOM     37  C   UNL     1      -1.028  -1.945   3.367  0.00  0.00    +0.076 C 
ATOM     38  C   UNL     1      -2.382  -1.647   4.015  0.00  0.00    +0.009 C 
ATOM     39  C   UNL     1      -3.018  -2.955   4.491  0.00  0.00    +0.009 C 
ENDBRANCH  28  37
ENDBRANCH   1  29
TORSDOF 5
