REMARK  Name = ZINC13245831
REMARK  11 active torsions:
REMARK  status: ('A' for Active; 'I' for Inactive)
REMARK    1  A    between atoms: C_1  and  C_2
REMARK    2  A    between atoms: C_2  and  C_3
REMARK    3  A    between atoms: C_2  and  C_4
REMARK    4  A    between atoms: C_4  and  C_6
REMARK    5  A    between atoms: C_4  and  N_17
REMARK    6  A    between atoms: C_18  and  C_20
REMARK    7  A    between atoms: C_20  and  N_21
REMARK    8  A    between atoms: N_24  and  CA_25
REMARK    9  A    between atoms: CA_25  and  C_27
REMARK   10  A    between atoms: CA_25  and  C_35
REMARK   11  A    between atoms: C_27  and  C_28
REMARK                            x       y       z     vdW  Elec       q    Type
REMARK                         _______ _______ _______ _____ _____    ______ ____
ROOT
ATOM      1  N   UNL     1      10.521  -2.990  -2.683  0.00  0.00    -0.307 N 
ATOM      2  C   UNL     1       9.580  -2.228  -2.090  0.00  0.00    +0.231 C 
ATOM      3  O   UNL     1       9.345  -2.366  -0.908  0.00  0.00    -0.274 OA
ATOM      4  H   UNL     1      10.709  -2.881  -3.628  0.00  0.00    +0.149 HD
ENDROOT
BRANCH   1   5
ATOM      5  C   UNL     1      11.260  -3.984  -1.899  0.00  0.00    +0.106 C 
BRANCH   5   6
ATOM      6  C   UNL     1      11.759  -5.073  -2.813  0.00  0.00    -0.023 A 
ATOM      7  C   UNL     1      12.256  -4.751  -4.062  0.00  0.00    +0.009 A 
ATOM      8  C   UNL     1      12.716  -5.745  -4.907  0.00  0.00    +0.050 A 
ATOM      9  C   UNL     1      12.677  -7.067  -4.496  0.00  0.00    +0.162 A 
ATOM     10  C   UNL     1      12.179  -7.391  -3.242  0.00  0.00    +0.162 A 
ATOM     11  C   UNL     1      11.725  -6.392  -2.397  0.00  0.00    +0.055 A 
ATOM     12  O   UNL     1      12.145  -8.696  -2.846  0.00  0.00    -0.488 OA
ATOM     13  C   UNL     1      13.413  -9.313  -2.617  0.00  0.00    +0.232 C 
ATOM     14  C   UNL     1      13.999  -9.839  -3.917  0.00  0.00    +0.082 C 
ATOM     15  C   UNL     1      14.320  -8.724  -4.901  0.00  0.00    +0.232 C 
ATOM     16  O   UNL     1      13.127  -8.058  -5.319  0.00  0.00    -0.488 OA
ENDBRANCH   5   6
BRANCH   5  18
ATOM     17  C   UNL     1      11.941  -2.204  -0.284  0.00  0.00    +0.009 C 
ATOM     18  C   UNL     1      12.448  -3.310  -1.212  0.00  0.00    +0.008 C 
ATOM     19  C   UNL     1      13.220  -4.347  -0.394  0.00  0.00    +0.009 C 
ENDBRANCH   5  18
ENDBRANCH   1   5
BRANCH   2  20
ATOM     20  C   UNL     1       8.820  -1.206  -2.896  0.00  0.00    +0.201 C 
BRANCH  20  21
ATOM     21  N   UNL     1       7.863  -0.515  -2.029  0.00  0.00    -0.291 N 
ATOM     22  C   UNL     1       7.068   0.448  -2.536  0.00  0.00    +0.301 C 
ATOM     23  O   UNL     1       7.146   0.743  -3.713  0.00  0.00    -0.253 OA
ATOM     24  N   UNL     1       6.188   1.085  -1.739  0.00  0.00    -0.286 N 
ATOM     25  H   UNL     1       7.801  -0.750  -1.090  0.00  0.00    +0.151 HD
ATOM     26  H   UNL     1       6.126   0.850  -0.799  0.00  0.00    +0.151 HD
BRANCH  24  27
ATOM     27  CA  UNL     1       5.324   2.131  -2.290  0.00  0.00    +0.196 C 
BRANCH  27  28
ATOM     28  C   UNL     1       6.060   3.446  -2.283  0.00  0.00    +0.376 C 
ATOM     29  O   UNL     1       7.191   3.503  -1.860  0.00  0.00    -0.244 OA
ATOM     30  OXT UNL     1       5.460   4.554  -2.746  0.00  0.00    -0.244 OA
ENDBRANCH  27  28
BRANCH  27  31
ATOM     31  C   UNL     1       4.059   2.250  -1.437  0.00  0.00    +0.130 C 
BRANCH  31  32
ATOM     32  C   UNL     1       3.260   0.977  -1.543  0.00  0.00    +0.218 C 
ATOM     33  O   UNL     1       3.662   0.064  -2.233  0.00  0.00    -0.276 OA
ATOM     34  N   UNL     1       2.098   0.853  -0.871  0.00  0.00    -0.301 N 
ATOM     35  C   UNL     1       1.494   1.879  -0.002  0.00  0.00    +0.108 C 
ATOM     36  C   UNL     1      -0.019   1.547   0.011  0.00  0.00    +0.020 C 
ATOM     37  C   UNL     1       0.002  -0.004   0.002  0.00  0.00    +0.020 C 
ATOM     38  C   UNL     1       1.223  -0.328  -0.885  0.00  0.00    +0.108 C 
ENDBRANCH  31  32
ENDBRANCH  27  31
ENDBRANCH  24  27
ENDBRANCH  20  21
ENDBRANCH   2  20
TORSDOF 9
