REMARK  Name = ZINC08631626
REMARK  6 active torsions:
REMARK  status: ('A' for Active; 'I' for Inactive)
REMARK    1  A    between atoms: C_1  and  C_2
REMARK    2  A    between atoms: C_2  and  C_4
REMARK    3  A    between atoms: C_2  and  N_11
REMARK    4  A    between atoms: C_12  and  C_14
REMARK    5  A    between atoms: C_14  and  N_15
REMARK    6  A    between atoms: C_17  and  C_23
REMARK                            x       y       z     vdW  Elec       q    Type
REMARK                         _______ _______ _______ _____ _____    ______ ____
ROOT
ATOM      1  N   UNL     1       1.145  -3.965  -1.698  0.00  0.00    -0.307 N 
ATOM      2  C   UNL     1       1.155  -2.641  -1.445  0.00  0.00    +0.233 C 
ATOM      3  O   UNL     1       1.150  -1.848  -2.362  0.00  0.00    -0.274 OA
ATOM      4  H   UNL     1       1.148  -4.599  -0.965  0.00  0.00    +0.149 HD
ENDROOT
BRANCH   1   6
ATOM      5  C   UNL     1      -0.313  -4.486  -3.592  0.00  0.00    +0.033 C 
ATOM      6  C   UNL     1       1.129  -4.445  -3.082  0.00  0.00    +0.100 C 
BRANCH   6   7
ATOM      7  C   UNL     1       1.721  -5.830  -3.140  0.00  0.00    -0.027 A 
ATOM      8  C   UNL     1       1.437  -6.745  -2.144  0.00  0.00    +0.006 A 
ATOM      9  C   UNL     1       1.976  -8.017  -2.199  0.00  0.00    +0.015 A 
ATOM     10  C   UNL     1       2.809  -8.370  -3.246  0.00  0.00    +0.018 A 
ATOM     11  C   UNL     1       3.097  -7.452  -4.240  0.00  0.00    +0.015 A 
ATOM     12  C   UNL     1       2.553  -6.182  -4.186  0.00  0.00    +0.006 A 
ATOM     13 BR   UNL     1       3.553 -10.107  -3.318  0.00  0.00    -0.050 Br
ENDBRANCH   6   7
ENDBRANCH   1   6
BRANCH   2  14
ATOM     14  C   UNL     1       1.171  -2.147  -0.021  0.00  0.00    +0.220 C 
BRANCH  14  15
ATOM     15  N   UNL     1       1.179  -0.682  -0.013  0.00  0.00    -0.305 N 
ATOM     16  C   UNL     1       0.002  -0.004   0.002  0.00  0.00    +0.102 A 
ATOM     17  C   UNL     1      -0.016   1.349   0.009  0.00  0.00    +0.073 A 
ATOM     18  C   UNL     1       1.189   2.066   0.002  0.00  0.00    +0.039 A 
ATOM     19  C   UNL     1       2.370   1.384  -0.013  0.00  0.00    +0.106 A 
ATOM     20  C   UNL     1       2.353  -0.023  -0.021  0.00  0.00    +0.270 A 
ATOM     21  O   UNL     1       3.403  -0.646  -0.034  0.00  0.00    -0.266 OA
ATOM     22 CL   UNL     1       3.879   2.243  -0.024  0.00  0.00    -0.078 Cl
BRANCH  17  23
ATOM     23  C   UNL     1      -1.331   2.085   0.020  0.00  0.00    +0.419 C 
ATOM     24  F   UNL     1      -1.676   2.406   1.337  0.00  0.00    -0.166 F 
ATOM     25  F   UNL     1      -1.214   3.260  -0.731  0.00  0.00    -0.166 F 
ATOM     26  F   UNL     1      -2.325   1.273  -0.537  0.00  0.00    -0.166 F 
ENDBRANCH  17  23
ENDBRANCH  14  15
ENDBRANCH   2  14
TORSDOF 5
