REMARK  Name = ZINC62956819
REMARK  4 active torsions:
REMARK  status: ('A' for Active; 'I' for Inactive)
REMARK    1  A    between atoms: N_8  and  C_11
REMARK    2  A    between atoms: C_11  and  C_12
REMARK    3  A    between atoms: C_13  and  N_17
REMARK    4  A    between atoms: N_17  and  N_18
REMARK                            x       y       z     vdW  Elec       q    Type
REMARK                         _______ _______ _______ _____ _____    ______ ____
ROOT
ATOM      1  C   UNL     1      -0.019   1.536   0.011  0.00  0.00    +0.001 C 
ATOM      2  C   UNL     1       1.454   1.996  -0.001  0.00  0.00    +0.001 C 
ATOM      3  C   UNL     1       2.235   0.792   0.584  0.00  0.00    +0.007 C 
ATOM      4  C   UNL     1       1.482  -0.419  -0.004  0.00  0.00    -0.033 C 
ATOM      5  C   UNL     1       0.002  -0.004   0.002  0.00  0.00    +0.007 C 
ATOM      6  C   UNL     1       1.955  -0.690  -1.428  0.00  0.00    -0.012 C 
ATOM      7  C   UNL     1       3.417  -1.145  -1.397  0.00  0.00    -0.078 C 
ATOM      8  N   UNL     1       3.536  -2.358  -0.579  0.00  0.00    +0.384 N 
ATOM      9  C   UNL     1       3.168  -2.063   0.811  0.00  0.00    -0.078 C 
ATOM     10  C   UNL     1       1.696  -1.647   0.875  0.00  0.00    -0.012 C 
ATOM     11  H   UNL     1       2.921  -3.070  -0.944  0.00  0.00    -0.081 HD
ENDROOT
BRANCH   8  12
ATOM     12  C   UNL     1       4.922  -2.843  -0.625  0.00  0.00    -0.018 C 
BRANCH  12  13
ATOM     13  C   UNL     1       5.020  -4.154   0.112  0.00  0.00    +0.078 A 
ATOM     14  C   UNL     1       5.293  -4.210   1.449  0.00  0.00    +0.120 A 
ATOM     15  S   UNL     1       5.285  -5.867   1.737  0.00  0.00    +0.053 S 
ATOM     16  N   UNL     1       4.942  -6.398   0.185  0.00  0.00    -0.109 NA
ATOM     17  N   UNL     1       4.841  -5.306  -0.495  0.00  0.00    -0.146 NA
BRANCH  14  18
ATOM     18  N   UNL     1       5.521  -3.167   2.342  0.00  0.00    -0.275 N 
ATOM     19  H   UNL     1       5.495  -2.248   2.031  0.00  0.00    +0.167 HD
BRANCH  18  20
ATOM     20  N   UNL     1       5.782  -3.436   3.656  0.00  0.00    -0.256 NA
ATOM     21  H   UNL     1       6.573  -4.054   3.748  0.00  0.00    +0.140 HD
ATOM     22  H   UNL     1       5.925  -2.585   4.178  0.00  0.00    +0.140 HD
ENDBRANCH  18  20
ENDBRANCH  14  18
ENDBRANCH  12  13
ENDBRANCH   8  12
TORSDOF 4
