REMARK  Name = ZINC02778635
REMARK  6 active torsions:
REMARK  status: ('A' for Active; 'I' for Inactive)
REMARK    1  A    between atoms: C_1  and  C_2
REMARK    2  A    between atoms: C_10  and  C_14
REMARK    3  A    between atoms: N_17  and  N_18
REMARK    4  A    between atoms: C_19  and  C_21
REMARK    5  A    between atoms: C_23  and  C_27
REMARK    6  A    between atoms: N_25  and  C_26
REMARK                            x       y       z     vdW  Elec       q    Type
REMARK                         _______ _______ _______ _____ _____    ______ ____
ROOT
ATOM      1  C   UNL     1       2.654   1.736  -2.309  0.00  0.00    +0.088 C 
ATOM      2  C   UNL     1       3.139   1.165  -1.001  0.00  0.00    +0.129 A 
ATOM      3  N   UNL     1       4.298   0.565  -0.954  0.00  0.00    -0.225 NA
ATOM      4  C   UNL     1       4.755   0.050   0.184  0.00  0.00    +0.116 A 
ATOM      5  C   UNL     1       4.025   0.123   1.381  0.00  0.00    +0.077 A 
ATOM      6  C   UNL     1       4.652  -0.487   2.552  0.00  0.00    -0.023 A 
ATOM      7  C   UNL     1       5.862  -1.057   2.372  0.00  0.00    -0.004 A 
ATOM      8  S   UNL     1       6.231  -0.817   0.654  0.00  0.00    -0.073 S 
ATOM      9  C   UNL     1       6.706  -1.743   3.402  0.00  0.00    +0.046 C 
ATOM     10  C   UNL     1       5.829  -2.035   4.629  0.00  0.00    -0.009 C 
ATOM     11  C   UNL     1       5.050  -0.767   4.989  0.00  0.00    +0.008 C 
ATOM     12  C   UNL     1       3.987  -0.490   3.926  0.00  0.00    +0.037 C 
ATOM     13  C   UNL     1       6.715  -2.445   5.807  0.00  0.00    +0.008 C 
ATOM     14  C   UNL     1       2.761   0.794   1.296  0.00  0.00    +0.280 A 
ATOM     15  O   UNL     1       2.055   0.913   2.282  0.00  0.00    -0.265 OA
ATOM     16  N   UNL     1       2.363   1.284   0.107  0.00  0.00    -0.209 N 
ENDROOT
BRANCH  16  17
ATOM     17  N   UNL     1       1.127   1.935   0.012  0.00  0.00    -0.213 N 
ATOM     18  C   UNL     1      -0.015   1.219   0.017  0.00  0.00    +0.282 C 
ATOM     19  O   UNL     1       0.030   0.003   0.010  0.00  0.00    -0.267 OA
ATOM     20  H   UNL     1       1.087   3.032  -0.067  0.00  0.00    +0.176 HD
BRANCH  18  21
ATOM     21  C   UNL     1      -1.314   1.906   0.025  0.00  0.00    +0.143 A 
ATOM     22  C   UNL     1      -2.137   2.142  -1.064  0.00  0.00    +0.103 A 
ATOM     23  C   UNL     1      -3.247   2.818  -0.548  0.00  0.00    +0.184 A 
ATOM     24  N   UNL     1      -3.066   2.965   0.739  0.00  0.00    -0.165 NA
ATOM     25  N   UNL     1      -1.951   2.446   1.108  0.00  0.00    -0.260 N 
ATOM     26  C   UNL     1      -1.439   2.434   2.481  0.00  0.00    +0.173 C 
ATOM     27 CL   UNL     1      -1.853   1.692  -2.716  0.00  0.00    -0.079 Cl
BRANCH  23  28
ATOM     28  C   UNL     1      -4.439   3.298  -1.337  0.00  0.00    +0.437 C 
ATOM     29  F   UNL     1      -5.285   4.034  -0.501  0.00  0.00    -0.164 F 
ATOM     30  F   UNL     1      -4.004   4.110  -2.391  0.00  0.00    -0.164 F 
ATOM     31  F   UNL     1      -5.132   2.197  -1.851  0.00  0.00    -0.164 F 
ENDBRANCH  23  28
ENDBRANCH  18  21
ENDBRANCH  16  17
TORSDOF 3
