REMARK  Name = ZINC35746305
REMARK  12 active torsions:
REMARK  status: ('A' for Active; 'I' for Inactive)
REMARK    1  A    between atoms: C_1  and  C_2
REMARK    2  A    between atoms: C_2  and  C_3
REMARK    3  A    between atoms: C_3  and  C_5
REMARK    4  A    between atoms: C_3  and  O_30
REMARK    5  A    between atoms: C_5  and  N_6
REMARK    6  A    between atoms: N_6  and  C_7
REMARK    7  A    between atoms: N_6  and  C_26
REMARK    8  A    between atoms: C_7  and  C_8
REMARK    9  A    between atoms: C_14  and  C_19
REMARK   10  A    between atoms: C_26  and  C_27
REMARK   11  A    between atoms: C_27  and  C_28
REMARK   12  A    between atoms: C_27  and  C_29
REMARK                            x       y       z     vdW  Elec       q    Type
REMARK                         _______ _______ _______ _____ _____    ______ ____
ROOT
ATOM      1  C   UNL     1       1.928  -4.324   1.388  0.00  0.00    +0.094 A 
ATOM      2  N   UNL     1       2.083  -5.647   1.129  0.00  0.00    -0.312 N 
ATOM      3  H   UNL     1       1.754  -6.298   1.768  0.00  0.00    +0.170 HD
ATOM      4  C   UNL     1       2.683  -6.074   0.002  0.00  0.00    +0.260 A 
ATOM      5  O   UNL     1       2.814  -7.266  -0.216  0.00  0.00    -0.267 OA
ATOM      6  C   UNL     1       3.165  -5.106  -0.936  0.00  0.00    +0.080 A 
ATOM      7  C   UNL     1       3.840  -5.314  -2.212  0.00  0.00    +0.004 A 
ATOM      8  C   UNL     1       4.208  -4.231  -2.938  0.00  0.00    +0.056 A 
ATOM      9  S   UNL     1       3.663  -2.859  -1.939  0.00  0.00    -0.076 S 
ATOM     10  C   UNL     1       2.960  -3.762  -0.583  0.00  0.00    +0.116 A 
ATOM     11  N   UNL     1       2.352  -3.417   0.549  0.00  0.00    -0.229 NA
ENDROOT
BRANCH   7  12
ATOM     12  C   UNL     1       4.119  -6.684  -2.704  0.00  0.00    -0.015 A 
ATOM     13  C   UNL     1       4.731  -7.617  -1.868  0.00  0.00    +0.008 A 
ATOM     14  C   UNL     1       4.989  -8.891  -2.331  0.00  0.00    +0.002 A 
ATOM     15  C   UNL     1       4.641  -9.245  -3.622  0.00  0.00    +0.020 A 
ATOM     16  C   UNL     1       4.032  -8.323  -4.457  0.00  0.00    +0.042 A 
ATOM     17  C   UNL     1       3.764  -7.047  -4.002  0.00  0.00    +0.028 A 
ATOM     18 CL   UNL     1       3.599  -8.775  -6.077  0.00  0.00    -0.084 Cl
ENDBRANCH   7  12
BRANCH   1  19
ATOM     19  C   UNL     1       1.250  -3.893   2.663  0.00  0.00    -0.003 C 
BRANCH  19  20
ATOM     20  N   UNL     1       1.072  -2.435   2.655  0.00  0.00    +0.386 N 
ATOM     21  H   UNL     1       1.959  -1.989   2.473  0.00  0.00    -0.081 HD
BRANCH  20  22
ATOM     22  C   UNL     1       0.113  -2.064   1.605  0.00  0.00    -0.047 C 
BRANCH  22  23
ATOM     23  C   UNL     1       0.023  -0.539   1.513  0.00  0.00    +0.098 C 
BRANCH  23  25
ATOM     24  C   UNL     1      -1.242   1.367   0.508  0.00  0.00    +0.006 C 
ATOM     25  C   UNL     1      -1.065  -0.153   0.509  0.00  0.00    +0.026 C 
ENDBRANCH  23  25
BRANCH  23  26
ATOM     26  O   UNL     1       1.279  -0.013   1.081  0.00  0.00    -0.394 OA
ATOM     27  H   UNL     1       1.563  -0.334   0.214  0.00  0.00    +0.210 HD
ENDBRANCH  23  26
ENDBRANCH  22  23
ENDBRANCH  20  22
BRANCH  20  28
ATOM     28  C   UNL     1       0.563  -1.996   3.961  0.00  0.00    -0.075 C 
BRANCH  28  29
ATOM     29  C   UNL     1       1.616  -2.268   5.037  0.00  0.00    -0.034 C 
ATOM     30  C   UNL     1       2.874  -1.450   4.737  0.00  0.00    +0.005 C 
ATOM     31  C   UNL     1       1.062  -1.869   6.405  0.00  0.00    +0.005 C 
ENDBRANCH  28  29
ENDBRANCH  20  28
ENDBRANCH  19  20
ENDBRANCH   1  19
TORSDOF 9
