REMARK  Name = ZINC67422414
REMARK  11 active torsions:
REMARK  status: ('A' for Active; 'I' for Inactive)
REMARK    1  A    between atoms: C_1  and  C_2
REMARK    2  A    between atoms: C_5  and  C_8
REMARK    3  A    between atoms: C_13  and  N_16
REMARK    4  A    between atoms: N_19  and  C_20
REMARK    5  A    between atoms: N_19  and  C_24
REMARK    6  A    between atoms: C_20  and  C_21
REMARK    7  A    between atoms: C_21  and  O_22
REMARK    8  A    between atoms: O_22  and  C_23
REMARK    9  A    between atoms: C_24  and  C_25
REMARK   10  A    between atoms: C_25  and  C_26
REMARK   11  A    between atoms: C_25  and  C_27
REMARK                            x       y       z     vdW  Elec       q    Type
REMARK                         _______ _______ _______ _____ _____    ______ ____
ROOT
ATOM      1  C   UNL     1       0.059  -4.251  -0.021  0.00  0.00    +0.247 C 
ATOM      2  O   UNL     1       0.150  -3.039  -0.013  0.00  0.00    -0.270 OA
ATOM      3  N   UNL     1      -0.028  -4.929   1.140  0.00  0.00    -0.297 N 
ATOM      4  C   UNL     1      -0.149  -4.213   2.418  0.00  0.00    +0.110 C 
ATOM      5  C   UNL     1       0.951  -4.704   3.364  0.00  0.00    +0.041 C 
ATOM      6  C   UNL     1       0.869  -6.227   3.488  0.00  0.00    +0.077 C 
ATOM      7  C   UNL     1       1.094  -6.865   2.115  0.00  0.00    +0.041 C 
ATOM      8  C   UNL     1      -0.010  -6.398   1.153  0.00  0.00    +0.110 C 
ENDROOT
BRANCH   1  13
ATOM      9  C   UNL     1       0.000  -7.097  -5.023  0.00  0.00    +0.044 C 
ATOM     10  C   UNL     1       0.015  -6.352  -3.713  0.00  0.00    -0.050 A 
ATOM     11  C   UNL     1       0.886  -5.291  -3.534  0.00  0.00    +0.004 A 
ATOM     12  C   UNL     1       0.905  -4.604  -2.338  0.00  0.00    +0.013 A 
ATOM     13  C   UNL     1       0.044  -4.982  -1.306  0.00  0.00    +0.037 A 
ATOM     14  C   UNL     1      -0.832  -6.053  -1.493  0.00  0.00    +0.013 A 
ATOM     15  C   UNL     1      -0.845  -6.728  -2.697  0.00  0.00    +0.004 A 
ENDBRANCH   1  13
BRANCH   6  16
ATOM     16  N   UNL     1       1.899  -6.697   4.418  0.00  0.00    -0.296 N 
ATOM     17  C   UNL     1       1.732  -7.863   5.074  0.00  0.00    +0.302 C 
ATOM     18  O   UNL     1       0.728  -8.524   4.894  0.00  0.00    -0.253 OA
ATOM     19  N   UNL     1       2.679  -8.296   5.930  0.00  0.00    -0.283 N 
ATOM     20  H   UNL     1       2.700  -6.170   4.562  0.00  0.00    +0.151 HD
BRANCH  19  21
ATOM     21  C   UNL     1       2.498  -9.563   6.643  0.00  0.00    +0.137 C 
BRANCH  21  22
ATOM     22  C   UNL     1       3.090 -10.704   5.813  0.00  0.00    +0.178 C 
BRANCH  22  23
ATOM     23  O   UNL     1       4.505 -10.530   5.704  0.00  0.00    -0.381 OA
ATOM     24  C   UNL     1       5.159 -11.548   4.944  0.00  0.00    +0.194 C 
ENDBRANCH  22  23
ENDBRANCH  21  22
ENDBRANCH  19  21
BRANCH  19  25
ATOM     25  C   UNL     1       3.889  -7.499   6.148  0.00  0.00    +0.112 C 
BRANCH  25  26
ATOM     26  C   UNL     1       3.655  -6.521   7.301  0.00  0.00    +0.000 C 
ATOM     27  C   UNL     1       3.448  -7.305   8.599  0.00  0.00    +0.009 C 
ATOM     28  C   UNL     1       4.872  -5.605   7.448  0.00  0.00    +0.009 C 
ENDBRANCH  25  26
ENDBRANCH  19  25
ENDBRANCH   6  16
TORSDOF 7
