REMARK  Name = ZINC13561455
REMARK  13 active torsions:
REMARK  status: ('A' for Active; 'I' for Inactive)
REMARK    1  A    between atoms: C_1  and  C_2
REMARK    2  A    between atoms: C_2  and  C_3
REMARK    3  A    between atoms: C_3  and  C_4
REMARK    4  A    between atoms: C_3  and  C_5
REMARK    5  A    between atoms: C_3  and  N_6
REMARK    6  A    between atoms: C_7  and  C_9
REMARK    7  A    between atoms: C_9  and  C_11
REMARK    8  A    between atoms: C_9  and  N_17
REMARK    9  A    between atoms: C_18  and  C_20
REMARK   10  A    between atoms: C_20  and  C_22
REMARK   11  A    between atoms: C_20  and  N_31
REMARK   12  A    between atoms: C_22  and  C_24
REMARK   13  A    between atoms: C_22  and  C_25
REMARK                            x       y       z     vdW  Elec       q    Type
REMARK                         _______ _______ _______ _____ _____    ______ ____
ROOT
ATOM      1  N   UNL     1       0.730  -3.438  -2.478  0.00  0.00    -0.299 N 
ATOM      2  C   UNL     1       0.901  -3.985  -1.258  0.00  0.00    +0.239 C 
ATOM      3  O   UNL     1       1.245  -5.144  -1.157  0.00  0.00    -0.273 OA
ATOM      4  H   UNL     1       0.455  -2.511  -2.559  0.00  0.00    +0.150 HD
ENDROOT
BRANCH   1   5
ATOM      5  C   UNL     1       0.958  -4.242  -3.681  0.00  0.00    +0.191 C 
BRANCH   5   6
ATOM      6  C   UNL     1       2.423  -4.214  -4.033  0.00  0.00    -0.000 A 
ATOM      7  C   UNL     1       3.060  -5.361  -4.482  0.00  0.00    +0.009 A 
ATOM      8  C   UNL     1       4.408  -5.288  -4.795  0.00  0.00    +0.020 A 
ATOM      9  C   UNL     1       5.069  -4.083  -4.650  0.00  0.00    +0.111 A 
ATOM     10  N   UNL     1       4.431  -3.012  -4.220  0.00  0.00    -0.263 NA
ATOM     11  C   UNL     1       3.148  -3.043  -3.919  0.00  0.00    +0.116 A 
ENDBRANCH   5   6
BRANCH   5  13
ATOM     12  N   UNL     1       0.209  -4.258  -6.038  0.00  0.00    -0.308 N 
ATOM     13  C   UNL     1       0.155  -3.676  -4.824  0.00  0.00    +0.238 C 
ATOM     14  O   UNL     1      -0.539  -2.697  -4.651  0.00  0.00    -0.273 OA
ATOM     15  H   UNL     1       0.765  -5.041  -6.177  0.00  0.00    +0.149 HD
BRANCH  12  16
ATOM     16  C   UNL     1      -0.571  -3.708  -7.149  0.00  0.00    +0.029 C 
ATOM     17  C   UNL     1      -2.058  -3.737  -6.791  0.00  0.00    +0.031 C 
ATOM     18  C   UNL     1      -0.138  -2.264  -7.412  0.00  0.00    +0.031 C 
BRANCH  16  20
ATOM     19  C   UNL     1      -1.148  -3.974  -9.566  0.00  0.00    +0.006 C 
ATOM     20  C   UNL     1      -0.333  -4.548  -8.405  0.00  0.00    +0.022 C 
ENDBRANCH  16  20
ENDBRANCH  12  16
ENDBRANCH   5  13
ENDBRANCH   1   5
BRANCH   2  21
ATOM     21  C   UNL     1       0.666  -3.157  -0.021  0.00  0.00    +0.202 C 
BRANCH  21  22
ATOM     22  N   UNL     1       1.574  -2.007  -0.024  0.00  0.00    -0.231 N 
ATOM     23  C   UNL     1       1.218  -0.679  -0.013  0.00  0.00    +0.090 A 
ATOM     24  C   UNL     1       0.002  -0.004   0.002  0.00  0.00    +0.029 A 
ATOM     25  C   UNL     1      -0.017   1.362   0.009  0.00  0.00    +0.002 A 
ATOM     26  C   UNL     1       1.170   2.085   0.002  0.00  0.00    +0.002 A 
ATOM     27  C   UNL     1       2.375   1.447  -0.013  0.00  0.00    +0.032 A 
ATOM     28  C   UNL     1       2.422   0.047  -0.021  0.00  0.00    +0.113 A 
ATOM     29  N   UNL     1       3.435  -0.842  -0.035  0.00  0.00    -0.129 NA
ATOM     30  N   UNL     1       2.976  -2.043  -0.037  0.00  0.00    -0.064 NA
ENDBRANCH  21  22
BRANCH  21  31
ATOM     31  C   UNL     1       0.929  -4.011   1.221  0.00  0.00    +0.049 C 
ATOM     32  C   UNL     1       0.691  -3.171   2.477  0.00  0.00    +0.015 C 
BRANCH  31  33
ATOM     33  C   UNL     1      -0.004  -5.194   1.224  0.00  0.00    -0.042 A 
ATOM     34  C   UNL     1      -1.372  -4.996   1.243  0.00  0.00    +0.004 A 
ATOM     35  C   UNL     1      -2.228  -6.081   1.241  0.00  0.00    +0.000 A 
ATOM     36  C   UNL     1      -1.716  -7.365   1.229  0.00  0.00    +0.000 A 
ATOM     37  C   UNL     1      -0.348  -7.564   1.214  0.00  0.00    +0.000 A 
ATOM     38  C   UNL     1       0.508  -6.478   1.212  0.00  0.00    +0.004 A 
ENDBRANCH  31  33
ENDBRANCH  21  31
ENDBRANCH   2  21
TORSDOF 9
