REMARK  Name = ZINC65734037
REMARK  10 active torsions:
REMARK  status: ('A' for Active; 'I' for Inactive)
REMARK    1  A    between atoms: C_1  and  C_2
REMARK    2  A    between atoms: C_2  and  O_4
REMARK    3  A    between atoms: O_4  and  C_5
REMARK    4  A    between atoms: C_5  and  C_6
REMARK    5  A    between atoms: C_6  and  C_8
REMARK    6  A    between atoms: C_8  and  O_35
REMARK    7  A    between atoms: C_13  and  C_34
REMARK    8  A    between atoms: C_15  and  O_33
REMARK    9  A    between atoms: C_22  and  O_32
REMARK   10  A    between atoms: C_30  and  C_31
REMARK                            x       y       z     vdW  Elec       q    Type
REMARK                         _______ _______ _______ _____ _____    ______ ____
ROOT
ATOM      1  C   UNL     1      -2.532  -3.690  -1.972  0.00  0.00    +0.133 C 
ATOM      2  C   UNL     1      -1.873  -3.729  -0.570  0.00  0.00    +0.043 C 
ATOM      3  C   UNL     1      -2.886  -4.437   0.370  0.00  0.00    +0.008 C 
ATOM      4  C   UNL     1      -3.725  -5.277  -0.600  0.00  0.00    +0.002 C 
ATOM      5  C   UNL     1      -3.921  -4.288  -1.781  0.00  0.00    +0.009 C 
ATOM      6  C   UNL     1      -4.480  -5.086  -2.943  0.00  0.00    +0.041 C 
ATOM      7  C   UNL     1      -5.872  -5.585  -2.522  0.00  0.00    +0.119 C 
ATOM      8  C   UNL     1      -5.810  -6.420  -1.247  0.00  0.00    +0.031 C 
ATOM      9  C   UNL     1      -5.099  -5.684  -0.100  0.00  0.00    +0.002 C 
ATOM     10  C   UNL     1      -4.954  -6.626   1.099  0.00  0.00    +0.040 C 
ATOM     11  C   UNL     1      -6.343  -6.976   1.636  0.00  0.00    +0.141 C 
ATOM     12  C   UNL     1      -7.175  -7.550   0.504  0.00  0.00    -0.032 C 
ATOM     13  C   UNL     1      -7.834  -8.685   0.733  0.00  0.00    +0.048 C 
ATOM     14  C   UNL     1      -8.667  -9.277  -0.320  0.00  0.00    +0.156 C 
ATOM     15  O   UNL     1      -8.968 -10.452  -0.312  0.00  0.00    -0.293 OA
ATOM     16  C   UNL     1      -9.131  -8.342  -1.420  0.00  0.00    +0.080 C 
ATOM     17  C   UNL     1      -7.904  -7.580  -1.920  0.00  0.00    +0.019 C 
ATOM     18  C   UNL     1      -7.235  -6.784  -0.815  0.00  0.00    -0.002 C 
ATOM     19  C   UNL     1      -8.015  -5.483  -0.615  0.00  0.00    +0.016 C 
ATOM     20  C   UNL     1      -4.908  -3.190  -1.380  0.00  0.00    +0.015 C 
ENDROOT
BRANCH   1  21
ATOM     21  C   UNL     1      -2.638  -2.268  -2.459  0.00  0.00    +0.202 C 
ATOM     22  O   UNL     1      -2.655  -1.357  -1.666  0.00  0.00    -0.291 OA
BRANCH  21  23
ATOM     23  C   UNL     1      -2.724  -1.982  -3.937  0.00  0.00    +0.309 C 
BRANCH  23  24
ATOM     24  O   UNL     1      -2.817  -0.572  -4.144  0.00  0.00    -0.457 OA
BRANCH  24  26
ATOM     25  C   UNL     1      -3.001   1.327  -5.712  0.00  0.00    +0.136 C 
ATOM     26  C   UNL     1      -2.901  -0.147  -5.415  0.00  0.00    +0.304 C 
ATOM     27  O   UNL     1      -2.896  -0.947  -6.321  0.00  0.00    -0.251 OA
ENDBRANCH  24  26
ENDBRANCH  23  24
ENDBRANCH  21  23
ENDBRANCH   1  21
BRANCH  11  28
ATOM     28  O   UNL     1      -6.971  -5.797   2.144  0.00  0.00    -0.387 OA
ATOM     29  H   UNL     1      -7.857  -5.946   2.502  0.00  0.00    +0.210 HD
ENDBRANCH  11  28
BRANCH   7  30
ATOM     30  O   UNL     1      -6.723  -4.458  -2.300  0.00  0.00    -0.391 OA
ATOM     31  H   UNL     1      -6.840  -3.894  -3.076  0.00  0.00    +0.210 HD
ENDBRANCH   7  30
BRANCH   1  32
ATOM     32  O   UNL     1      -1.777  -4.475  -2.897  0.00  0.00    -0.380 OA
ATOM     33  H   UNL     1      -0.877  -4.153  -3.044  0.00  0.00    +0.211 HD
ENDBRANCH   1  32
TORSDOF 7
