REMARK  Name = ZINC66473915
REMARK  11 active torsions:
REMARK  status: ('A' for Active; 'I' for Inactive)
REMARK    1  A    between atoms: C_1  and  C_2
REMARK    2  A    between atoms: C_2  and  C_3
REMARK    3  A    between atoms: C_3  and  C_4
REMARK    4  A    between atoms: C_4  and  N_5
REMARK    5  A    between atoms: C_6  and  C_8
REMARK    6  A    between atoms: C_12  and  C_26
REMARK    7  A    between atoms: N_14  and  C_16
REMARK    8  A    between atoms: C_16  and  C_17
REMARK    9  A    between atoms: N_22  and  C_23
REMARK   10  A    between atoms: C_23  and  C_24
REMARK   11  A    between atoms: C_23  and  C_25
REMARK                            x       y       z     vdW  Elec       q    Type
REMARK                         _______ _______ _______ _____ _____    ______ ____
ROOT
ATOM      1  C   UNL     1       2.269  -4.308  -3.932  0.00  0.00    +0.058 C 
ATOM      2  C   UNL     1       1.528  -3.803  -5.173  0.00  0.00    +0.009 C 
ATOM      3  C   UNL     1       0.118  -4.400  -5.192  0.00  0.00    -0.015 C 
ATOM      4  C   UNL     1       0.216  -5.927  -5.156  0.00  0.00    -0.071 C 
ATOM      5  N   UNL     1       0.911  -6.347  -3.934  0.00  0.00    +0.388 N 
ATOM      6  C   UNL     1       2.288  -5.838  -3.942  0.00  0.00    -0.065 C 
ATOM      7  C   UNL     1      -1.191  -6.528  -5.174  0.00  0.00    -0.013 C 
ATOM      8  H   UNL     1       0.424  -5.983  -3.129  0.00  0.00    -0.081 HD
ENDROOT
BRANCH   1  10
ATOM      9  N   UNL     1       1.425  -2.500  -2.470  0.00  0.00    -0.315 N 
ATOM     10  C   UNL     1       1.564  -3.822  -2.692  0.00  0.00    +0.214 C 
ATOM     11  O   UNL     1       1.121  -4.620  -1.894  0.00  0.00    -0.276 OA
ATOM     12  H   UNL     1       1.779  -1.861  -3.109  0.00  0.00    +0.149 HD
BRANCH   9  13
ATOM     13  C   UNL     1       0.739  -2.027  -1.265  0.00  0.00    +0.104 C 
BRANCH  13  14
ATOM     14  C   UNL     1       0.718  -0.497  -1.257  0.00  0.00    +0.018 C 
BRANCH  14  16
ATOM     15  C   UNL     1      -0.019   1.526   0.010  0.00  0.00    +0.004 C 
ATOM     16  C   UNL     1       0.002  -0.004   0.002  0.00  0.00    -0.002 C 
ENDBRANCH  14  16
ENDBRANCH  13  14
ENDBRANCH   9  13
ENDBRANCH   1  10
BRANCH   5  17
ATOM     17  C   UNL     1       0.934  -7.815  -3.866  0.00  0.00    +0.019 C 
BRANCH  17  18
ATOM     18  C   UNL     1       1.537  -8.247  -2.554  0.00  0.00    +0.204 C 
ATOM     19  O   UNL     1       1.911  -7.416  -1.755  0.00  0.00    -0.277 OA
ATOM     20  N   UNL     1       1.661  -9.559  -2.269  0.00  0.00    -0.242 N 
ATOM     21  C   UNL     1       2.200  -9.946  -1.097  0.00  0.00    +0.306 C 
ATOM     22  O   UNL     1       2.575  -9.112  -0.295  0.00  0.00    -0.252 OA
ATOM     23  N   UNL     1       2.324 -11.257  -0.812  0.00  0.00    -0.297 N 
ATOM     24  H   UNL     1       1.362 -10.224  -2.909  0.00  0.00    +0.159 HD
ATOM     25  H   UNL     1       2.025 -11.923  -1.451  0.00  0.00    +0.151 HD
BRANCH  23  26
ATOM     26  C   UNL     1       2.911 -11.678   0.463  0.00  0.00    +0.068 C 
ATOM     27  C   UNL     1       1.826 -11.696   1.542  0.00  0.00    +0.027 C 
ATOM     28  C   UNL     1       3.505 -13.080   0.314  0.00  0.00    +0.027 C 
ENDBRANCH  23  26
ENDBRANCH  17  18
ENDBRANCH   5  17
TORSDOF 7
