REMARK  Name = ZINC39934458
REMARK  7 active torsions:
REMARK  status: ('A' for Active; 'I' for Inactive)
REMARK    1  A    between atoms: C_8  and  C_13
REMARK    2  A    between atoms: N_15  and  N_16
REMARK    3  A    between atoms: C_17  and  C_19
REMARK    4  A    between atoms: C_19  and  C_20
REMARK    5  A    between atoms: C_20  and  C_21
REMARK    6  A    between atoms: C_21  and  O_22
REMARK    7  A    between atoms: O_22  and  C_23
REMARK                            x       y       z     vdW  Elec       q    Type
REMARK                         _______ _______ _______ _____ _____    ______ ____
ROOT
ATOM      1  C   UNL     1       2.858  -3.571   1.172  0.00  0.00    +0.245 C 
ATOM      2  O   UNL     1       1.985  -3.566   2.014  0.00  0.00    -0.273 OA
ATOM      3  N   UNL     1       3.932  -4.372   1.318  0.00  0.00    -0.234 N 
ATOM      4  H   UNL     1       4.629  -4.376   0.644  0.00  0.00    +0.173 HD
ENDROOT
BRANCH   1  12
ATOM      5  C   UNL     1      -0.016   1.354   0.009  0.00  0.00    +0.001 A 
ATOM      6  C   UNL     1       1.165   2.097   0.002  0.00  0.00    +0.002 A 
ATOM      7  C   UNL     1       2.394   1.518  -0.013  0.00  0.00    +0.024 A 
ATOM      8  C   UNL     1       2.524   0.117  -0.021  0.00  0.00    +0.040 A 
ATOM      9  N   UNL     1       3.736  -0.439  -0.035  0.00  0.00    -0.284 N 
ATOM     10  C   UNL     1       3.929  -1.747  -0.045  0.00  0.00    +0.233 C 
ATOM     11  O   UNL     1       5.060  -2.197  -0.058  0.00  0.00    -0.274 OA
ATOM     12  C   UNL     1       2.741  -2.681  -0.039  0.00  0.00    +0.186 C 
ATOM     13  C   UNL     1       1.361  -2.054  -0.022  0.00  0.00    +0.005 C 
ATOM     14  C   UNL     1       1.294  -0.692  -0.014  0.00  0.00    -0.007 A 
ATOM     15  C   UNL     1       0.002  -0.004   0.002  0.00  0.00    +0.009 A 
ATOM     16  H   UNL     1       4.511   0.143  -0.039  0.00  0.00    +0.155 HD
ENDBRANCH   1  12
BRANCH   3  17
ATOM     17  N   UNL     1       4.040  -5.199   2.444  0.00  0.00    -0.234 N 
ATOM     18  C   UNL     1       5.114  -6.000   2.590  0.00  0.00    +0.229 C 
ATOM     19  O   UNL     1       5.987  -6.005   1.748  0.00  0.00    -0.274 OA
ATOM     20  H   UNL     1       3.343  -5.195   3.118  0.00  0.00    +0.173 HD
BRANCH  18  21
ATOM     21  C   UNL     1       5.231  -6.889   3.801  0.00  0.00    +0.100 C 
BRANCH  21  22
ATOM     22  C   UNL     1       6.534  -7.689   3.723  0.00  0.00    +0.050 C 
BRANCH  22  23
ATOM     23  C   UNL     1       6.652  -8.592   4.952  0.00  0.00    +0.229 C 
BRANCH  23  24
ATOM     24  O   UNL     1       7.869  -9.339   4.879  0.00  0.00    -0.490 OA
BRANCH  24  25
ATOM     25  C   UNL     1       8.129 -10.196   5.902  0.00  0.00    +0.139 A 
ATOM     26  C   UNL     1       7.230 -10.319   6.950  0.00  0.00    +0.048 A 
ATOM     27  C   UNL     1       7.496 -11.191   7.989  0.00  0.00    +0.023 A 
ATOM     28  C   UNL     1       8.659 -11.940   7.984  0.00  0.00    +0.043 A 
ATOM     29  C   UNL     1       9.558 -11.819   6.939  0.00  0.00    +0.043 A 
ATOM     30  C   UNL     1       9.293 -10.952   5.895  0.00  0.00    +0.084 A 
ATOM     31 CL   UNL     1      10.417 -10.805   4.580  0.00  0.00    -0.080 Cl
ATOM     32 CL   UNL     1       8.992 -13.034   9.290  0.00  0.00    -0.083 Cl
ENDBRANCH  24  25
ENDBRANCH  23  24
ENDBRANCH  22  23
ENDBRANCH  21  22
ENDBRANCH  18  21
ENDBRANCH   3  17
TORSDOF 7
