REMARK  Name = ZINC40322815
REMARK  13 active torsions:
REMARK  status: ('A' for Active; 'I' for Inactive)
REMARK    1  A    between atoms: C_1  and  C_2
REMARK    2  A    between atoms: C_5  and  S_8
REMARK    3  A    between atoms: S_8  and  C_11
REMARK    4  A    between atoms: C_14  and  C_16
REMARK    5  A    between atoms: N_18  and  C_19
REMARK    6  A    between atoms: C_19  and  C_20
REMARK    7  A    between atoms: C_20  and  C_22
REMARK    8  A    between atoms: C_20  and  N_31
REMARK    9  A    between atoms: C_25  and  N_28
REMARK   10  A    between atoms: N_28  and  C_29
REMARK   11  A    between atoms: N_28  and  C_30
REMARK   12  A    between atoms: N_31  and  C_32
REMARK   13  A    between atoms: N_31  and  C_33
REMARK                            x       y       z     vdW  Elec       q    Type
REMARK                         _______ _______ _______ _____ _____    ______ ____
ROOT
ATOM      1  C   UNL     1       6.248  -8.533  -3.000  0.00  0.00    +0.279 C 
ATOM      2  O   UNL     1       6.554  -7.856  -2.036  0.00  0.00    -0.267 OA
ATOM      3  N   UNL     1       5.788  -7.943  -4.120  0.00  0.00    -0.310 N 
ATOM      4  H   UNL     1       5.545  -8.483  -4.889  0.00  0.00    +0.149 HD
ENDROOT
BRANCH   1   8
ATOM      5  C   UNL     1       6.327 -12.107  -3.524  0.00  0.00    +0.246 A 
ATOM      6  C   UNL     1       6.794 -12.066  -2.257  0.00  0.00    +0.070 A 
ATOM      7  C   UNL     1       6.833 -10.716  -1.875  0.00  0.00    +0.056 A 
ATOM      8  C   UNL     1       6.382  -9.993  -2.942  0.00  0.00    +0.192 A 
ATOM      9  O   UNL     1       6.084 -10.856  -3.935  0.00  0.00    -0.433 OA
BRANCH   5  10
ATOM     10  S   UNL     1       6.084 -13.567  -4.481  0.00  0.00    +0.058 S 
ATOM     11  O   UNL     1       6.945 -14.558  -3.936  0.00  0.00    -0.161 OA
ATOM     12  O   UNL     1       6.143 -13.173  -5.845  0.00  0.00    -0.161 OA
BRANCH  10  17
ATOM     13  C   UNL     1       0.439 -15.445  -3.473  0.00  0.00    +0.044 C 
ATOM     14  C   UNL     1       1.849 -14.976  -3.724  0.00  0.00    -0.050 A 
ATOM     15  C   UNL     1       2.110 -14.095  -4.757  0.00  0.00    +0.005 A 
ATOM     16  C   UNL     1       3.404 -13.664  -4.988  0.00  0.00    +0.028 A 
ATOM     17  C   UNL     1       4.435 -14.115  -4.186  0.00  0.00    +0.097 A 
ATOM     18  C   UNL     1       4.174 -14.995  -3.153  0.00  0.00    +0.028 A 
ATOM     19  C   UNL     1       2.880 -15.423  -2.919  0.00  0.00    +0.005 A 
ENDBRANCH  10  17
ENDBRANCH   5  10
ENDBRANCH   1   8
BRANCH   3  20
ATOM     20  C   UNL     1       5.655  -6.485  -4.178  0.00  0.00    +0.094 C 
BRANCH  20  21
ATOM     21  C   UNL     1       5.238  -6.066  -5.590  0.00  0.00    -0.021 C 
BRANCH  21  22
ATOM     22  C   UNL     1       6.342  -6.401  -6.559  0.00  0.00    -0.059 A 
ATOM     23  C   UNL     1       7.441  -5.569  -6.668  0.00  0.00    +0.004 A 
ATOM     24  C   UNL     1       8.454  -5.873  -7.556  0.00  0.00    +0.023 A 
ATOM     25  C   UNL     1       8.369  -7.016  -8.340  0.00  0.00    +0.029 A 
ATOM     26  C   UNL     1       7.263  -7.850  -8.229  0.00  0.00    +0.023 A 
ATOM     27  C   UNL     1       6.256  -7.543  -7.335  0.00  0.00    +0.004 A 
BRANCH  25  28
ATOM     28  N   UNL     1       9.392  -7.327  -9.239  0.00  0.00    -0.336 N 
ATOM     29  C   UNL     1      10.556  -6.446  -9.356  0.00  0.00    +0.129 C 
ATOM     30  C   UNL     1       9.300  -8.533 -10.066  0.00  0.00    +0.129 C 
ENDBRANCH  25  28
ENDBRANCH  21  22
BRANCH  21  31
ATOM     31  N   UNL     1       4.985  -4.620  -5.617  0.00  0.00    +0.382 N 
ATOM     32  C   UNL     1       4.633  -4.210  -6.983  0.00  0.00    -0.096 C 
ATOM     33  C   UNL     1       3.875  -4.300  -4.709  0.00  0.00    -0.096 C 
ATOM     34  H   UNL     1       5.814  -4.127  -5.321  0.00  0.00    -0.082 HD
ENDBRANCH  21  31
ENDBRANCH  20  21
ENDBRANCH   3  20
TORSDOF 8
