REMARK  Name = ZINC13500159
REMARK  11 active torsions:
REMARK  status: ('A' for Active; 'I' for Inactive)
REMARK    1  A    between atoms: C_1  and  C_2
REMARK    2  A    between atoms: C_2  and  C_3
REMARK    3  A    between atoms: C_3  and  C_4
REMARK    4  A    between atoms: C_4  and  C_6
REMARK    5  A    between atoms: C_4  and  N_72
REMARK    6  A    between atoms: N_10  and  C_11
REMARK    7  A    between atoms: C_11  and  C_12
REMARK    8  A    between atoms: C_18  and  C_19
REMARK    9  A    between atoms: C_18  and  N_72
REMARK   10  A    between atoms: C_23  and  C_31
REMARK   11  A    between atoms: C_32  and  N_72
REMARK                            x       y       z     vdW  Elec       q    Type
REMARK                         _______ _______ _______ _____ _____    ______ ____
ROOT
ATOM      1  N   UNL     1       5.065   2.216  -2.418  0.00  0.00    +0.391 N 
ATOM      2  H   UNL     1       5.154   2.509  -3.398  0.00  0.00    -0.080 HD
ENDROOT
BRANCH   1   3
ATOM      3  C   UNL     1       5.660   3.255  -1.551  0.00  0.00    -0.067 C 
ATOM      4  C   UNL     1       4.637   4.368  -1.317  0.00  0.00    -0.015 C 
ATOM      5  C   UNL     1       5.260   5.458  -0.443  0.00  0.00    -0.002 C 
ATOM      6  C   UNL     1       6.490   6.035  -1.146  0.00  0.00    -0.000 C 
ATOM      7  C   UNL     1       7.513   4.922  -1.380  0.00  0.00    -0.002 C 
ATOM      8  C   UNL     1       6.891   3.832  -2.254  0.00  0.00    -0.015 C 
ENDBRANCH   1   3
BRANCH   1   9
ATOM      9  C   UNL     1       3.632   2.050  -2.096  0.00  0.00    +0.003 C 
BRANCH   9  10
ATOM     10  C   UNL     1       2.940   1.432  -3.283  0.00  0.00    +0.138 A 
ATOM     11  N   UNL     1       3.316   0.362  -3.940  0.00  0.00    -0.115 NA
ATOM     12  N   UNL     1       2.469   0.159  -4.889  0.00  0.00    -0.023 NA
ATOM     13  N   UNL     1       1.559   1.069  -4.852  0.00  0.00    -0.044 NA
ATOM     14  N   UNL     1       1.812   1.871  -3.874  0.00  0.00    -0.226 N 
BRANCH  14  15
ATOM     15  C   UNL     1       1.025   3.043  -3.483  0.00  0.00    +0.182 C 
BRANCH  15  16
ATOM     16  C   UNL     1      -0.023   2.632  -2.481  0.00  0.00    -0.026 A 
ATOM     17  C   UNL     1       0.264   2.662  -1.129  0.00  0.00    +0.005 A 
ATOM     18  C   UNL     1      -0.698   2.285  -0.210  0.00  0.00    +0.000 A 
ATOM     19  C   UNL     1      -1.944   1.873  -0.643  0.00  0.00    +0.000 A 
ATOM     20  C   UNL     1      -2.233   1.849  -1.995  0.00  0.00    +0.000 A 
ATOM     21  C   UNL     1      -1.272   2.226  -2.914  0.00  0.00    +0.005 A 
ENDBRANCH  15  16
ENDBRANCH  14  15
ENDBRANCH   9  10
BRANCH   9  22
ATOM     22  C   UNL     1       3.461   1.141  -0.876  0.00  0.00    -0.008 C 
BRANCH  22  24
ATOM     23  C   UNL     1       3.703   1.006   1.607  0.00  0.00    +0.004 C 
ATOM     24  C   UNL     1       4.011   1.845   0.365  0.00  0.00    -0.005 C 
ENDBRANCH  22  24
ENDBRANCH   9  22
ENDBRANCH   1   9
BRANCH   1  25
ATOM     25  C   UNL     1       5.777   0.934  -2.233  0.00  0.00    -0.036 C 
BRANCH  25  26
ATOM     26  C   UNL     1       7.106   1.013  -2.939  0.00  0.00    +0.001 A 
ATOM     27  C   UNL     1       8.251   1.093  -2.217  0.00  0.00    +0.017 A 
ATOM     28  C   UNL     1       9.525   1.168  -2.934  0.00  0.00    -0.001 A 
ATOM     29  C   UNL     1      10.739   1.252  -2.244  0.00  0.00    +0.013 A 
ATOM     30  C   UNL     1      11.912   1.320  -2.942  0.00  0.00    -0.050 A 
ATOM     31  C   UNL     1      11.909   1.307  -4.330  0.00  0.00    +0.005 A 
ATOM     32  C   UNL     1      10.725   1.225  -5.030  0.00  0.00    +0.026 A 
ATOM     33  C   UNL     1       9.519   1.155  -4.341  0.00  0.00    +0.049 A 
ATOM     34  N   UNL     1       8.320   1.072  -5.016  0.00  0.00    -0.322 N 
ATOM     35  H   UNL     1       8.317   1.063  -5.986  0.00  0.00    +0.169 HD
ATOM     36  C   UNL     1       7.155   0.998  -4.350  0.00  0.00    +0.251 A 
ATOM     37  O   UNL     1       6.114   0.920  -4.979  0.00  0.00    -0.268 OA
ATOM     38  C   UNL     1      13.219   1.410  -2.198  0.00  0.00    +0.044 C 
ENDBRANCH  25  26
ENDBRANCH   1  25
TORSDOF 9
