REMARK  Name = ZINC38614983
REMARK  14 active torsions:
REMARK  status: ('A' for Active; 'I' for Inactive)
REMARK    1  A    between atoms: C_1  and  C_2
REMARK    2  A    between atoms: C_2  and  C_4
REMARK    3  A    between atoms: C_2  and  O_24
REMARK    4  A    between atoms: N_6  and  C_7
REMARK    5  A    between atoms: C_7  and  C_8
REMARK    6  A    between atoms: C_8  and  C_10
REMARK    7  A    between atoms: C_8  and  N_18
REMARK    8  A    between atoms: C_13  and  O_16
REMARK    9  A    between atoms: O_16  and  C_17
REMARK   10  A    between atoms: O_24  and  C_25
REMARK   11  A    between atoms: C_28  and  C_31
REMARK   12  A    between atoms: C_31  and  C_32
REMARK   13  A    between atoms: C_31  and  C_33
REMARK   14  A    between atoms: C_31  and  C_34
REMARK                            x       y       z     vdW  Elec       q    Type
REMARK                         _______ _______ _______ _____ _____    ______ ____
ROOT
ATOM      1  C   UNL     1       0.514  -0.896  -1.641  0.00  0.00    +0.253 C 
ATOM      2  O   UNL     1       0.008  -1.353  -2.643  0.00  0.00    -0.272 OA
ATOM      3  N   UNL     1       1.821  -0.564  -1.637  0.00  0.00    -0.314 N 
ATOM      4  H   UNL     1       2.226  -0.199  -0.835  0.00  0.00    +0.149 HD
ENDROOT
BRANCH   1   6
ATOM      5  C   UNL     1      -0.416   0.795  -0.084  0.00  0.00    +0.062 C 
ATOM      6  C   UNL     1      -0.317  -0.699  -0.399  0.00  0.00    +0.255 C 
BRANCH   6   7
ATOM      7  O   UNL     1      -1.627  -1.228  -0.614  0.00  0.00    -0.480 OA
BRANCH   7   8
ATOM      8  C   UNL     1      -2.260  -1.764   0.462  0.00  0.00    +0.122 A 
ATOM      9  C   UNL     1      -3.483  -2.400   0.303  0.00  0.00    +0.046 A 
ATOM     10  C   UNL     1      -4.124  -2.945   1.399  0.00  0.00    +0.008 A 
ATOM     11  C   UNL     1      -3.548  -2.857   2.653  0.00  0.00    -0.042 A 
ATOM     12  C   UNL     1      -2.330  -2.223   2.814  0.00  0.00    +0.008 A 
ATOM     13  C   UNL     1      -1.682  -1.682   1.720  0.00  0.00    +0.046 A 
BRANCH  11  14
ATOM     14  C   UNL     1      -4.250  -3.452   3.846  0.00  0.00    -0.013 C 
ATOM     15  C   UNL     1      -4.439  -4.955   3.630  0.00  0.00    +0.015 C 
ATOM     16  C   UNL     1      -3.408  -3.219   5.102  0.00  0.00    +0.015 C 
ATOM     17  C   UNL     1      -5.617  -2.786   4.018  0.00  0.00    +0.015 C 
ENDBRANCH  11  14
ENDBRANCH   7   8
ENDBRANCH   6   7
ENDBRANCH   1   6
BRANCH   3  18
ATOM     18  C   UNL     1       2.629  -0.756  -2.844  0.00  0.00    +0.093 C 
BRANCH  18  19
ATOM     19  C   UNL     1       4.090  -0.423  -2.537  0.00  0.00    -0.020 C 
BRANCH  19  20
ATOM     20  N   UNL     1       4.890  -0.553  -3.762  0.00  0.00    +0.385 N 
ATOM     21  C   UNL     1       6.280  -0.174  -3.481  0.00  0.00    -0.078 C 
ATOM     22  C   UNL     1       7.134  -0.385  -4.733  0.00  0.00    -0.019 C 
ATOM     23  C   UNL     1       6.587   0.484  -5.869  0.00  0.00    -0.004 C 
ATOM     24  C   UNL     1       5.115   0.132  -6.104  0.00  0.00    -0.019 C 
ATOM     25  C   UNL     1       4.336   0.323  -4.801  0.00  0.00    -0.078 C 
ATOM     26  H   UNL     1       4.862  -1.510  -4.081  0.00  0.00    -0.081 HD
ENDBRANCH  19  20
BRANCH  19  27
ATOM     27  C   UNL     1       4.614  -1.375  -1.492  0.00  0.00    -0.059 A 
ATOM     28  C   UNL     1       5.021  -2.644  -1.858  0.00  0.00    +0.005 A 
ATOM     29  C   UNL     1       5.501  -3.519  -0.902  0.00  0.00    +0.046 A 
ATOM     30  C   UNL     1       5.574  -3.122   0.425  0.00  0.00    +0.120 A 
ATOM     31  C   UNL     1       5.166  -1.847   0.789  0.00  0.00    +0.046 A 
ATOM     32  C   UNL     1       4.692  -0.975  -0.171  0.00  0.00    +0.005 A 
BRANCH  30  33
ATOM     33  O   UNL     1       6.046  -3.981   1.367  0.00  0.00    -0.495 OA
ATOM     34  C   UNL     1       6.093  -3.504   2.714  0.00  0.00    +0.277 C 
ENDBRANCH  30  33
ENDBRANCH  19  27
ENDBRANCH  18  19
ENDBRANCH   3  18
TORSDOF 9
