REMARK  Name = ZINC21260322
REMARK  10 active torsions:
REMARK  status: ('A' for Active; 'I' for Inactive)
REMARK    1  A    between atoms: C_1  and  C_2
REMARK    2  A    between atoms: C_2  and  C_3
REMARK    3  A    between atoms: C_6  and  C_9
REMARK    4  A    between atoms: C_14  and  C_24
REMARK    5  A    between atoms: C_27  and  O_34
REMARK    6  A    between atoms: C_28  and  O_32
REMARK    7  A    between atoms: C_29  and  O_30
REMARK    8  A    between atoms: O_30  and  C_31
REMARK    9  A    between atoms: O_32  and  C_33
REMARK   10  A    between atoms: O_34  and  C_35
REMARK                            x       y       z     vdW  Elec       q    Type
REMARK                         _______ _______ _______ _____ _____    ______ ____
ROOT
ATOM      1  C   UNL     1      -1.224   2.286  -0.425  0.00  0.00    +0.032 C 
ATOM      2  C   UNL     1      -1.268   3.049   0.898  0.00  0.00    +0.059 C 
ATOM      3  C   UNL     1      -2.614   3.736   1.056  0.00  0.00    +0.017 C 
ATOM      4  C   UNL     1      -3.279   4.187  -0.022  0.00  0.00    +0.037 C 
ATOM      5  C   UNL     1      -4.616   4.888  -0.009  0.00  0.00    +0.140 C 
ATOM      6  N   UNL     1      -5.065   5.301   1.304  0.00  0.00    -0.331 N 
ATOM      7  C   UNL     1      -5.362   4.361   2.290  0.00  0.00    +0.049 A 
ATOM      8  C   UNL     1      -6.659   4.169   2.737  0.00  0.00    +0.025 A 
ATOM      9  C   UNL     1      -6.925   3.148   3.634  0.00  0.00    +0.002 A 
ATOM     10  C   UNL     1      -5.905   2.327   4.082  0.00  0.00    +0.002 A 
ATOM     11  C   UNL     1      -4.605   2.531   3.653  0.00  0.00    +0.025 A 
ATOM     12  C   UNL     1      -4.335   3.562   2.770  0.00  0.00    +0.052 A 
ATOM     13  N   UNL     1      -3.047   3.853   2.336  0.00  0.00    -0.316 N 
ATOM     14  C   UNL     1      -2.739   4.010  -1.318  0.00  0.00    +0.163 C 
ATOM     15  O   UNL     1      -3.349   4.449  -2.272  0.00  0.00    -0.292 OA
ATOM     16  C   UNL     1      -1.440   3.299  -1.555  0.00  0.00    +0.088 C 
ATOM     17  H   UNL     1      -5.176   6.370   1.536  0.00  0.00    +0.147 HD
ATOM     18  H   UNL     1      -2.358   4.201   3.120  0.00  0.00    +0.152 HD
ENDROOT
BRANCH   1  22
ATOM     19  C   UNL     1       2.579   0.399  -0.894  0.00  0.00    -0.048 A 
ATOM     20  C   UNL     1       1.428  -0.365  -0.865  0.00  0.00    +0.004 A 
ATOM     21  C   UNL     1       0.197   0.245  -0.712  0.00  0.00    +0.004 A 
ATOM     22  C   UNL     1       0.118   1.620  -0.586  0.00  0.00    -0.043 A 
ATOM     23  C   UNL     1       1.270   2.383  -0.614  0.00  0.00    +0.004 A 
ATOM     24  C   UNL     1       2.501   1.773  -0.769  0.00  0.00    +0.004 A 
BRANCH  19  26
ATOM     25  C   UNL     1       4.257  -0.368  -2.551  0.00  0.00    +0.009 C 
ATOM     26  C   UNL     1       3.921  -0.267  -1.062  0.00  0.00    +0.032 C 
ENDBRANCH  19  26
ENDBRANCH   1  22
BRANCH   5  27
ATOM     27  C   UNL     1      -5.646   3.957  -0.595  0.00  0.00    +0.023 A 
ATOM     28  C   UNL     1      -5.414   2.594  -0.612  0.00  0.00    +0.013 A 
ATOM     29  C   UNL     1      -6.355   1.736  -1.148  0.00  0.00    +0.050 A 
ATOM     30  C   UNL     1      -7.537   2.239  -1.671  0.00  0.00    +0.165 A 
ATOM     31  C   UNL     1      -7.774   3.608  -1.655  0.00  0.00    +0.204 A 
ATOM     32  C   UNL     1      -6.827   4.468  -1.111  0.00  0.00    +0.170 A 
BRANCH  32  33
ATOM     33  O   UNL     1      -7.056   5.808  -1.089  0.00  0.00    -0.491 OA
ATOM     34  C   UNL     1      -6.723   6.543  -2.268  0.00  0.00    +0.277 C 
ENDBRANCH  32  33
BRANCH  31  35
ATOM     35  O   UNL     1      -8.933   4.106  -2.167  0.00  0.00    -0.488 OA
ATOM     36  C   UNL     1     -10.037   4.235  -1.269  0.00  0.00    +0.277 C 
ENDBRANCH  31  35
BRANCH  30  37
ATOM     37  O   UNL     1      -8.463   1.394  -2.199  0.00  0.00    -0.491 OA
ATOM     38  C   UNL     1      -8.152  -0.001  -2.182  0.00  0.00    +0.277 C 
ENDBRANCH  30  37
ENDBRANCH   5  27
TORSDOF 6
