REMARK  Name = ZINC39978169
REMARK  6 active torsions:
REMARK  status: ('A' for Active; 'I' for Inactive)
REMARK    1  A    between atoms: C_1  and  O_2
REMARK    2  A    between atoms: O_2  and  C_3
REMARK    3  A    between atoms: C_10  and  N_24
REMARK    4  A    between atoms: C_11  and  N_13
REMARK    5  A    between atoms: N_13  and  S_14
REMARK    6  A    between atoms: S_14  and  C_17
REMARK                            x       y       z     vdW  Elec       q    Type
REMARK                         _______ _______ _______ _____ _____    ______ ____
ROOT
ATOM      1  C   UNL     1      -1.395  -0.718  -1.335  0.00  0.00    +0.122 A 
ATOM      2  C   UNL     1      -2.529   0.061  -1.072  0.00  0.00    +0.048 A 
ATOM      3  C   UNL     1      -3.694  -0.496  -0.645  0.00  0.00    +0.033 A 
ATOM      4  C   UNL     1      -3.774  -1.887  -0.459  0.00  0.00    +0.092 A 
ATOM      5  C   UNL     1      -2.588  -2.708  -0.734  0.00  0.00    +0.095 A 
ATOM      6  C   UNL     1      -1.410  -2.072  -1.180  0.00  0.00    +0.075 A 
ATOM      7  N   UNL     1      -2.637  -4.024  -0.567  0.00  0.00    -0.225 NA
ATOM      8  C   UNL     1      -3.766  -4.595  -0.150  0.00  0.00    +0.174 A 
ATOM      9  C   UNL     1      -4.951  -3.773   0.123  0.00  0.00    +0.181 A 
ATOM     10  N   UNL     1      -4.904  -2.464  -0.041  0.00  0.00    -0.226 NA
ENDROOT
BRANCH   8  11
ATOM     11  N   UNL     1      -3.821  -5.923   0.020  0.00  0.00    -0.337 N 
ATOM     12  C   UNL     1      -2.718  -6.651  -0.089  0.00  0.00    +0.043 C 
ATOM     13  C   UNL     1      -1.407  -5.997  -0.091  0.00  0.00    +0.028 C 
ATOM     14  C   UNL     1      -0.276  -6.728  -0.201  0.00  0.00    +0.032 C 
ATOM     15  C   UNL     1      -0.347  -8.134  -0.316  0.00  0.00    +0.095 C 
ATOM     16  N   UNL     1       0.555  -9.104  -0.437  0.00  0.00    -0.190 NA
ATOM     17  C   UNL     1      -0.072 -10.277  -0.509  0.00  0.00    +0.369 C 
ATOM     18  O   UNL     1       0.556 -11.472  -0.636  0.00  0.00    -0.243 OA
ATOM     19  N   UNL     1      -1.379 -10.131  -0.440  0.00  0.00    -0.190 NA
ATOM     20  C   UNL     1      -1.654  -8.807  -0.316  0.00  0.00    +0.097 C 
ATOM     21  C   UNL     1      -2.808  -8.064  -0.198  0.00  0.00    +0.055 C 
ATOM     22  H   UNL     1      -4.667  -6.352   0.222  0.00  0.00    +0.167 HD
ENDBRANCH   8  11
BRANCH   1  24
ATOM     23  C   UNL     1      -0.295   1.310  -1.906  0.00  0.00    +0.277 C 
ATOM     24  O   UNL     1      -0.257  -0.111  -1.760  0.00  0.00    -0.495 OA
ENDBRANCH   1  24
BRANCH   9  25
ATOM     25  N   UNL     1      -6.115  -4.370   0.554  0.00  0.00    -0.197 N 
ATOM     26  H   UNL     1      -6.151  -5.332   0.675  0.00  0.00    +0.175 HD
BRANCH  25  27
ATOM     27  S   UNL     1      -7.454  -3.446   0.863  0.00  0.00    +0.074 S 
ATOM     28  O   UNL     1      -8.484  -4.342   1.258  0.00  0.00    -0.150 OA
ATOM     29  O   UNL     1      -7.024  -2.371   1.687  0.00  0.00    -0.150 OA
BRANCH  27  30
ATOM     30  C   UNL     1      -7.962  -2.736  -0.667  0.00  0.00    +0.109 A 
ATOM     31  C   UNL     1      -7.455  -1.513  -1.064  0.00  0.00    +0.030 A 
ATOM     32  C   UNL     1      -7.854  -0.956  -2.264  0.00  0.00    +0.022 A 
ATOM     33  C   UNL     1      -8.760  -1.622  -3.069  0.00  0.00    +0.041 A 
ATOM     34  C   UNL     1      -9.267  -2.847  -2.671  0.00  0.00    +0.022 A 
ATOM     35  C   UNL     1      -8.864  -3.406  -1.474  0.00  0.00    +0.030 A 
ATOM     36 CL   UNL     1      -9.262  -0.923  -4.577  0.00  0.00    -0.084 Cl
ENDBRANCH  27  30
ENDBRANCH  25  27
ENDBRANCH   9  25
TORSDOF 5
