REMARK  Name = ZINC08845534
REMARK  6 active torsions:
REMARK  status: ('A' for Active; 'I' for Inactive)
REMARK    1  A    between atoms: C_1  and  C_2
REMARK    2  A    between atoms: C_2  and  C_3
REMARK    3  A    between atoms: C_6  and  C_9
REMARK    4  A    between atoms: C_12  and  C_21
REMARK    5  A    between atoms: N_19  and  C_20
REMARK    6  A    between atoms: C_26  and  O_27
REMARK                            x       y       z     vdW  Elec       q    Type
REMARK                         _______ _______ _______ _____ _____    ______ ____
ROOT
ATOM      1  C   UNL     1       2.397  -1.629   4.548  0.00  0.00    +0.141 C 
ATOM      2  C   UNL     1       2.965  -0.644   5.533  0.00  0.00    +0.035 A 
ATOM      3  C   UNL     1       3.819   0.442   5.756  0.00  0.00    +0.102 A 
ATOM      4  N   UNL     1       3.740   0.749   7.036  0.00  0.00    -0.173 NA
ATOM      5  N   UNL     1       2.922  -0.036   7.643  0.00  0.00    -0.272 N 
ATOM      6  H   UNL     1       2.708   0.006   8.588  0.00  0.00    +0.189 HD
ATOM      7  C   UNL     1       2.398  -0.936   6.759  0.00  0.00    +0.126 A 
ATOM      8  C   UNL     1       1.487  -2.073   6.592  0.00  0.00    +0.265 C 
ATOM      9  O   UNL     1       0.831  -2.574   7.486  0.00  0.00    -0.268 OA
ATOM     10  N   UNL     1       1.479  -2.485   5.310  0.00  0.00    -0.288 N 
ATOM     11  C   UNL     1       0.690  -3.594   4.768  0.00  0.00    +0.133 C 
ENDROOT
BRANCH   1  15
ATOM     12  C   UNL     1       0.272   0.435   1.470  0.00  0.00    -0.048 A 
ATOM     13  C   UNL     1      -0.225   0.417   2.760  0.00  0.00    +0.004 A 
ATOM     14  C   UNL     1       0.463  -0.251   3.756  0.00  0.00    +0.006 A 
ATOM     15  C   UNL     1       1.647  -0.901   3.462  0.00  0.00    -0.022 A 
ATOM     16  C   UNL     1       2.143  -0.884   2.172  0.00  0.00    +0.006 A 
ATOM     17  C   UNL     1       1.453  -0.220   1.175  0.00  0.00    +0.004 A 
BRANCH  12  19
ATOM     18  C   UNL     1      -1.471   0.207  -0.279  0.00  0.00    +0.009 C 
ATOM     19  C   UNL     1      -0.477   1.163   0.384  0.00  0.00    +0.032 C 
ENDBRANCH  12  19
ENDBRANCH   1  15
BRANCH   3  20
ATOM     20  C   UNL     1       4.658   1.123   4.739  0.00  0.00    +0.044 A 
ATOM     21  C   UNL     1       4.738   0.616   3.445  0.00  0.00    +0.014 A 
ATOM     22  C   UNL     1       5.521   1.253   2.503  0.00  0.00    +0.001 A 
ATOM     23  C   UNL     1       6.226   2.394   2.840  0.00  0.00    +0.004 A 
ATOM     24  C   UNL     1       6.154   2.905   4.122  0.00  0.00    +0.046 A 
ATOM     25  C   UNL     1       5.368   2.279   5.075  0.00  0.00    +0.126 A 
BRANCH  25  26
ATOM     26  O   UNL     1       5.291   2.784   6.334  0.00  0.00    -0.506 OA
ATOM     27  H   UNL     1       5.960   2.437   6.939  0.00  0.00    +0.292 HD
ENDBRANCH  25  26
ENDBRANCH   3  20
TORSDOF 4
