REMARK  Name = ZINC11685172
REMARK  10 active torsions:
REMARK  status: ('A' for Active; 'I' for Inactive)
REMARK    1  A    between atoms: C_1  and  C_2
REMARK    2  A    between atoms: C_2  and  C_4
REMARK    3  A    between atoms: C_2  and  O_14
REMARK    4  A    between atoms: N_6  and  C_7
REMARK    5  A    between atoms: O_14  and  C_15
REMARK    6  A    between atoms: C_15  and  C_17
REMARK    7  A    between atoms: C_22  and  S_23
REMARK    8  A    between atoms: S_23  and  C_24
REMARK    9  A    between atoms: C_24  and  C_25
REMARK   10  A    between atoms: N_27  and  C_28
REMARK                            x       y       z     vdW  Elec       q    Type
REMARK                         _______ _______ _______ _____ _____    ______ ____
ROOT
ATOM      1  C   UNL     1       9.123  -4.324   5.967  0.00  0.00    +0.072 A 
ATOM      2  C   UNL     1      10.362  -4.170   6.596  0.00  0.00    +0.016 A 
ATOM      3  C   UNL     1      11.013  -2.958   6.544  0.00  0.00    +0.001 A 
ATOM      4  C   UNL     1      10.446  -1.885   5.872  0.00  0.00    +0.001 A 
ATOM      5  C   UNL     1       9.227  -2.021   5.242  0.00  0.00    +0.015 A 
ATOM      6  C   UNL     1       8.551  -3.235   5.287  0.00  0.00    +0.022 A 
ENDROOT
BRANCH   1   7
ATOM      7  C   UNL     1       8.421  -5.617   6.017  0.00  0.00    +0.341 C 
ATOM      8  O   UNL     1       7.345  -5.746   5.469  0.00  0.00    -0.245 OA
BRANCH   7   9
ATOM      9  O   UNL     1       8.974  -6.658   6.671  0.00  0.00    -0.449 OA
BRANCH   9  11
ATOM     10  C   UNL     1       7.298  -7.932   7.895  0.00  0.00    +0.062 C 
ATOM     11  C   UNL     1       8.226  -7.903   6.680  0.00  0.00    +0.259 C 
BRANCH  11  12
ATOM     12  C   UNL     1       9.185  -9.064   6.752  0.00  0.00    +0.258 C 
ATOM     13  O   UNL     1      10.373  -8.862   6.883  0.00  0.00    -0.271 OA
ATOM     14  N   UNL     1       8.721 -10.327   6.670  0.00  0.00    -0.280 N 
ATOM     15  H   UNL     1       7.782 -10.488   6.488  0.00  0.00    +0.155 HD
BRANCH  14  16
ATOM     16  C   UNL     1       9.595 -11.407   6.848  0.00  0.00    +0.069 A 
ATOM     17  C   UNL     1      10.793 -11.227   7.525  0.00  0.00    +0.026 A 
ATOM     18  C   UNL     1      11.651 -12.295   7.704  0.00  0.00    +0.002 A 
ATOM     19  C   UNL     1      11.322 -13.541   7.200  0.00  0.00    +0.003 A 
ATOM     20  C   UNL     1      10.132 -13.723   6.521  0.00  0.00    +0.040 A 
ATOM     21  C   UNL     1       9.266 -12.660   6.343  0.00  0.00    +0.144 A 
ATOM     22  F   UNL     1       8.103 -12.838   5.679  0.00  0.00    -0.204 F 
ENDBRANCH  14  16
ENDBRANCH  11  12
ENDBRANCH   9  11
ENDBRANCH   7   9
ENDBRANCH   1   7
BRANCH   6  23
ATOM     23  S   UNL     1       6.990  -3.411   4.488  0.00  0.00    -0.115 S 
BRANCH  23  24
ATOM     24  C   UNL     1       6.791  -1.741   3.817  0.00  0.00    +0.170 C 
BRANCH  24  25
ATOM     25  C   UNL     1       5.486  -1.653   3.070  0.00  0.00    +0.227 C 
ATOM     26  O   UNL     1       4.761  -2.623   2.998  0.00  0.00    -0.275 OA
ATOM     27  N   UNL     1       5.123  -0.496   2.482  0.00  0.00    -0.285 N 
ATOM     28  H   UNL     1       5.736   0.257   2.473  0.00  0.00    +0.155 HD
BRANCH  27  29
ATOM     29  C   UNL     1       3.862  -0.379   1.883  0.00  0.00    +0.037 A 
ATOM     30  C   UNL     1       2.773  -1.052   2.421  0.00  0.00    +0.027 A 
ATOM     31  C   UNL     1       1.529  -0.938   1.832  0.00  0.00    +0.051 A 
ATOM     32  C   UNL     1       1.363  -0.152   0.703  0.00  0.00    +0.166 A 
ATOM     33  C   UNL     1       2.454   0.524   0.161  0.00  0.00    +0.168 A 
ATOM     34  C   UNL     1       3.701   0.409   0.752  0.00  0.00    +0.072 A 
ATOM     35  O   UNL     1       2.034   1.221  -0.936  0.00  0.00    -0.453 OA
ATOM     36  C   UNL     1       0.601   1.292  -0.821  0.00  0.00    +0.466 C 
ATOM     37  O   UNL     1       0.260   0.122  -0.055  0.00  0.00    -0.453 OA
ENDBRANCH  27  29
ENDBRANCH  24  25
ENDBRANCH  23  24
ENDBRANCH   6  23
TORSDOF 9
