REMARK  Name = ZINC03485366
REMARK  9 active torsions:
REMARK  status: ('A' for Active; 'I' for Inactive)
REMARK    1  A    between atoms: C_1  and  C_2
REMARK    2  A    between atoms: C_2  and  C_3
REMARK    3  A    between atoms: C_2  and  C_4
REMARK    4  A    between atoms: C_2  and  N_5
REMARK    5  A    between atoms: C_9  and  C_11
REMARK    6  A    between atoms: C_11  and  O_12
REMARK    7  A    between atoms: O_12  and  C_13
REMARK    8  A    between atoms: C_13  and  C_15
REMARK    9  A    between atoms: C_20  and  O_21
REMARK                            x       y       z     vdW  Elec       q    Type
REMARK                         _______ _______ _______ _____ _____    ______ ____
ROOT
ATOM      1  C   UNL     1       3.667   5.983   0.000  0.00  0.00    +0.328 C 
ENDROOT
BRANCH   1   6
ATOM      2  N   UNL     1       5.337  10.491   0.009  0.00  0.00    -0.294 N 
ATOM      3  C   UNL     1       4.285   9.648   0.014  0.00  0.00    +0.306 C 
ATOM      4  O   UNL     1       3.153  10.089   0.027  0.00  0.00    -0.252 OA
ATOM      5  N   UNL     1       4.490   8.316   0.005  0.00  0.00    -0.237 N 
ATOM      6  C   UNL     1       3.439   7.473   0.010  0.00  0.00    +0.258 C 
ATOM      7  O   UNL     1       2.309   7.912   0.023  0.00  0.00    -0.272 OA
ATOM      8  H   UNL     1       6.241  10.139  -0.001  0.00  0.00    +0.151 HD
ATOM      9  H   UNL     1       5.394   7.964  -0.005  0.00  0.00    +0.159 HD
BRANCH   2  11
ATOM     10  C   UNL     1       4.336  12.327   1.278  0.00  0.00    +0.031 C 
ATOM     11  C   UNL     1       5.114  11.939   0.019  0.00  0.00    +0.028 C 
ATOM     12  C   UNL     1       6.463  12.662   0.010  0.00  0.00    +0.031 C 
ATOM     13  C   UNL     1       4.313  12.341  -1.221  0.00  0.00    +0.031 C 
ENDBRANCH   2  11
ENDBRANCH   1   6
BRANCH   1  14
ATOM     14  O   UNL     1       2.388   5.297   0.008  0.00  0.00    -0.452 OA
BRANCH  14  15
ATOM     15  C   UNL     1       2.416   3.950   0.001  0.00  0.00    +0.343 C 
ATOM     16  O   UNL     1       3.481   3.364  -0.012  0.00  0.00    -0.245 OA
BRANCH  15  17
ATOM     17  C   UNL     1       1.155   3.186   0.008  0.00  0.00    +0.102 A 
ATOM     18  C   UNL     1      -0.072   3.855   0.024  0.00  0.00    +0.038 A 
ATOM     19  C   UNL     1      -1.247   3.135   0.031  0.00  0.00    +0.042 A 
ATOM     20  C   UNL     1      -1.218   1.749   0.017  0.00  0.00    +0.023 A 
ATOM     21  C   UNL     1      -0.013   1.076   0.008  0.00  0.00    +0.047 A 
ATOM     22  C   UNL     1       1.180   1.784   0.000  0.00  0.00    +0.131 A 
ATOM     23 CL   UNL     1      -2.771   3.967   0.050  0.00  0.00    -0.084 Cl
BRANCH  22  24
ATOM     24  O   UNL     1       2.365   1.124  -0.015  0.00  0.00    -0.506 OA
ATOM     25  H   UNL     1       2.700   0.938  -0.903  0.00  0.00    +0.292 HD
ENDBRANCH  22  24
ENDBRANCH  15  17
ENDBRANCH  14  15
ENDBRANCH   1  14
TORSDOF 6
