REMARK  Name = ZINC33746791
REMARK  14 active torsions:
REMARK  status: ('A' for Active; 'I' for Inactive)
REMARK    1  A    between atoms: C_1  and  C_2
REMARK    2  A    between atoms: C_2  and  C_3
REMARK    3  A    between atoms: C_2  and  C_4
REMARK    4  A    between atoms: C_2  and  C_5
REMARK    5  A    between atoms: C_5  and  C_6
REMARK    6  A    between atoms: C_6  and  C_7
REMARK    7  A    between atoms: C_6  and  C_8
REMARK    8  A    between atoms: C_6  and  N_9
REMARK    9  A    between atoms: N_9  and  C_10
REMARK   10  A    between atoms: C_11  and  C_19
REMARK   11  A    between atoms: C_22  and  O_25
REMARK   12  A    between atoms: O_25  and  S_26
REMARK   13  A    between atoms: S_26  and  C_29
REMARK   14  A    between atoms: C_30  and  C_31
REMARK                            x       y       z     vdW  Elec       q    Type
REMARK                         _______ _______ _______ _____ _____    ______ ____
ROOT
ATOM      1  C   UNL     1       8.144   2.919   1.512  0.00  0.00    +0.129 A 
ATOM      2  C   UNL     1       7.835   3.542   0.322  0.00  0.00    +0.087 A 
ATOM      3  N   UNL     1       8.953   3.588  -0.427  0.00  0.00    -0.338 N 
ATOM      4  C   UNL     1       9.946   3.019   0.236  0.00  0.00    +0.117 A 
ATOM      5  N   UNL     1       9.470   2.587   1.453  0.00  0.00    -0.289 N 
ATOM      6  C   UNL     1      10.303   1.958   2.338  0.00  0.00    +0.094 A 
ATOM      7  C   UNL     1      11.600   1.753   2.033  0.00  0.00    +0.018 A 
ATOM      8  C   UNL     1      12.116   2.183   0.798  0.00  0.00    +0.005 A 
ATOM      9  C   UNL     1      11.302   2.810  -0.093  0.00  0.00    +0.045 A 
ATOM     10  H   UNL     1       8.928   4.053  -1.424  0.00  0.00    +0.167 HD
ENDROOT
BRANCH   2  11
ATOM     11  C   UNL     1       6.506   4.073  -0.064  0.00  0.00    +0.002 A 
ATOM     12  C   UNL     1       6.414   5.234  -0.832  0.00  0.00    +0.014 A 
ATOM     13  C   UNL     1       5.175   5.726  -1.188  0.00  0.00    +0.049 A 
ATOM     14  C   UNL     1       4.022   5.067  -0.784  0.00  0.00    +0.157 A 
ATOM     15  C   UNL     1       4.111   3.914  -0.015  0.00  0.00    +0.049 A 
ATOM     16  C   UNL     1       5.346   3.413   0.340  0.00  0.00    +0.014 A 
BRANCH  14  17
ATOM     17  O   UNL     1       2.804   5.554  -1.136  0.00  0.00    -0.343 OA
BRANCH  17  18
ATOM     18  S   UNL     1       2.278   5.012  -2.458  0.00  0.00    +0.144 S 
ATOM     19  O   UNL     1       3.394   4.927  -3.334  0.00  0.00    -0.132 OA
ATOM     20  O   UNL     1       1.117   5.768  -2.774  0.00  0.00    -0.132 OA
BRANCH  18  21
ATOM     21  C   UNL     1       1.740   3.360  -2.166  0.00  0.00    +0.178 C 
ATOM     22  C   UNL     1       0.457   3.049  -2.288  0.00  0.00    +0.030 C 
BRANCH  22  23
ATOM     23  C   UNL     1       0.006   1.663  -2.043  0.00  0.00    -0.024 A 
ATOM     24  C   UNL     1       0.928   0.678  -1.688  0.00  0.00    +0.008 A 
ATOM     25  C   UNL     1       0.499  -0.613  -1.456  0.00  0.00    +0.001 A 
ATOM     26  C   UNL     1      -0.840  -0.933  -1.585  0.00  0.00    +0.000 A 
ATOM     27  C   UNL     1      -1.759   0.038  -1.941  0.00  0.00    +0.001 A 
ATOM     28  C   UNL     1      -1.344   1.333  -2.170  0.00  0.00    +0.008 A 
ENDBRANCH  22  23
ENDBRANCH  18  21
ENDBRANCH  17  18
ENDBRANCH  14  17
ENDBRANCH   2  11
BRANCH   1  29
ATOM     29  N   UNL     1       7.271   2.673   2.573  0.00  0.00    -0.323 N 
ATOM     30  H   UNL     1       6.233   3.010   2.708  0.00  0.00    +0.148 HD
BRANCH  29  31
ATOM     31  C   UNL     1       7.914   1.843   3.602  0.00  0.00    +0.028 C 
ATOM     32  C   UNL     1       8.540   0.611   2.945  0.00  0.00    +0.031 C 
ATOM     33  C   UNL     1       9.003   2.655   4.305  0.00  0.00    +0.031 C 
BRANCH  31  34
ATOM     34  C   UNL     1       6.867   1.399   4.625  0.00  0.00    +0.031 C 
BRANCH  34  36
ATOM     35  C   UNL     1       8.253   1.721   6.679  0.00  0.00    +0.010 C 
ATOM     36  C   UNL     1       7.561   0.687   5.788  0.00  0.00    -0.036 C 
ATOM     37  C   UNL     1       6.524  -0.081   6.609  0.00  0.00    +0.010 C 
ATOM     38  C   UNL     1       8.602  -0.291   5.239  0.00  0.00    +0.010 C 
ENDBRANCH  34  36
ENDBRANCH  31  34
ENDBRANCH  29  31
ENDBRANCH   1  29
TORSDOF 9
