REMARK  Name = ZINC38872643
REMARK  11 active torsions:
REMARK  status: ('A' for Active; 'I' for Inactive)
REMARK    1  A    between atoms: C_1  and  C_2
REMARK    2  A    between atoms: C_5  and  C_9
REMARK    3  A    between atoms: C_6  and  C_8
REMARK    4  A    between atoms: C_9  and  C_11
REMARK    5  A    between atoms: C_9  and  N_14
REMARK    6  A    between atoms: C_11  and  C_12
REMARK    7  A    between atoms: C_11  and  C_13
REMARK    8  A    between atoms: C_15  and  C_17
REMARK    9  A    between atoms: N_20  and  C_23
REMARK   10  A    between atoms: C_23  and  C_24
REMARK   11  A    between atoms: C_26  and  C_29
REMARK                            x       y       z     vdW  Elec       q    Type
REMARK                         _______ _______ _______ _____ _____    ______ ____
ROOT
ATOM      1  C   UNL     1      -0.925  -7.059  -1.962  0.00  0.00    +0.071 C 
ATOM      2  C   UNL     1      -2.127  -6.402  -2.647  0.00  0.00    -0.006 C 
ATOM      3  C   UNL     1      -2.514  -7.219  -3.881  0.00  0.00    -0.077 C 
ATOM      4  N   UNL     1      -2.865  -8.586  -3.477  0.00  0.00    +0.386 N 
ATOM      5  C   UNL     1      -1.696  -9.246  -2.884  0.00  0.00    -0.077 C 
ATOM      6  C   UNL     1      -1.278  -8.507  -1.612  0.00  0.00    -0.006 C 
ATOM      7  H   UNL     1      -3.611  -8.554  -2.799  0.00  0.00    -0.081 HD
ENDROOT
BRANCH   1   9
ATOM      8  N   UNL     1      -0.244  -5.002  -0.768  0.00  0.00    -0.308 N 
ATOM      9  C   UNL     1      -0.588  -6.303  -0.702  0.00  0.00    +0.216 C 
ATOM     10  O   UNL     1      -0.626  -6.867   0.371  0.00  0.00    -0.276 OA
ATOM     11  H   UNL     1      -0.214  -4.551  -1.627  0.00  0.00    +0.149 HD
BRANCH   8  12
ATOM     12  C   UNL     1       0.083  -4.268   0.456  0.00  0.00    +0.106 C 
BRANCH  12  17
ATOM     13  C   UNL     1      -1.828   1.168   0.010  0.00  0.00    +0.044 C 
ATOM     14  C   UNL     1      -1.329  -0.250   0.126  0.00  0.00    -0.050 A 
ATOM     15  C   UNL     1       0.017  -0.524  -0.029  0.00  0.00    +0.004 A 
ATOM     16  C   UNL     1       0.474  -1.824   0.079  0.00  0.00    +0.006 A 
ATOM     17  C   UNL     1      -0.415  -2.850   0.341  0.00  0.00    -0.024 A 
ATOM     18  C   UNL     1      -1.761  -2.575   0.496  0.00  0.00    -0.045 A 
ATOM     19  C   UNL     1      -2.217  -1.275   0.394  0.00  0.00    +0.007 A 
ATOM     20  C   UNL     1      -2.730  -3.694   0.782  0.00  0.00    +0.044 C 
ENDBRANCH  12  17
BRANCH  12  21
ATOM     21  C   UNL     1       1.600  -4.260   0.656  0.00  0.00    +0.008 C 
ATOM     22  C   UNL     1       1.935  -3.590   1.990  0.00  0.00    +0.009 C 
ATOM     23  C   UNL     1       2.120  -5.699   0.664  0.00  0.00    +0.009 C 
ENDBRANCH  12  21
ENDBRANCH   8  12
ENDBRANCH   1   9
BRANCH   4  24
ATOM     24  C   UNL     1      -3.310  -9.344  -4.654  0.00  0.00    +0.022 C 
BRANCH  24  25
ATOM     25  C   UNL     1      -3.787 -10.707  -4.223  0.00  0.00    +0.211 A 
ATOM     26  N   UNL     1      -5.007 -11.015  -3.887  0.00  0.00    -0.193 NA
ATOM     27  C   UNL     1      -5.079 -12.317  -3.557  0.00  0.00    +0.203 A 
ATOM     28  N   UNL     1      -3.888 -12.848  -3.685  0.00  0.00    -0.056 NA
ATOM     29  O   UNL     1      -3.029 -11.807  -4.127  0.00  0.00    -0.340 OA
BRANCH  27  30
ATOM     30  C   UNL     1      -6.303 -13.033  -3.122  0.00  0.00    +0.041 A 
ATOM     31  C   UNL     1      -7.516 -12.353  -3.031  0.00  0.00    +0.014 A 
ATOM     32  C   UNL     1      -8.652 -13.023  -2.626  0.00  0.00    +0.021 A 
ATOM     33  C   UNL     1      -8.589 -14.370  -2.309  0.00  0.00    +0.042 A 
ATOM     34  C   UNL     1      -7.387 -15.051  -2.397  0.00  0.00    +0.040 A 
ATOM     35  C   UNL     1      -6.245 -14.391  -2.807  0.00  0.00    +0.053 A 
ATOM     36 CL   UNL     1      -4.740 -15.247  -2.924  0.00  0.00    -0.083 Cl
ATOM     37 CL   UNL     1     -10.022 -15.207  -1.799  0.00  0.00    -0.083 Cl
ENDBRANCH  27  30
ENDBRANCH  24  25
ENDBRANCH   4  24
TORSDOF 7
