REMARK  Name = ZINC04947215
REMARK  3 active torsions:
REMARK  status: ('A' for Active; 'I' for Inactive)
REMARK    1  A    between atoms: C_9  and  O_21
REMARK    2  A    between atoms: C_10  and  C_11
REMARK    3  A    between atoms: N_12  and  N_13
REMARK                            x       y       z     vdW  Elec       q    Type
REMARK                         _______ _______ _______ _____ _____    ______ ____
ROOT
ATOM      1  C   UNL     1      -0.016   1.357   0.009  0.00  0.00    +0.001 A 
ATOM      2  C   UNL     1       1.168   2.091   0.002  0.00  0.00    +0.001 A 
ATOM      3  C   UNL     1       2.379   1.466  -0.013  0.00  0.00    +0.009 A 
ATOM      4  C   UNL     1       2.435   0.067  -0.021  0.00  0.00    -0.006 A 
ATOM      5  C   UNL     1       1.233  -0.683  -0.013  0.00  0.00    -0.017 A 
ATOM      6  C   UNL     1       0.002  -0.004   0.002  0.00  0.00    +0.008 A 
ATOM      7  C   UNL     1       1.292  -2.087  -0.020  0.00  0.00    +0.012 A 
ATOM      8  C   UNL     1       2.488  -2.733  -0.034  0.00  0.00    +0.046 A 
ATOM      9  C   UNL     1       3.697  -2.040  -0.042  0.00  0.00    +0.126 A 
ATOM     10  C   UNL     1       3.711  -0.645  -0.037  0.00  0.00    +0.044 A 
ENDROOT
BRANCH  10  11
ATOM     11  C   UNL     1       4.982   0.093  -0.046  0.00  0.00    +0.142 C 
ATOM     12  N   UNL     1       6.110  -0.555  -0.060  0.00  0.00    -0.188 NA
BRANCH  12  13
ATOM     13  N   UNL     1       7.321   0.148  -0.069  0.00  0.00    -0.219 N 
ATOM     14  C   UNL     1       8.526  -0.543  -0.084  0.00  0.00    +0.175 A 
ATOM     15  C   UNL     1       9.734   0.155  -0.087  0.00  0.00    +0.170 A 
ATOM     16  N   UNL     1      10.876  -0.508  -0.102  0.00  0.00    -0.239 NA
ATOM     17  C   UNL     1      10.875  -1.831  -0.113  0.00  0.00    +0.132 A 
ATOM     18  C   UNL     1       9.680  -2.525  -0.111  0.00  0.00    +0.132 A 
ATOM     19  N   UNL     1       8.531  -1.870  -0.090  0.00  0.00    -0.235 NA
ATOM     20 CL   UNL     1       9.736   1.891  -0.072  0.00  0.00    -0.058 Cl
ATOM     21  H   UNL     1       7.319   1.119  -0.065  0.00  0.00    +0.176 HD
ENDBRANCH  12  13
ENDBRANCH  10  11
BRANCH   9  22
ATOM     22  O   UNL     1       4.868  -2.727  -0.055  0.00  0.00    -0.506 OA
ATOM     23  H   UNL     1       5.200  -2.922  -0.943  0.00  0.00    +0.292 HD
ENDBRANCH   9  22
TORSDOF 3
