REMARK  Name = ZINC39545685
REMARK  11 active torsions:
REMARK  status: ('A' for Active; 'I' for Inactive)
REMARK    1  A    between atoms: C_1  and  C_2
REMARK    2  A    between atoms: C_2  and  C_3
REMARK    3  A    between atoms: C_2  and  S_4
REMARK    4  A    between atoms: S_4  and  C_7
REMARK    5  A    between atoms: C_9  and  C_21
REMARK    6  A    between atoms: N_23  and  C_24
REMARK    7  A    between atoms: N_23  and  S_31
REMARK    8  A    between atoms: C_29  and  O_30
REMARK    9  A    between atoms: S_31  and  C_34
REMARK   10  A    between atoms: C_34  and  C_35
REMARK   11  A    between atoms: C_34  and  C_36
REMARK                            x       y       z     vdW  Elec       q    Type
REMARK                         _______ _______ _______ _____ _____    ______ ____
ROOT
ATOM      1  C   UNL     1      -1.714  -2.800   1.011  0.00  0.00    +0.102 C 
ATOM      2  C   UNL     1      -1.309  -3.215  -0.386  0.00  0.00    +0.088 C 
ATOM      3  C   UNL     1      -0.922  -4.699  -0.238  0.00  0.00    +0.152 C 
ATOM      4  N   UNL     1      -1.166  -4.993   1.184  0.00  0.00    -0.368 NA
ATOM      5  C   UNL     1      -1.596  -3.821   1.820  0.00  0.00    +0.096 C 
ATOM      6  N   UNL     1      -1.842  -3.810   3.206  0.00  0.00    -0.302 N 
ATOM      7  C   UNL     1      -0.975  -4.614   3.966  0.00  0.00    +0.037 A 
ATOM      8  C   UNL     1      -1.053  -4.595   5.351  0.00  0.00    +0.023 A 
ATOM      9  C   UNL     1      -0.206  -5.392   6.097  0.00  0.00    +0.002 A 
ATOM     10  C   UNL     1       0.714  -6.204   5.460  0.00  0.00    +0.000 A 
ATOM     11  C   UNL     1       0.794  -6.220   4.081  0.00  0.00    +0.007 A 
ATOM     12  C   UNL     1      -0.047  -5.421   3.323  0.00  0.00    -0.010 A 
ATOM     13  C   UNL     1       0.072  -5.447   1.827  0.00  0.00    +0.124 C 
ATOM     14  H   UNL     1      -2.555  -3.288   3.606  0.00  0.00    +0.153 HD
ATOM     15  H   UNL     1      -1.875  -5.706   1.267  0.00  0.00    +0.129 HD
ENDROOT
BRANCH   1  16
ATOM     16  S   UNL     1      -2.252  -1.188   1.477  0.00  0.00    -0.002 S 
ATOM     17  O   UNL     1      -2.533  -1.287   2.866  0.00  0.00    -0.169 OA
ATOM     18  O   UNL     1      -3.282  -0.868   0.551  0.00  0.00    -0.169 OA
BRANCH  16  20
ATOM     19  C   UNL     1      -1.128   1.296   1.696  0.00  0.00    +0.032 C 
ATOM     20  C   UNL     1      -0.813  -0.118   1.204  0.00  0.00    +0.130 C 
ATOM     21  C   UNL     1       0.387  -0.671   1.976  0.00  0.00    +0.032 C 
ENDBRANCH  16  20
ENDBRANCH   1  16
BRANCH   3  22
ATOM     22  C   UNL     1      -1.793  -5.562  -1.115  0.00  0.00    +0.258 C 
ATOM     23  O   UNL     1      -2.808  -6.053  -0.667  0.00  0.00    -0.272 OA
ATOM     24  N   UNL     1      -1.444  -5.788  -2.397  0.00  0.00    -0.139 N 
BRANCH  24  25
ATOM     25  C   UNL     1      -0.221  -5.311  -2.885  0.00  0.00    +0.101 A 
ATOM     26  C   UNL     1       0.934  -6.063  -2.723  0.00  0.00    +0.029 A 
ATOM     27  C   UNL     1       2.139  -5.590  -3.205  0.00  0.00    +0.002 A 
ATOM     28  C   UNL     1       2.199  -4.368  -3.849  0.00  0.00    +0.004 A 
ATOM     29  C   UNL     1       1.053  -3.613  -4.014  0.00  0.00    +0.047 A 
ATOM     30  C   UNL     1      -0.161  -4.082  -3.539  0.00  0.00    +0.140 A 
BRANCH  30  31
ATOM     31  O   UNL     1      -1.290  -3.343  -3.705  0.00  0.00    -0.505 OA
ATOM     32  H   UNL     1      -1.434  -2.683  -3.013  0.00  0.00    +0.292 HD
ENDBRANCH  30  31
ENDBRANCH  24  25
BRANCH  24  33
ATOM     33  S   UNL     1      -2.462  -6.630  -3.396  0.00  0.00    +0.054 S 
ATOM     34  O   UNL     1      -1.633  -7.091  -4.453  0.00  0.00    -0.154 OA
ATOM     35  O   UNL     1      -3.128  -7.551  -2.542  0.00  0.00    -0.154 OA
BRANCH  33  36
ATOM     36  C   UNL     1      -3.635  -5.393  -4.016  0.00  0.00    +0.146 C 
ATOM     37  C   UNL     1      -4.592  -6.051  -5.012  0.00  0.00    +0.033 C 
ATOM     38  C   UNL     1      -4.435  -4.816  -2.846  0.00  0.00    +0.033 C 
ENDBRANCH  33  36
ENDBRANCH  24  33
ENDBRANCH   3  22
TORSDOF 7
