REMARK  Name = ZINC57987663
REMARK  9 active torsions:
REMARK  status: ('A' for Active; 'I' for Inactive)
REMARK    1  A    between atoms: C_1  and  C_2
REMARK    2  A    between atoms: C_8  and  N_10
REMARK    3  A    between atoms: N_10  and  C_11
REMARK    4  A    between atoms: C_11  and  N_13
REMARK    5  A    between atoms: N_13  and  N_14
REMARK    6  A    between atoms: C_15  and  C_17
REMARK    7  A    between atoms: C_20  and  S_23
REMARK    8  A    between atoms: S_23  and  N_26
REMARK    9  A    between atoms: N_26  and  C_27
REMARK                            x       y       z     vdW  Elec       q    Type
REMARK                         _______ _______ _______ _____ _____    ______ ____
ROOT
ATOM      1  N   UNL     1      -1.257   0.843   4.663  0.00  0.00    -0.231 N 
ATOM      2  C   UNL     1      -1.888   1.278   5.772  0.00  0.00    +0.260 C 
ATOM      3  O   UNL     1      -1.273   1.396   6.814  0.00  0.00    -0.269 OA
ATOM      4  H   UNL     1      -1.748   0.748   3.831  0.00  0.00    +0.173 HD
ENDROOT
BRANCH   2   5
ATOM      5  C   UNL     1      -3.328   1.610   5.721  0.00  0.00    +0.038 A 
ATOM      6  C   UNL     1      -4.038   1.469   4.527  0.00  0.00    +0.015 A 
ATOM      7  C   UNL     1      -5.381   1.781   4.487  0.00  0.00    +0.029 A 
ATOM      8  C   UNL     1      -6.024   2.232   5.626  0.00  0.00    +0.105 A 
ATOM      9  C   UNL     1      -5.326   2.374   6.812  0.00  0.00    +0.029 A 
ATOM     10  C   UNL     1      -3.984   2.060   6.867  0.00  0.00    +0.015 A 
BRANCH   8  11
ATOM     11  S   UNL     1      -7.740   2.628   5.565  0.00  0.00    +0.058 S 
ATOM     12  O   UNL     1      -7.983   3.546   6.622  0.00  0.00    -0.153 OA
ATOM     13  O   UNL     1      -8.040   2.931   4.209  0.00  0.00    -0.153 OA
BRANCH  11  14
ATOM     14  N   UNL     1      -8.575   1.247   5.937  0.00  0.00    -0.193 NA
ATOM     15  C   UNL     1      -8.455   0.656   7.272  0.00  0.00    +0.127 C 
ATOM     16  H   UNL     1      -9.143   0.830   5.271  0.00  0.00    +0.148 HD
ENDBRANCH  11  14
ENDBRANCH   8  11
ENDBRANCH   2   5
BRANCH   1  17
ATOM     17  N   UNL     1       0.107   0.528   4.711  0.00  0.00    -0.246 N 
ATOM     18  H   UNL     1       0.598   0.623   5.542  0.00  0.00    +0.172 HD
BRANCH  17  19
ATOM     19  C   UNL     1       0.738   0.093   3.602  0.00  0.00    +0.147 C 
ATOM     20  S   UNL     1       2.405  -0.292   3.661  0.00  0.00    -0.017 S 
BRANCH  19  21
ATOM     21  N   UNL     1       0.056  -0.038   2.447  0.00  0.00    -0.322 N 
ATOM     22  H   UNL     1      -0.888   0.180   2.413  0.00  0.00    +0.148 HD
BRANCH  21  29
ATOM     23  C   UNL     1      -0.019   1.526   0.010  0.00  0.00    +0.009 C 
ATOM     24  C   UNL     1       0.002  -0.004   0.002  0.00  0.00    +0.006 C 
ATOM     25  C   UNL     1       0.718  -0.497  -1.257  0.00  0.00    +0.005 C 
ATOM     26  C   UNL     1       0.739  -2.027  -1.265  0.00  0.00    +0.000 C 
ATOM     27  C   UNL     1       1.479  -2.534  -0.026  0.00  0.00    +0.002 C 
ATOM     28  C   UNL     1       0.763  -2.041   1.233  0.00  0.00    +0.022 C 
ATOM     29  C   UNL     1       0.742  -0.511   1.242  0.00  0.00    +0.075 C 
ENDBRANCH  21  29
ENDBRANCH  19  21
ENDBRANCH  17  19
ENDBRANCH   1  17
TORSDOF 7
