REMARK  Name = ZINC09243671
REMARK  12 active torsions:
REMARK  status: ('A' for Active; 'I' for Inactive)
REMARK    1  A    between atoms: C_1  and  C_2
REMARK    2  A    between atoms: C_2  and  C_3
REMARK    3  A    between atoms: C_2  and  O_4
REMARK    4  A    between atoms: O_4  and  C_5
REMARK    5  A    between atoms: C_5  and  C_6
REMARK    6  A    between atoms: C_6  and  C_7
REMARK    7  A    between atoms: C_7  and  N_8
REMARK    8  A    between atoms: C_9  and  C_26
REMARK    9  A    between atoms: C_12  and  C_19
REMARK   10  A    between atoms: C_24  and  O_25
REMARK   11  A    between atoms: C_29  and  S_32
REMARK   12  A    between atoms: S_32  and  C_33
REMARK                            x       y       z     vdW  Elec       q    Type
REMARK                         _______ _______ _______ _____ _____    ______ ____
ROOT
ATOM      1  N   UNL     1      -4.541  -3.946  -1.209  0.00  0.00    -0.285 N 
ATOM      2  C   UNL     1      -5.151  -4.747  -0.140  0.00  0.00    +0.141 C 
ATOM      3  C   UNL     1      -6.600  -4.905  -0.513  0.00  0.00    +0.035 A 
ATOM      4  C   UNL     1      -7.852  -5.433  -0.181  0.00  0.00    +0.102 A 
ATOM      5  N   UNL     1      -8.693  -5.084  -1.135  0.00  0.00    -0.173 NA
ATOM      6  N   UNL     1      -8.096  -4.387  -2.036  0.00  0.00    -0.272 N 
ATOM      7  H   UNL     1      -8.518  -4.023  -2.829  0.00  0.00    +0.189 HD
ATOM      8  C   UNL     1      -6.778  -4.236  -1.708  0.00  0.00    +0.126 A 
ATOM      9  C   UNL     1      -5.494  -3.651  -2.111  0.00  0.00    +0.265 C 
ATOM     10  O   UNL     1      -5.316  -2.994  -3.119  0.00  0.00    -0.268 OA
ENDROOT
BRANCH   4  11
ATOM     11  C   UNL     1      -8.175  -6.240   1.022  0.00  0.00    +0.044 A 
ATOM     12  C   UNL     1      -7.183  -6.531   1.955  0.00  0.00    +0.014 A 
ATOM     13  C   UNL     1      -7.489  -7.281   3.073  0.00  0.00    +0.001 A 
ATOM     14  C   UNL     1      -8.777  -7.746   3.270  0.00  0.00    +0.004 A 
ATOM     15  C   UNL     1      -9.768  -7.462   2.350  0.00  0.00    +0.046 A 
ATOM     16  C   UNL     1      -9.477  -6.705   1.226  0.00  0.00    +0.126 A 
BRANCH  16  17
ATOM     17  O   UNL     1     -10.452  -6.421   0.324  0.00  0.00    -0.506 OA
ATOM     18  H   UNL     1     -10.540  -7.079  -0.380  0.00  0.00    +0.292 HD
ENDBRANCH  16  17
ENDBRANCH   4  11
BRANCH   2  19
ATOM     19  C   UNL     1      -4.485  -6.096  -0.058  0.00  0.00    -0.022 A 
ATOM     20  C   UNL     1      -4.131  -6.762  -1.217  0.00  0.00    +0.007 A 
ATOM     21  C   UNL     1      -3.521  -7.999  -1.146  0.00  0.00    +0.015 A 
ATOM     22  C   UNL     1      -3.263  -8.574   0.093  0.00  0.00    +0.008 A 
ATOM     23  C   UNL     1      -3.620  -7.902   1.255  0.00  0.00    +0.015 A 
ATOM     24  C   UNL     1      -4.225  -6.663   1.176  0.00  0.00    +0.007 A 
BRANCH  22  25
ATOM     25  S   UNL     1      -2.485 -10.152   0.189  0.00  0.00    -0.129 S 
ATOM     26  C   UNL     1      -2.363 -10.474   1.970  0.00  0.00    +0.090 C 
ENDBRANCH  22  25
ENDBRANCH   2  19
BRANCH   1  27
ATOM     27  C   UNL     1      -3.137  -3.534  -1.278  0.00  0.00    +0.111 C 
BRANCH  27  28
ATOM     28  C   UNL     1      -2.965  -2.187  -0.574  0.00  0.00    +0.047 C 
BRANCH  28  29
ATOM     29  C   UNL     1      -1.499  -1.757  -0.646  0.00  0.00    +0.161 C 
BRANCH  29  30
ATOM     30  O   UNL     1      -1.339  -0.499   0.012  0.00  0.00    -0.377 OA
BRANCH  30  32
ATOM     31  C   UNL     1      -0.019   1.526   0.010  0.00  0.00    +0.037 C 
ATOM     32  C   UNL     1       0.002  -0.004   0.002  0.00  0.00    +0.112 C 
ATOM     33  C   UNL     1       0.742  -0.511   1.242  0.00  0.00    +0.037 C 
ENDBRANCH  30  32
ENDBRANCH  29  30
ENDBRANCH  28  29
ENDBRANCH  27  28
ENDBRANCH   1  27
TORSDOF 9
