REMARK  Name = ZINC04211013
REMARK  8 active torsions:
REMARK  status: ('A' for Active; 'I' for Inactive)
REMARK    1  A    between atoms: C_1  and  O_2
REMARK    2  A    between atoms: O_2  and  C_3
REMARK    3  A    between atoms: C_5  and  C_13
REMARK    4  A    between atoms: C_7  and  O_11
REMARK    5  A    between atoms: C_8  and  O_9
REMARK    6  A    between atoms: O_9  and  C_10
REMARK    7  A    between atoms: O_11  and  C_12
REMARK    8  A    between atoms: C_18  and  C_28
REMARK                            x       y       z     vdW  Elec       q    Type
REMARK                         _______ _______ _______ _____ _____    ______ ____
ROOT
ATOM      1  C   UNL     1      -1.208   2.321  -0.559  0.00  0.00    +0.032 C 
ATOM      2  C   UNL     1      -1.223   3.077   0.769  0.00  0.00    +0.059 C 
ATOM      3  C   UNL     1      -2.572   3.747   0.968  0.00  0.00    +0.017 C 
ATOM      4  C   UNL     1      -3.273   4.195  -0.088  0.00  0.00    +0.036 C 
ATOM      5  C   UNL     1      -4.618   4.879  -0.032  0.00  0.00    +0.136 C 
ATOM      6  N   UNL     1      -5.034   5.279   1.295  0.00  0.00    -0.331 N 
ATOM      7  C   UNL     1      -5.291   4.330   2.284  0.00  0.00    +0.049 A 
ATOM      8  C   UNL     1      -6.572   4.119   2.768  0.00  0.00    +0.025 A 
ATOM      9  C   UNL     1      -6.798   3.091   3.666  0.00  0.00    +0.002 A 
ATOM     10  C   UNL     1      -5.756   2.281   4.080  0.00  0.00    +0.002 A 
ATOM     11  C   UNL     1      -4.471   2.503   3.615  0.00  0.00    +0.025 A 
ATOM     12  C   UNL     1      -4.241   3.543   2.731  0.00  0.00    +0.052 A 
ATOM     13  N   UNL     1      -2.969   3.852   2.261  0.00  0.00    -0.316 N 
ATOM     14  C   UNL     1      -2.768   4.030  -1.399  0.00  0.00    +0.163 C 
ATOM     15  O   UNL     1      -3.411   4.468  -2.334  0.00  0.00    -0.292 OA
ATOM     16  C   UNL     1      -1.469   3.336  -1.678  0.00  0.00    +0.088 C 
ATOM     17  H   UNL     1      -5.152   6.346   1.537  0.00  0.00    +0.147 HD
ATOM     18  H   UNL     1      -2.263   4.205   3.027  0.00  0.00    +0.152 HD
ENDROOT
BRANCH   5  19
ATOM     19  C   UNL     1      -5.654   3.942  -0.595  0.00  0.00    -0.023 A 
ATOM     20  C   UNL     1      -5.911   2.738   0.033  0.00  0.00    +0.008 A 
ATOM     21  C   UNL     1      -6.865   1.880  -0.480  0.00  0.00    +0.038 A 
ATOM     22  C   UNL     1      -7.556   2.221  -1.630  0.00  0.00    +0.123 A 
ATOM     23  C   UNL     1      -7.294   3.425  -2.262  0.00  0.00    +0.038 A 
ATOM     24  C   UNL     1      -6.344   4.284  -1.744  0.00  0.00    +0.008 A 
ATOM     25  F   UNL     1      -8.486   1.381  -2.135  0.00  0.00    -0.205 F 
ENDBRANCH   5  19
BRANCH   1  28
ATOM     26  C   UNL     1       1.460  -0.300  -1.107  0.00  0.00    +0.165 A 
ATOM     27  C   UNL     1       0.225   0.301  -0.914  0.00  0.00    +0.053 A 
ATOM     28  C   UNL     1       0.137   1.672  -0.762  0.00  0.00    -0.036 A 
ATOM     29  C   UNL     1       1.279   2.450  -0.801  0.00  0.00    +0.053 A 
ATOM     30  C   UNL     1       2.518   1.857  -0.993  0.00  0.00    +0.165 A 
ATOM     31  C   UNL     1       2.610   0.478  -1.146  0.00  0.00    +0.204 A 
BRANCH  26  33
ATOM     32  C   UNL     1       0.321  -2.386  -1.204  0.00  0.00    +0.277 C 
ATOM     33  O   UNL     1       1.545  -1.649  -1.256  0.00  0.00    -0.491 OA
ENDBRANCH  26  33
BRANCH  31  34
ATOM     34  O   UNL     1       3.824  -0.107  -1.334  0.00  0.00    -0.488 OA
ATOM     35  C   UNL     1       4.271  -0.256  -2.683  0.00  0.00    +0.277 C 
ENDBRANCH  31  34
BRANCH  30  36
ATOM     36  O   UNL     1       3.641   2.623  -1.030  0.00  0.00    -0.491 OA
ATOM     37  C   UNL     1       3.471   4.032  -0.866  0.00  0.00    +0.277 C 
ENDBRANCH  30  36
ENDBRANCH   1  28
TORSDOF 5
