REMARK  Name = ZINC01980920
REMARK  10 active torsions:
REMARK  status: ('A' for Active; 'I' for Inactive)
REMARK    1  A    between atoms: C_1  and  C_2
REMARK    2  A    between atoms: C_5  and  N_9
REMARK    3  A    between atoms: C_6  and  C_8
REMARK    4  A    between atoms: C_10  and  C_12
REMARK    5  A    between atoms: C_12  and  C_14
REMARK    6  A    between atoms: C_12  and  N_15
REMARK    7  A    between atoms: C_26  and  C_30
REMARK    8  A    between atoms: C_30  and  C_31
REMARK    9  A    between atoms: C_30  and  C_32
REMARK   10  A    between atoms: C_30  and  C_33
REMARK                            x       y       z     vdW  Elec       q    Type
REMARK                         _______ _______ _______ _____ _____    ______ ____
ROOT
ATOM      1  N   UNL     1       4.329  -3.812  -5.628  0.00  0.00    -0.287 N 
ATOM      2  C   UNL     1       5.435  -3.038  -5.745  0.00  0.00    +0.204 A 
ATOM      3  N   UNL     1       5.624  -1.948  -5.035  0.00  0.00    -0.230 NA
ATOM      4  C   UNL     1       4.673  -1.609  -4.169  0.00  0.00    +0.116 A 
ATOM      5  C   UNL     1       3.486  -2.349  -3.975  0.00  0.00    +0.076 A 
ATOM      6  C   UNL     1       3.319  -3.533  -4.770  0.00  0.00    +0.263 A 
ATOM      7  O   UNL     1       2.331  -4.241  -4.679  0.00  0.00    -0.267 OA
ATOM      8  C   UNL     1       2.560  -1.828  -2.986  0.00  0.00    -0.023 A 
ATOM      9  C   UNL     1       2.927  -0.689  -2.352  0.00  0.00    -0.004 A 
ATOM     10  S   UNL     1       4.509  -0.265  -3.038  0.00  0.00    -0.073 S 
ATOM     11  C   UNL     1       2.161   0.050  -1.298  0.00  0.00    +0.046 C 
ATOM     12  C   UNL     1       0.715  -0.466  -1.297  0.00  0.00    -0.000 C 
ATOM     13  C   UNL     1       0.738  -1.997  -1.302  0.00  0.00    +0.009 C 
ATOM     14  C   UNL     1       1.233  -2.505  -2.656  0.00  0.00    +0.037 C 
ENDROOT
BRANCH  12  15
ATOM     15  C   UNL     1      -0.007   0.033  -0.043  0.00  0.00    -0.035 C 
ATOM     16  C   UNL     1      -0.020   1.563  -0.037  0.00  0.00    +0.011 C 
ATOM     17  C   UNL     1       0.723  -0.476   1.202  0.00  0.00    +0.011 C 
ATOM     18  C   UNL     1      -1.445  -0.490  -0.041  0.00  0.00    +0.011 C 
ENDBRANCH  12  15
BRANCH   1  19
ATOM     19  C   UNL     1       4.220  -5.006  -6.469  0.00  0.00    +0.174 C 
ATOM     20  C   UNL     1       4.258  -4.597  -7.943  0.00  0.00    +0.041 C 
BRANCH  19  22
ATOM     21  N   UNL     1       5.479  -7.103  -6.836  0.00  0.00    -0.284 N 
ATOM     22  C   UNL     1       5.372  -5.933  -6.176  0.00  0.00    +0.240 C 
ATOM     23  O   UNL     1       6.201  -5.627  -5.346  0.00  0.00    -0.273 OA
ATOM     24  H   UNL     1       4.776  -7.386  -7.441  0.00  0.00    +0.155 HD
BRANCH  21  29
ATOM     25  C   UNL     1      10.051 -10.376  -6.078  0.00  0.00    +0.044 C 
ATOM     26  C   UNL     1       8.837  -9.507  -6.279  0.00  0.00    -0.050 A 
ATOM     27  C   UNL     1       8.918  -8.145  -6.052  0.00  0.00    +0.005 A 
ATOM     28  C   UNL     1       7.807  -7.346  -6.236  0.00  0.00    +0.024 A 
ATOM     29  C   UNL     1       6.607  -7.910  -6.649  0.00  0.00    +0.036 A 
ATOM     30  C   UNL     1       6.527  -9.279  -6.870  0.00  0.00    -0.029 A 
ATOM     31  C   UNL     1       7.644 -10.072  -6.690  0.00  0.00    +0.008 A 
ATOM     32  C   UNL     1       5.226  -9.897  -7.312  0.00  0.00    +0.045 C 
ENDBRANCH  21  29
ENDBRANCH  19  22
ENDBRANCH   1  19
TORSDOF 4
