REMARK  Name = ZINC34293354
REMARK  3 active torsions:
REMARK  status: ('A' for Active; 'I' for Inactive)
REMARK    1  A    between atoms: C_4  and  C_7
REMARK    2  A    between atoms: C_7  and  C_8
REMARK    3  A    between atoms: C_15  and  N_20
REMARK                            x       y       z     vdW  Elec       q    Type
REMARK                         _______ _______ _______ _____ _____    ______ ____
ROOT
ATOM      1  C   UNL     1       4.171  -0.963   1.399  0.00  0.00    +0.263 C 
ATOM      2  C   UNL     1       5.544  -1.587   1.383  0.00  0.00    +0.258 C 
ATOM      3  O   UNL     1       6.532  -0.887   1.460  0.00  0.00    -0.271 OA
ATOM      4  N   UNL     1       5.669  -2.927   1.281  0.00  0.00    -0.279 N 
ATOM      5  C   UNL     1       4.519  -3.727   1.320  0.00  0.00    +0.077 A 
ATOM      6  C   UNL     1       4.586  -5.071   0.993  0.00  0.00    +0.049 A 
ATOM      7  C   UNL     1       3.435  -5.847   1.023  0.00  0.00    +0.027 A 
ATOM      8  C   UNL     1       2.221  -5.275   1.380  0.00  0.00    +0.026 A 
ATOM      9  C   UNL     1       2.155  -3.935   1.712  0.00  0.00    +0.049 A 
ATOM     10  C   UNL     1       3.301  -3.159   1.688  0.00  0.00    +0.143 A 
ATOM     11  O   UNL     1       3.251  -1.846   2.043  0.00  0.00    -0.477 OA
ATOM     12  H   UNL     1       6.545  -3.332   1.183  0.00  0.00    +0.155 HD
ENDROOT
BRANCH   7  13
ATOM     13  N   UNL     1       3.499  -7.205   0.694  0.00  0.00    -0.358 N 
ATOM     14  H   UNL     1       4.347  -7.605   0.445  0.00  0.00    +0.142 HD
ATOM     15  H   UNL     1       2.695  -7.748   0.715  0.00  0.00    +0.142 HD
ENDBRANCH   7  13
BRANCH   1  16
ATOM     16  C   UNL     1       3.711  -0.707  -0.038  0.00  0.00    +0.089 C 
BRANCH  16  20
ATOM     17  C   UNL     1      -0.017   1.378   0.010  0.00  0.00    +0.000 A 
ATOM     18  C   UNL     1       1.171   2.086   0.002  0.00  0.00    +0.000 A 
ATOM     19  C   UNL     1       2.377   1.411  -0.013  0.00  0.00    +0.004 A 
ATOM     20  C   UNL     1       2.396   0.029  -0.020  0.00  0.00    -0.043 A 
ATOM     21  C   UNL     1       1.208  -0.679  -0.012  0.00  0.00    +0.004 A 
ATOM     22  C   UNL     1       0.002  -0.004   0.002  0.00  0.00    +0.000 A 
ENDBRANCH  16  20
ENDBRANCH   1  16
TORSDOF 3
