REMARK  Name = ZINC38688628
REMARK  10 active torsions:
REMARK  status: ('A' for Active; 'I' for Inactive)
REMARK    1  A    between atoms: C_1  and  O_2
REMARK    2  A    between atoms: O_2  and  C_3
REMARK    3  A    between atoms: C_7  and  C_11
REMARK    4  A    between atoms: C_8  and  O_9
REMARK    5  A    between atoms: O_9  and  C_10
REMARK    6  A    between atoms: C_16  and  O_25
REMARK    7  A    between atoms: C_20  and  N_24
REMARK    8  A    between atoms: C_21  and  C_22
REMARK    9  A    between atoms: O_25  and  C_26
REMARK   10  A    between atoms: C_26  and  C_28
REMARK                            x       y       z     vdW  Elec       q    Type
REMARK                         _______ _______ _______ _____ _____    ______ ____
ROOT
ATOM      1  C   UNL     1       1.175  -4.207   2.233  0.00  0.00    +0.102 C 
ATOM      2  C   UNL     1       2.538  -4.808   2.014  0.00  0.00    +0.008 A 
ATOM      3  C   UNL     1       3.010  -4.972   0.724  0.00  0.00    +0.012 A 
ATOM      4  C   UNL     1       4.257  -5.522   0.503  0.00  0.00    +0.047 A 
ATOM      5  C   UNL     1       5.043  -5.912   1.579  0.00  0.00    +0.135 A 
ATOM      6  C   UNL     1       4.573  -5.749   2.872  0.00  0.00    +0.093 A 
ATOM      7  C   UNL     1       3.318  -5.196   3.092  0.00  0.00    +0.138 A 
ATOM      8  O   UNL     1       2.873  -5.043   4.363  0.00  0.00    -0.441 OA
ATOM      9  C   UNL     1       1.560  -4.885   4.599  0.00  0.00    +0.199 C 
ATOM     10  C   UNL     1       0.704  -4.491   3.631  0.00  0.00    +0.098 C 
ENDROOT
BRANCH   1  15
ATOM     11  C   UNL     1       0.467  -0.726   0.926  0.00  0.00    +0.162 A 
ATOM     12  C   UNL     1       1.386   0.025   1.642  0.00  0.00    +0.049 A 
ATOM     13  C   UNL     1       2.230  -0.594   2.545  0.00  0.00    +0.004 A 
ATOM     14  C   UNL     1       2.161  -1.962   2.735  0.00  0.00    +0.008 A 
ATOM     15  C   UNL     1       1.247  -2.717   2.023  0.00  0.00    +0.011 A 
ATOM     16  C   UNL     1       0.394  -2.102   1.121  0.00  0.00    +0.166 A 
BRANCH  11  18
ATOM     17  C   UNL     1      -0.233   1.296  -0.112  0.00  0.00    +0.277 C 
ATOM     18  O   UNL     1      -0.364  -0.119   0.037  0.00  0.00    -0.491 OA
ENDBRANCH  11  18
BRANCH  16  19
ATOM     19  O   UNL     1      -0.510  -2.842   0.424  0.00  0.00    -0.491 OA
ATOM     20  C   UNL     1      -0.084  -3.369  -0.834  0.00  0.00    +0.277 C 
ENDBRANCH  16  19
ENDBRANCH   1  15
BRANCH   9  21
ATOM     21  N   UNL     1       1.076  -5.131   5.860  0.00  0.00    -0.328 N 
ATOM     22  H   UNL     1       1.679  -5.415   6.564  0.00  0.00    +0.145 HD
ATOM     23  H   UNL     1       0.130  -5.022   6.046  0.00  0.00    +0.145 HD
ENDBRANCH   9  21
BRANCH  10  24
ATOM     24  C   UNL     1      -0.685  -4.341   3.948  0.00  0.00    +0.101 C 
ATOM     25  N   UNL     1      -1.786  -4.222   4.199  0.00  0.00    -0.191 NA
ENDBRANCH  10  24
BRANCH   5  26
ATOM     26  O   UNL     1       6.271  -6.453   1.365  0.00  0.00    -0.422 OA
BRANCH  26  27
ATOM     27  C   UNL     1       6.440  -7.765   1.627  0.00  0.00    +0.353 C 
ATOM     28  O   UNL     1       5.485  -8.450   1.941  0.00  0.00    -0.244 OA
BRANCH  27  29
ATOM     29  C   UNL     1       7.775  -8.366   1.536  0.00  0.00    +0.116 A 
ATOM     30  C   UNL     1       8.140  -9.659   1.756  0.00  0.00    +0.070 A 
ATOM     31  C   UNL     1       9.488 -10.040   1.614  0.00  0.00    +0.008 A 
ATOM     32  C   UNL     1      10.061 -11.324   1.798  0.00  0.00    +0.010 A 
ATOM     33  C   UNL     1      11.393 -11.523   1.621  0.00  0.00    +0.001 A 
ATOM     34  C   UNL     1      12.242 -10.485   1.254  0.00  0.00    +0.001 A 
ATOM     35  C   UNL     1      11.725  -9.219   1.064  0.00  0.00    +0.016 A 
ATOM     36  C   UNL     1      10.375  -9.002   1.241  0.00  0.00    +0.022 A 
ATOM     37  S   UNL     1       9.318  -7.583   1.101  0.00  0.00    -0.080 S 
ATOM     38 CL   UNL     1       6.947 -10.835   2.210  0.00  0.00    -0.082 Cl
ENDBRANCH  27  29
ENDBRANCH  26  27
ENDBRANCH   5  26
TORSDOF 8
