REMARK  Name = ZINC38288372
REMARK  10 active torsions:
REMARK  status: ('A' for Active; 'I' for Inactive)
REMARK    1  A    between atoms: C_1  and  C_2
REMARK    2  A    between atoms: C_2  and  C_3
REMARK    3  A    between atoms: C_2  and  N_4
REMARK    4  A    between atoms: C_5  and  C_7
REMARK    5  A    between atoms: C_10  and  C_28
REMARK    6  A    between atoms: C_11  and  C_12
REMARK    7  A    between atoms: C_11  and  C_13
REMARK    8  A    between atoms: N_15  and  O_16
REMARK    9  A    between atoms: O_16  and  C_17
REMARK   10  A    between atoms: C_17  and  C_19
REMARK                            x       y       z     vdW  Elec       q    Type
REMARK                         _______ _______ _______ _____ _____    ______ ____
ROOT
ATOM      1  C   UNL     1      -3.057  -2.256  -0.474  0.00  0.00    +0.058 C 
ATOM      2  C   UNL     1      -3.714  -2.428   0.930  0.00  0.00    +0.018 C 
ATOM      3  C   UNL     1      -4.892  -3.399   0.689  0.00  0.00    +0.014 C 
ATOM      4  C   UNL     1      -4.827  -3.724  -0.835  0.00  0.00    +0.015 C 
ATOM      5  C   UNL     1      -3.277  -3.690  -1.074  0.00  0.00    -0.010 C 
ATOM      6  C   UNL     1      -2.904  -3.757  -2.557  0.00  0.00    +0.013 C 
ATOM      7  C   UNL     1      -2.562  -4.770  -0.259  0.00  0.00    +0.013 C 
ATOM      8  C   UNL     1      -5.255  -2.422  -1.526  0.00  0.00    +0.066 C 
ATOM      9  N   UNL     1      -6.344  -2.203  -2.162  0.00  0.00    -0.083 NA
ATOM     10  C   UNL     1      -4.094  -1.444  -1.310  0.00  0.00    +0.071 C 
ATOM     11  C   UNL     1      -5.549  -4.999  -1.276  0.00  0.00    +0.018 C 
ENDROOT
BRANCH   1  13
ATOM     12  N   UNL     1      -1.372  -0.511   0.012  0.00  0.00    -0.313 N 
ATOM     13  C   UNL     1      -1.643  -1.734  -0.485  0.00  0.00    +0.220 C 
ATOM     14  O   UNL     1      -0.749  -2.415  -0.941  0.00  0.00    -0.275 OA
ATOM     15  H   UNL     1      -2.087   0.033   0.377  0.00  0.00    +0.149 HD
BRANCH  12  17
ATOM     16  C   UNL     1      -0.019   1.526   0.010  0.00  0.00    +0.027 C 
ATOM     17  C   UNL     1       0.002  -0.004   0.002  0.00  0.00    +0.067 C 
ATOM     18  C   UNL     1       0.742  -0.511   1.242  0.00  0.00    +0.027 C 
ENDBRANCH  12  17
ENDBRANCH   1  13
BRANCH   9  19
ATOM     19  O   UNL     1      -7.312  -3.228  -2.283  0.00  0.00    -0.312 OA
BRANCH  19  20
ATOM     20  C   UNL     1      -8.410  -2.867  -2.975  0.00  0.00    +0.368 C 
ATOM     21  O   UNL     1      -8.499  -1.743  -3.429  0.00  0.00    -0.243 OA
BRANCH  20  22
ATOM     22  C   UNL     1      -9.504  -3.835  -3.182  0.00  0.00    +0.080 A 
ATOM     23  C   UNL     1      -9.407  -5.126  -2.657  0.00  0.00    +0.018 A 
ATOM     24  C   UNL     1     -10.433  -6.026  -2.853  0.00  0.00    +0.021 A 
ATOM     25  C   UNL     1     -11.559  -5.653  -3.569  0.00  0.00    +0.042 A 
ATOM     26  C   UNL     1     -11.662  -4.376  -4.093  0.00  0.00    +0.040 A 
ATOM     27  C   UNL     1     -10.645  -3.463  -3.899  0.00  0.00    +0.056 A 
ATOM     28 CL   UNL     1     -10.779  -1.859  -4.550  0.00  0.00    -0.083 Cl
ATOM     29 CL   UNL     1     -12.845  -6.793  -3.812  0.00  0.00    -0.083 Cl
ENDBRANCH  20  22
ENDBRANCH  19  20
ENDBRANCH   9  19
TORSDOF 5
