REMARK  Name = ZINC16448845
REMARK  12 active torsions:
REMARK  status: ('A' for Active; 'I' for Inactive)
REMARK    1  A    between atoms: C_1  and  C_2
REMARK    2  A    between atoms: C_2  and  C_3
REMARK    3  A    between atoms: C_3  and  O_4
REMARK    4  A    between atoms: O_4  and  C_5
REMARK    5  A    between atoms: C_6  and  O_28
REMARK    6  A    between atoms: C_8  and  C_12
REMARK    7  A    between atoms: C_13  and  C_14
REMARK    8  A    between atoms: C_13  and  C_16
REMARK    9  A    between atoms: C_21  and  C_27
REMARK   10  A    between atoms: C_22  and  C_26
REMARK   11  A    between atoms: O_28  and  C_29
REMARK   12  A    between atoms: C_29  and  C_30
REMARK                            x       y       z     vdW  Elec       q    Type
REMARK                         _______ _______ _______ _____ _____    ______ ____
ROOT
ATOM      1  C   UNL     1       2.913  -4.527   0.038  0.00  0.00    +0.030 C 
ATOM      2  C   UNL     1       3.586  -3.817  -0.913  0.00  0.00    +0.094 C 
ENDROOT
BRANCH   2   3
ATOM      3  C   UNL     1       2.854  -3.228  -2.049  0.00  0.00    +0.150 A 
ATOM      4  N   UNL     1       3.392  -2.376  -2.978  0.00  0.00    -0.337 N 
ATOM      5  H   UNL     1       4.336  -2.047  -3.005  0.00  0.00    +0.167 HD
ATOM      6  C   UNL     1       2.385  -2.055  -3.868  0.00  0.00    +0.067 A 
ATOM      7  C   UNL     1       2.319  -1.252  -4.998  0.00  0.00    +0.031 A 
ATOM      8  C   UNL     1       1.130  -1.137  -5.688  0.00  0.00    -0.045 A 
ATOM      9  C   UNL     1      -0.000  -1.819  -5.259  0.00  0.00    -0.045 A 
ATOM     10  C   UNL     1       0.045  -2.614  -4.149  0.00  0.00    +0.033 A 
ATOM     11  C   UNL     1       1.240  -2.746  -3.434  0.00  0.00    +0.090 A 
ATOM     12  N   UNL     1       1.588  -3.441  -2.324  0.00  0.00    -0.227 NA
ATOM     13  C   UNL     1      -1.289  -1.686  -6.029  0.00  0.00    +0.044 C 
ATOM     14  C   UNL     1       1.057  -0.266  -6.915  0.00  0.00    +0.044 C 
ENDBRANCH   2   3
BRANCH   1  18
ATOM     15  C   UNL     1      -1.329  -4.516   0.084  0.00  0.00    +0.176 A 
ATOM     16  C   UNL     1      -0.636  -5.710   0.281  0.00  0.00    +0.164 A 
ATOM     17  C   UNL     1       0.745  -5.719   0.267  0.00  0.00    +0.057 A 
ATOM     18  C   UNL     1       1.447  -4.525   0.055  0.00  0.00    -0.019 A 
ATOM     19  C   UNL     1       0.744  -3.329  -0.136  0.00  0.00    +0.027 A 
ATOM     20  C   UNL     1      -0.634  -3.331  -0.126  0.00  0.00    +0.064 A 
ATOM     21 BR   UNL     1      -1.582  -1.717  -0.391  0.00  0.00    -0.046 Br
BRANCH  15  22
ATOM     22  O   UNL     1      -2.687  -4.511   0.098  0.00  0.00    -0.487 OA
BRANCH  22  23
ATOM     23  C   UNL     1      -3.322  -4.295   1.360  0.00  0.00    +0.229 C 
BRANCH  23  25
ATOM     24  C   UNL     1      -5.521  -4.091   2.529  0.00  0.00    +0.007 C 
ATOM     25  C   UNL     1      -4.841  -4.323   1.178  0.00  0.00    +0.038 C 
ENDBRANCH  23  25
ENDBRANCH  22  23
ENDBRANCH  15  22
BRANCH  16  26
ATOM     26  O   UNL     1      -1.321  -6.867   0.486  0.00  0.00    -0.489 OA
BRANCH  26  27
ATOM     27  C   UNL     1      -0.547  -8.053   0.681  0.00  0.00    +0.226 C 
ATOM     28  C   UNL     1      -1.484  -9.243   0.895  0.00  0.00    +0.048 C 
ENDBRANCH  26  27
ENDBRANCH  16  26
ENDBRANCH   1  18
BRANCH   2  29
ATOM     29  C   UNL     1       5.004  -3.645  -0.809  0.00  0.00    +0.103 C 
ATOM     30  N   UNL     1       6.129  -3.508  -0.726  0.00  0.00    -0.191 NA
ENDBRANCH   2  29
TORSDOF 8
