REMARK  Name = ZINC23054899
REMARK  11 active torsions:
REMARK  status: ('A' for Active; 'I' for Inactive)
REMARK    1  A    between atoms: C_1  and  C_2
REMARK    2  A    between atoms: C_6  and  C_32
REMARK    3  A    between atoms: C_7  and  N_8
REMARK    4  A    between atoms: C_9  and  C_11
REMARK    5  A    between atoms: C_11  and  S_12
REMARK    6  A    between atoms: S_12  and  C_13
REMARK    7  A    between atoms: C_16  and  C_21
REMARK    8  A    between atoms: N_17  and  C_18
REMARK    9  A    between atoms: C_18  and  C_19
REMARK   10  A    between atoms: C_32  and  C_33
REMARK   11  A    between atoms: C_32  and  C_34
REMARK                            x       y       z     vdW  Elec       q    Type
REMARK                         _______ _______ _______ _____ _____    ______ ____
ROOT
ATOM      1  C   UNL     1      -7.583   1.151   0.443  0.00  0.00    +0.192 A 
ATOM      2  N   UNL     1      -7.467  -0.153   0.340  0.00  0.00    -0.122 NA
ATOM      3  N   UNL     1      -8.626  -0.703   0.418  0.00  0.00    -0.129 NA
ATOM      4  C   UNL     1      -9.544   0.209   0.574  0.00  0.00    +0.179 A 
ATOM      5  N   UNL     1      -8.912   1.422   0.602  0.00  0.00    -0.299 N 
ENDROOT
BRANCH   4   6
ATOM      6  C   UNL     1     -11.026  -0.030   0.707  0.00  0.00    +0.278 C 
ATOM      7  C   UNL     1     -11.613  -0.411  -0.659  0.00  0.00    +0.281 C 
ATOM      8  O   UNL     1     -13.016  -0.643  -0.494  0.00  0.00    -0.484 OA
ATOM      9  C   UNL     1     -13.388  -1.414   0.563  0.00  0.00    +0.162 A 
ATOM     10  C   UNL     1     -14.658  -1.972   0.585  0.00  0.00    +0.049 A 
ATOM     11  C   UNL     1     -15.052  -2.754   1.654  0.00  0.00    +0.004 A 
ATOM     12  C   UNL     1     -14.182  -2.983   2.704  0.00  0.00    +0.004 A 
ATOM     13  C   UNL     1     -12.915  -2.431   2.688  0.00  0.00    +0.049 A 
ATOM     14  C   UNL     1     -12.513  -1.646   1.618  0.00  0.00    +0.163 A 
ATOM     15  O   UNL     1     -11.261  -1.112   1.614  0.00  0.00    -0.474 OA
ENDBRANCH   4   6
BRANCH   1  16
ATOM     16  S   UNL     1      -6.273   2.327   0.394  0.00  0.00    -0.077 S 
BRANCH  16  17
ATOM     17  C   UNL     1      -4.861   1.216   0.173  0.00  0.00    +0.173 C 
BRANCH  17  19
ATOM     18  N   UNL     1      -2.406   1.405  -0.062  0.00  0.00    -0.284 N 
ATOM     19  C   UNL     1      -3.592   2.025   0.102  0.00  0.00    +0.228 C 
ATOM     20  O   UNL     1      -3.637   3.234   0.192  0.00  0.00    -0.275 OA
ATOM     21  H   UNL     1      -2.372   0.318  -0.227  0.00  0.00    +0.155 HD
BRANCH  18  28
ATOM     22  C   UNL     1      -1.470   2.312   2.467  0.00  0.00    +0.045 C 
ATOM     23  C   UNL     1      -0.726   2.606   1.190  0.00  0.00    -0.029 A 
ATOM     24  C   UNL     1       0.443   3.341   1.225  0.00  0.00    +0.005 A 
ATOM     25  C   UNL     1       1.126   3.612   0.054  0.00  0.00    +0.001 A 
ATOM     26  C   UNL     1       0.640   3.149  -1.156  0.00  0.00    +0.006 A 
ATOM     27  C   UNL     1      -0.528   2.414  -1.197  0.00  0.00    -0.023 A 
ATOM     28  C   UNL     1      -1.219   2.145  -0.023  0.00  0.00    +0.040 A 
BRANCH  27  29
ATOM     29  C   UNL     1      -1.056   1.911  -2.516  0.00  0.00    +0.015 C 
ATOM     30  C   UNL     1      -1.333   3.098  -3.441  0.00  0.00    +0.012 C 
ATOM     31  C   UNL     1      -0.019   0.991  -3.163  0.00  0.00    +0.012 C 
ENDBRANCH  27  29
ENDBRANCH  18  28
ENDBRANCH  17  19
ENDBRANCH  16  17
ENDBRANCH   1  16
BRANCH   5  32
ATOM     32  C   UNL     1      -9.533   2.739   0.765  0.00  0.00    +0.152 C 
BRANCH  32  33
ATOM     33  C   UNL     1      -9.894   3.295  -0.588  0.00  0.00    -0.013 C 
ATOM     34  C   UNL     1     -11.124   3.671  -0.835  0.00  0.00    +0.005 C 
ENDBRANCH  32  33
ENDBRANCH   5  32
TORSDOF 8
