REMARK  Name = ZINC06149062
REMARK  15 active torsions:
REMARK  status: ('A' for Active; 'I' for Inactive)
REMARK    1  A    between atoms: C_1  and  C_2
REMARK    2  A    between atoms: C_2  and  C_3
REMARK    3  A    between atoms: C_3  and  C_4
REMARK    4  A    between atoms: C_3  and  C_5
REMARK    5  A    between atoms: C_3  and  N_6
REMARK    6  A    between atoms: C_7  and  C_11
REMARK    7  A    between atoms: C_11  and  C_13
REMARK    8  A    between atoms: C_11  and  N_78
REMARK    9  A    between atoms: C_17  and  C_26
REMARK   10  A    between atoms: C_18  and  C_25
REMARK   11  A    between atoms: C_27  and  C_28
REMARK   12  A    between atoms: C_27  and  N_78
REMARK   13  A    between atoms: C_28  and  C_29
REMARK   14  A    between atoms: C_35  and  C_36
REMARK   15  A    between atoms: C_35  and  N_78
REMARK                            x       y       z     vdW  Elec       q    Type
REMARK                         _______ _______ _______ _____ _____    ______ ____
ROOT
ATOM      1  C   UNL     1      -1.496  -1.738   0.050  0.00  0.00    +0.039 C 
ENDROOT
BRANCH   1   2
ATOM      2  C   UNL     1      -2.949  -2.042  -0.208  0.00  0.00    +0.011 A 
ATOM      3  C   UNL     1      -3.310  -2.714  -1.329  0.00  0.00    +0.017 A 
ATOM      4  C   UNL     1      -4.731  -2.993  -1.550  0.00  0.00    -0.001 A 
ATOM      5  C   UNL     1      -5.164  -3.683  -2.687  0.00  0.00    +0.013 A 
ATOM      6  C   UNL     1      -6.496  -3.928  -2.864  0.00  0.00    -0.047 A 
ATOM      7  C   UNL     1      -7.424  -3.498  -1.925  0.00  0.00    -0.046 A 
ATOM      8  C   UNL     1      -7.020  -2.817  -0.797  0.00  0.00    +0.030 A 
ATOM      9  C   UNL     1      -5.668  -2.557  -0.595  0.00  0.00    +0.049 A 
ATOM     10  N   UNL     1      -5.236  -1.878   0.524  0.00  0.00    -0.322 N 
ATOM     11  H   UNL     1      -5.904  -1.565   1.199  0.00  0.00    +0.169 HD
ATOM     12  C   UNL     1      -3.929  -1.631   0.721  0.00  0.00    +0.251 A 
ATOM     13  O   UNL     1      -3.582  -1.032   1.724  0.00  0.00    -0.268 OA
ATOM     14  C   UNL     1      -8.889  -3.780  -2.141  0.00  0.00    +0.044 C 
ATOM     15  C   UNL     1      -6.963  -4.670  -4.090  0.00  0.00    +0.044 C 
ENDBRANCH   1   2
BRANCH   1  17
ATOM     16  N   UNL     1      -0.152  -3.520   1.283  0.00  0.00    -0.225 N 
ATOM     17  C   UNL     1      -1.031  -2.501   1.263  0.00  0.00    +0.143 A 
ATOM     18  N   UNL     1      -1.399  -2.297   2.504  0.00  0.00    -0.115 NA
ATOM     19  N   UNL     1      -0.785  -3.152   3.247  0.00  0.00    -0.023 NA
ATOM     20  N   UNL     1      -0.028  -3.891   2.513  0.00  0.00    -0.043 NA
BRANCH  16  21
ATOM     21  C   UNL     1       0.535  -4.100   0.126  0.00  0.00    +0.061 C 
ATOM     22  C   UNL     1      -0.500  -4.599  -0.884  0.00  0.00    +0.036 C 
ATOM     23  C   UNL     1       1.416  -3.036  -0.530  0.00  0.00    +0.036 C 
BRANCH  21  25
ATOM     24  C   UNL     1       2.123  -5.877  -0.623  0.00  0.00    +0.006 C 
ATOM     25  C   UNL     1       1.406  -5.271   0.585  0.00  0.00    +0.026 C 
ENDBRANCH  21  25
ENDBRANCH  16  21
ENDBRANCH   1  17
BRANCH   1  26
ATOM     26  N   UNL     1      -1.349  -0.290   0.305  0.00  0.00    +0.392 N 
ATOM     27  H   UNL     1      -2.001  -0.015   1.049  0.00  0.00    -0.080 HD
BRANCH  26  28
ATOM     28  C   UNL     1       0.031   0.009   0.741  0.00  0.00    -0.072 C 
BRANCH  28  29
ATOM     29  C   UNL     1       0.097   1.464   1.211  0.00  0.00    +0.016 C 
BRANCH  29  30
ATOM     30  C   UNL     1       1.494   1.778   1.679  0.00  0.00    -0.049 A 
ATOM     31  C   UNL     1       1.839   1.583   3.004  0.00  0.00    +0.003 A 
ATOM     32  C   UNL     1       3.123   1.866   3.432  0.00  0.00    +0.000 A 
ATOM     33  C   UNL     1       4.058   2.355   2.539  0.00  0.00    +0.000 A 
ATOM     34  C   UNL     1       3.711   2.555   1.216  0.00  0.00    +0.000 A 
ATOM     35  C   UNL     1       2.429   2.267   0.786  0.00  0.00    +0.003 A 
ENDBRANCH  29  30
ENDBRANCH  28  29
ENDBRANCH  26  28
BRANCH  26  36
ATOM     36  C   UNL     1      -1.669   0.474  -0.919  0.00  0.00    -0.042 C 
BRANCH  36  37
ATOM     37  C   UNL     1      -0.647   0.202  -1.994  0.00  0.00    -0.064 A 
ATOM     38  C   UNL     1       0.478   0.998  -2.096  0.00  0.00    +0.002 A 
ATOM     39  C   UNL     1       1.417   0.744  -3.078  0.00  0.00    +0.000 A 
ATOM     40  C   UNL     1       1.225  -0.298  -3.965  0.00  0.00    +0.000 A 
ATOM     41  C   UNL     1       0.097  -1.091  -3.866  0.00  0.00    +0.000 A 
ATOM     42  C   UNL     1      -0.839  -0.841  -2.881  0.00  0.00    +0.002 A 
ENDBRANCH  36  37
ENDBRANCH  26  36
ENDBRANCH   1  26
TORSDOF 10
