REMARK  Name = ZINC35074486
REMARK  9 active torsions:
REMARK  status: ('A' for Active; 'I' for Inactive)
REMARK    1  A    between atoms: C_1  and  C_2
REMARK    2  A    between atoms: C_2  and  C_3
REMARK    3  A    between atoms: C_6  and  N_9
REMARK    4  A    between atoms: C_14  and  C_27
REMARK    5  A    between atoms: C_17  and  C_22
REMARK    6  A    between atoms: C_17  and  C_24
REMARK    7  A    between atoms: C_22  and  O_23
REMARK    8  A    between atoms: C_32  and  O_33
REMARK    9  A    between atoms: O_33  and  C_34
REMARK                            x       y       z     vdW  Elec       q    Type
REMARK                         _______ _______ _______ _____ _____    ______ ____
ROOT
ATOM      1  N   UNL     1       2.955  -2.220  -4.502  0.00  0.00    -0.210 N 
ATOM      2  C   UNL     1       2.208  -2.384  -5.643  0.00  0.00    +0.229 C 
ATOM      3  O   UNL     1       1.042  -2.097  -5.811  0.00  0.00    -0.275 OA
ATOM      4  C   UNL     1       3.116  -2.972  -6.596  0.00  0.00    +0.077 C 
ATOM      5  C   UNL     1       3.282  -3.148  -8.049  0.00  0.00    -0.023 C 
ATOM      6  N   UNL     1       4.684  -3.683  -8.143  0.00  0.00    +0.397 N 
ATOM      7  C   UNL     1       5.416  -3.266  -6.910  0.00  0.00    +0.071 C 
ATOM      8  C   UNL     1       4.478  -2.269  -6.213  0.00  0.00    +0.088 C 
ATOM      9  C   UNL     1       4.295  -2.368  -4.723  0.00  0.00    +0.229 C 
ATOM     10  O   UNL     1       5.159  -2.546  -3.892  0.00  0.00    -0.275 OA
ATOM     11  H   UNL     1       4.662  -4.690  -8.203  0.00  0.00    -0.083 HD
ATOM     12  H   UNL     1       5.142  -3.301  -8.957  0.00  0.00    -0.083 HD
ENDROOT
BRANCH   5  13
ATOM     13  C   UNL     1       2.288  -4.144  -8.588  0.00  0.00    -0.018 A 
ATOM     14  C   UNL     1       2.621  -5.484  -8.658  0.00  0.00    +0.021 A 
ATOM     15  C   UNL     1       1.709  -6.399  -9.152  0.00  0.00    +0.018 A 
ATOM     16  C   UNL     1       0.462  -5.975  -9.577  0.00  0.00    +0.019 A 
ATOM     17  C   UNL     1       0.126  -4.637  -9.508  0.00  0.00    +0.047 A 
ATOM     18  C   UNL     1       1.037  -3.719  -9.008  0.00  0.00    +0.122 A 
ATOM     19 BR   UNL     1       2.167  -8.231  -9.248  0.00  0.00    -0.050 Br
BRANCH  18  20
ATOM     20  O   UNL     1       0.706  -2.402  -8.934  0.00  0.00    -0.495 OA
ATOM     21  C   UNL     1      -0.600  -2.036  -9.384  0.00  0.00    +0.277 C 
ENDBRANCH  18  20
ENDBRANCH   5  13
BRANCH   1  25
ATOM     22  C   UNL     1       1.313  -1.347  -0.771  0.00  0.00    -0.048 A 
ATOM     23  C   UNL     1       0.488  -1.501  -1.869  0.00  0.00    +0.005 A 
ATOM     24  C   UNL     1       1.029  -1.790  -3.107  0.00  0.00    +0.024 A 
ATOM     25  C   UNL     1       2.403  -1.926  -3.248  0.00  0.00    +0.044 A 
ATOM     26  C   UNL     1       3.230  -1.770  -2.143  0.00  0.00    +0.024 A 
ATOM     27  C   UNL     1       2.683  -1.476  -0.909  0.00  0.00    +0.005 A 
BRANCH  22  29
ATOM     28  C   UNL     1       0.623   0.486   0.750  0.00  0.00    +0.009 C 
ATOM     29  C   UNL     1       0.720  -1.031   0.578  0.00  0.00    +0.032 C 
ENDBRANCH  22  29
ENDBRANCH   1  25
BRANCH   7  30
ATOM     30  C   UNL     1       6.707  -2.580  -7.276  0.00  0.00    +0.348 C 
ATOM     31  O   UNL     1       7.025  -2.464  -8.447  0.00  0.00    -0.248 OA
ATOM     32  O   UNL     1       7.435  -2.142  -6.401  0.00  0.00    -0.248 OA
ENDBRANCH   7  30
BRANCH   7  33
ATOM     33  C   UNL     1       5.694  -4.480  -6.022  0.00  0.00    +0.155 C 
BRANCH  33  34
ATOM     34  O   UNL     1       6.518  -5.409  -6.729  0.00  0.00    -0.396 OA
ATOM     35  H   UNL     1       6.735  -6.205  -6.225  0.00  0.00    +0.209 HD
ENDBRANCH  33  34
ENDBRANCH   7  33
TORSDOF 7
