REMARK  Name = ZINC13148179
REMARK  10 active torsions:
REMARK  status: ('A' for Active; 'I' for Inactive)
REMARK    1  A    between atoms: C_1  and  C_2
REMARK    2  A    between atoms: C_2  and  O_3
REMARK    3  A    between atoms: O_3  and  C_4
REMARK    4  A    between atoms: C_4  and  C_6
REMARK    5  A    between atoms: C_7  and  C_35
REMARK    6  A    between atoms: C_11  and  C_15
REMARK    7  A    between atoms: C_15  and  N_67
REMARK    8  A    between atoms: N_21  and  C_22
REMARK    9  A    between atoms: C_22  and  C_24
REMARK   10  A    between atoms: C_22  and  C_25
REMARK                            x       y       z     vdW  Elec       q    Type
REMARK                         _______ _______ _______ _____ _____    ______ ____
ROOT
ATOM      1  C   UNL     1       8.664   2.380   1.747  0.00  0.00    +0.102 A 
ATOM      2  C   UNL     1       8.436   1.080   1.410  0.00  0.00    -0.017 A 
ATOM      3  C   UNL     1       7.244   0.457   1.802  0.00  0.00    +0.051 A 
ATOM      4  C   UNL     1       6.802  -0.879   1.562  0.00  0.00    +0.131 A 
ATOM      5  N   UNL     1       5.628  -1.264   2.033  0.00  0.00    -0.219 NA
ATOM      6  C   UNL     1       4.840  -0.451   2.713  0.00  0.00    +0.116 A 
ATOM      7  N   UNL     1       5.190   0.795   2.968  0.00  0.00    -0.227 NA
ATOM      8  C   UNL     1       6.345   1.264   2.542  0.00  0.00    +0.114 A 
ATOM      9  S   UNL     1       7.190   2.820   2.653  0.00  0.00    -0.062 S 
ATOM     10  N   UNL     1       7.592  -1.760   0.852  0.00  0.00    -0.322 N 
ATOM     11  C   UNL     1       9.464   0.314   0.618  0.00  0.00    +0.046 C 
ATOM     12  H   UNL     1       8.490  -1.503   0.591  0.00  0.00    +0.148 HD
ENDROOT
BRANCH   1  13
ATOM     13  C   UNL     1       9.831   3.212   1.440  0.00  0.00    +0.346 C 
ATOM     14  O   UNL     1      10.758   2.749   0.805  0.00  0.00    -0.244 OA
BRANCH  13  15
ATOM     15  O   UNL     1       9.876   4.492   1.863  0.00  0.00    -0.461 OA
BRANCH  15  17
ATOM     16  C   UNL     1      10.933   6.675   2.084  0.00  0.00    +0.048 C 
ATOM     17  C   UNL     1      11.063   5.257   1.524  0.00  0.00    +0.229 C 
ENDBRANCH  15  17
ENDBRANCH  13  15
ENDBRANCH   1  13
BRANCH  10  18
ATOM     18  C   UNL     1       7.074  -3.082   0.492  0.00  0.00    +0.099 C 
ATOM     19  C   UNL     1       6.274  -2.980  -0.809  0.00  0.00    +0.033 C 
BRANCH  18  20
ATOM     20  C   UNL     1       8.224  -4.037   0.300  0.00  0.00    -0.027 A 
ATOM     21  C   UNL     1       9.379  -3.599  -0.347  0.00  0.00    +0.006 A 
ATOM     22  C   UNL     1      10.438  -4.435  -0.531  0.00  0.00    +0.009 A 
ATOM     23  C   UNL     1      10.364  -5.761  -0.074  0.00  0.00    -0.018 A 
ATOM     24  C   UNL     1      11.435  -6.655  -0.252  0.00  0.00    +0.008 A 
ATOM     25  C   UNL     1      11.328  -7.933   0.204  0.00  0.00    +0.001 A 
ATOM     26  C   UNL     1      10.171  -8.371   0.846  0.00  0.00    +0.001 A 
ATOM     27  C   UNL     1       9.115  -7.535   1.036  0.00  0.00    +0.008 A 
ATOM     28  C   UNL     1       9.188  -6.208   0.579  0.00  0.00    -0.018 A 
ATOM     29  C   UNL     1       8.118  -5.314   0.756  0.00  0.00    +0.014 A 
ENDBRANCH  18  20
ENDBRANCH  10  18
BRANCH   6  30
ATOM     30  C   UNL     1       3.512  -0.959   3.214  0.00  0.00    -0.001 C 
BRANCH  30  36
ATOM     31  C   UNL     1       1.228  -1.402   2.545  0.00  0.00    -0.078 C 
ATOM     32  C   UNL     1       0.226  -1.245   1.399  0.00  0.00    -0.019 C 
ATOM     33  C   UNL     1      -0.039   0.244   1.159  0.00  0.00    -0.004 C 
ATOM     34  C   UNL     1       1.286   0.946   0.849  0.00  0.00    -0.019 C 
ATOM     35  C   UNL     1       2.259   0.725   2.010  0.00  0.00    -0.078 C 
ATOM     36  N   UNL     1       2.490  -0.726   2.174  0.00  0.00    +0.384 N 
ATOM     37  H   UNL     1       2.825  -1.112   1.284  0.00  0.00    -0.081 HD
ENDBRANCH  30  36
ENDBRANCH   6  30
TORSDOF 7
