REMARK  Name = ZINC38848417
REMARK  12 active torsions:
REMARK  status: ('A' for Active; 'I' for Inactive)
REMARK    1  A    between atoms: C_1  and  C_2
REMARK    2  A    between atoms: C_5  and  O_32
REMARK    3  A    between atoms: N_11  and  C_12
REMARK    4  A    between atoms: C_12  and  C_13
REMARK    5  A    between atoms: C_13  and  C_14
REMARK    6  A    between atoms: C_14  and  N_15
REMARK    7  A    between atoms: C_20  and  C_22
REMARK    8  A    between atoms: C_26  and  S_28
REMARK    9  A    between atoms: S_28  and  C_29
REMARK   10  A    between atoms: C_29  and  C_30
REMARK   11  A    between atoms: C_29  and  C_31
REMARK   12  A    between atoms: O_32  and  C_33
REMARK                            x       y       z     vdW  Elec       q    Type
REMARK                         _______ _______ _______ _____ _____    ______ ____
ROOT
ATOM      1  C   UNL     1       1.427   0.517  -0.173  0.00  0.00    +0.045 C 
ATOM      2  C   UNL     1       0.932  -0.898  -0.025  0.00  0.00    -0.034 A 
ATOM      3  C   UNL     1       0.877  -1.734  -1.126  0.00  0.00    +0.008 A 
ATOM      4  C   UNL     1       0.419  -3.034  -0.971  0.00  0.00    +0.048 A 
ATOM      5  C   UNL     1       0.018  -3.511   0.255  0.00  0.00    +0.147 A 
ATOM      6  C   UNL     1       0.061  -2.681   1.403  0.00  0.00    +0.122 A 
ATOM      7  C   UNL     1       0.538  -1.367   1.205  0.00  0.00    +0.047 A 
ATOM      8  S   UNL     1       0.445  -0.679   2.840  0.00  0.00    -0.051 S 
ATOM      9  C   UNL     1      -0.193  -2.134   3.659  0.00  0.00    +0.168 A 
ATOM     10  N   UNL     1      -0.294  -2.990   2.670  0.00  0.00    -0.221 NA
ATOM     11  N   UNL     1      -0.511  -2.309   4.996  0.00  0.00    -0.246 N 
ATOM     12  C   UNL     1      -0.252  -1.330   5.885  0.00  0.00    +0.252 C 
ATOM     13  O   UNL     1       0.206  -0.270   5.504  0.00  0.00    -0.270 OA
ENDROOT
BRANCH  12  14
ATOM     14  C   UNL     1      -0.526  -1.544   7.321  0.00  0.00    +0.038 A 
ATOM     15  C   UNL     1      -0.478  -2.831   7.859  0.00  0.00    +0.013 A 
ATOM     16  C   UNL     1      -0.733  -3.029   9.201  0.00  0.00    +0.002 A 
ATOM     17  C   UNL     1      -1.037  -1.955  10.017  0.00  0.00    +0.015 A 
ATOM     18  C   UNL     1      -1.088  -0.669   9.491  0.00  0.00    +0.009 A 
ATOM     19  C   UNL     1      -0.827  -0.459   8.145  0.00  0.00    +0.027 A 
BRANCH  18  20
ATOM     20  S   UNL     1      -1.476   0.696  10.537  0.00  0.00    -0.122 S 
BRANCH  20  21
ATOM     21  C   UNL     1      -3.290   0.738  10.547  0.00  0.00    +0.045 C 
ATOM     22  C   UNL     1      -3.824  -0.481  11.302  0.00  0.00    +0.019 C 
ATOM     23  C   UNL     1      -3.766   2.016  11.240  0.00  0.00    +0.019 C 
ENDBRANCH  20  21
ENDBRANCH  18  20
ENDBRANCH  12  14
BRANCH   5  24
ATOM     24  O   UNL     1      -0.426  -4.792   0.366  0.00  0.00    -0.493 OA
ATOM     25  C   UNL     1      -0.446  -5.577  -0.828  0.00  0.00    +0.277 C 
ENDBRANCH   5  24
BRANCH  11  26
ATOM     26  C   UNL     1      -1.130  -3.560   5.444  0.00  0.00    +0.117 C 
BRANCH  26  27
ATOM     27  C   UNL     1      -0.093  -4.684   5.403  0.00  0.00    +0.041 C 
BRANCH  27  28
ATOM     28  C   UNL     1      -0.739  -5.990   5.871  0.00  0.00    +0.124 C 
BRANCH  28  29
ATOM     29  N   UNL     1       0.254  -7.067   5.832  0.00  0.00    -0.338 N 
ATOM     30  C   UNL     1       0.519  -7.889   4.770  0.00  0.00    +0.104 A 
ATOM     31  C   UNL     1       1.496  -8.729   5.163  0.00  0.00    +0.101 A 
ATOM     32  N   UNL     1       1.818  -8.428   6.429  0.00  0.00    -0.352 N 
ATOM     33  C   UNL     1       1.081  -7.430   6.835  0.00  0.00    +0.173 A 
ATOM     34  H   UNL     1       2.494  -8.879   6.959  0.00  0.00    +0.166 HD
ENDBRANCH  28  29
ENDBRANCH  27  28
ENDBRANCH  26  27
ENDBRANCH  11  26
TORSDOF 8
