REMARK  Name = ZINC59390597
REMARK  9 active torsions:
REMARK  status: ('A' for Active; 'I' for Inactive)
REMARK    1  A    between atoms: C_1  and  C_2
REMARK    2  A    between atoms: C_2  and  C_3
REMARK    3  A    between atoms: C_2  and  C_4
REMARK    4  A    between atoms: C_2  and  N_5
REMARK    5  A    between atoms: C_6  and  C_8
REMARK    6  A    between atoms: C_8  and  N_9
REMARK    7  A    between atoms: C_15  and  C_17
REMARK    8  A    between atoms: C_17  and  N_18
REMARK    9  A    between atoms: C_22  and  C_24
REMARK                            x       y       z     vdW  Elec       q    Type
REMARK                         _______ _______ _______ _____ _____    ______ ____
ROOT
ATOM      1  N   UNL     1       2.898  -0.511  -5.654  0.00  0.00    -0.291 NA
ATOM      2  C   UNL     1       2.869   0.937  -5.899  0.00  0.00    +0.104 C 
ATOM      3  C   UNL     1       4.017   1.604  -5.135  0.00  0.00    +0.123 C 
ATOM      4  N   UNL     1       5.274   0.936  -5.505  0.00  0.00    -0.301 N 
ATOM      5  C   UNL     1       5.335  -0.531  -5.416  0.00  0.00    +0.123 C 
ATOM      6  C   UNL     1       4.134  -1.114  -6.170  0.00  0.00    +0.104 C 
ATOM      7  C   UNL     1       6.343   1.649  -5.913  0.00  0.00    +0.199 C 
ATOM      8  O   UNL     1       6.275   2.858  -5.979  0.00  0.00    -0.278 OA
ENDROOT
BRANCH   1   9
ATOM      9  C   UNL     1       1.714  -1.166  -6.228  0.00  0.00    +0.180 C 
BRANCH   9  11
ATOM     10  N   UNL     1      -0.732  -1.167  -5.861  0.00  0.00    -0.310 N 
ATOM     11  C   UNL     1       0.480  -0.697  -5.503  0.00  0.00    +0.227 C 
ATOM     12  O   UNL     1       0.576   0.104  -4.597  0.00  0.00    -0.274 OA
ATOM     13  H   UNL     1      -0.809  -1.808  -6.585  0.00  0.00    +0.149 HD
BRANCH  10  15
ATOM     14  C   UNL     1      -2.066   0.805  -5.304  0.00  0.00    +0.031 C 
ATOM     15  C   UNL     1      -1.932  -0.712  -5.155  0.00  0.00    +0.026 C 
ATOM     16  C   UNL     1      -1.819  -1.071  -3.672  0.00  0.00    +0.031 C 
ATOM     17  C   UNL     1      -3.164  -1.394  -5.753  0.00  0.00    +0.031 C 
ENDBRANCH  10  15
ENDBRANCH   9  11
ENDBRANCH   1   9
BRANCH   7  18
ATOM     18  C   UNL     1       7.621   0.944  -6.287  0.00  0.00    +0.020 C 
BRANCH  18  19
ATOM     19  N   UNL     1       8.626   1.935  -6.694  0.00  0.00    +0.390 N 
ATOM     20  C   UNL     1       8.213   2.569  -7.965  0.00  0.00    -0.077 C 
ATOM     21  C   UNL     1       9.534   2.797  -8.741  0.00  0.00    -0.020 C 
ATOM     22  C   UNL     1      10.341   1.526  -8.366  0.00  0.00    -0.013 C 
ATOM     23  C   UNL     1       9.924   1.269  -6.902  0.00  0.00    -0.037 C 
ATOM     24  H   UNL     1       8.717   2.641  -5.979  0.00  0.00    -0.080 HD
BRANCH  23  25
ATOM     25  C   UNL     1       9.785  -0.212  -6.662  0.00  0.00    -0.060 A 
ATOM     26  C   UNL     1       9.059  -0.990  -7.544  0.00  0.00    +0.002 A 
ATOM     27  C   UNL     1       8.931  -2.349  -7.324  0.00  0.00    +0.001 A 
ATOM     28  C   UNL     1       9.528  -2.930  -6.221  0.00  0.00    +0.015 A 
ATOM     29  C   UNL     1      10.255  -2.152  -5.338  0.00  0.00    +0.018 A 
ATOM     30  C   UNL     1      10.387  -0.793  -5.562  0.00  0.00    +0.017 A 
ATOM     31 BR   UNL     1      11.072  -2.946  -3.829  0.00  0.00    -0.050 Br
ENDBRANCH  23  25
ENDBRANCH  18  19
ENDBRANCH   7  18
TORSDOF 6
