REMARK  Name = ZINC04830950
REMARK  10 active torsions:
REMARK  status: ('A' for Active; 'I' for Inactive)
REMARK    1  A    between atoms: C_4  and  C_7
REMARK    2  A    between atoms: C_7  and  C_8
REMARK    3  A    between atoms: C_7  and  C_14
REMARK    4  A    between atoms: C_7  and  S_20
REMARK    5  A    between atoms: S_20  and  C_21
REMARK    6  A    between atoms: C_21  and  C_22
REMARK    7  A    between atoms: C_22  and  C_24
REMARK    8  A    between atoms: C_22  and  N_26
REMARK    9  A    between atoms: N_26  and  C_27
REMARK   10  A    between atoms: C_32  and  N_33
REMARK                            x       y       z     vdW  Elec       q    Type
REMARK                         _______ _______ _______ _____ _____    ______ ____
ROOT
ATOM      1  C   UNK A   1       0.076  -0.327   0.124  0.00  0.00    +0.091 C 
ENDROOT
BRANCH   1   5
ATOM      2  C   UNK A   1       1.134   3.802   0.406  0.00  0.00    +0.000 A 
ATOM      3  C   UNK A   1       2.070   2.827   0.697  0.00  0.00    +0.000 A 
ATOM      4  C   UNK A   1       1.727   1.491   0.606  0.00  0.00    +0.005 A 
ATOM      5  C   UNK A   1       0.449   1.129   0.224  0.00  0.00    -0.023 A 
ATOM      6  C   UNK A   1      -0.485   2.104  -0.073  0.00  0.00    +0.005 A 
ATOM      7  C   UNK A   1      -0.144   3.440   0.022  0.00  0.00    +0.000 A 
ENDBRANCH   1   5
BRANCH   1   8
ATOM      8  C   UNK A   1      -1.414  -0.452  -0.063  0.00  0.00    -0.023 A 
ATOM      9  C   UNK A   1      -2.189  -1.030   0.926  0.00  0.00    +0.005 A 
ATOM     10  C   UNK A   1      -3.556  -1.140   0.756  0.00  0.00    +0.000 A 
ATOM     11  C   UNK A   1      -4.148  -0.682  -0.406  0.00  0.00    +0.000 A 
ATOM     12  C   UNK A   1      -3.372  -0.110  -1.397  0.00  0.00    +0.000 A 
ATOM     13  C   UNK A   1      -2.006   0.005  -1.226  0.00  0.00    +0.005 A 
ENDBRANCH   1   8
BRANCH   1  14
ATOM     14  C   UNK A   1       0.784  -0.948  -1.052  0.00  0.00    -0.023 A 
ATOM     15  C   UNK A   1       1.315  -0.143  -2.043  0.00  0.00    +0.005 A 
ATOM     16  C   UNK A   1       1.969  -0.712  -3.120  0.00  0.00    +0.000 A 
ATOM     17  C   UNK A   1       2.082  -2.087  -3.211  0.00  0.00    +0.000 A 
ATOM     18  C   UNK A   1       1.546  -2.892  -2.224  0.00  0.00    +0.000 A 
ATOM     19  C   UNK A   1       0.897  -2.322  -1.144  0.00  0.00    +0.005 A 
ENDBRANCH   1  14
BRANCH   1  20
ATOM     20  S   UNK A   1       0.568  -1.183   1.646  0.00  0.00    -0.137 S 
BRANCH  20  21
ATOM     21  C   UNK A   1      -0.171  -0.185   2.969  0.00  0.00    +0.104 C 
BRANCH  21  22
ATOM     22  C   UNK A   1       0.248  -0.750   4.328  0.00  0.00    +0.194 C 
BRANCH  22  23
ATOM     23  C   UNK A   1      -0.462   0.002   5.424  0.00  0.00    +0.377 C 
ATOM     24  O   UNK A   1       0.176   0.600   6.258  0.00  0.00    -0.244 OA
ATOM     25  O   UNK A   1      -1.803   0.006   5.475  0.00  0.00    -0.244 OA
ENDBRANCH  22  23
BRANCH  22  26
ATOM     26  N   UNK A   1       1.696  -0.601   4.493  0.00  0.00    -0.329 N 
ATOM     27  H   UNK A   1       2.171   0.092   4.008  0.00  0.00    +0.147 HD
BRANCH  26  28
ATOM     28  C   UNK A   0       2.393  -1.458   5.348  0.00  0.00    +0.058 A 
ATOM     29  C   UNK A   0       1.736  -2.520   5.956  0.00  0.00    +0.025 A 
ATOM     30  C   UNK A   0       2.428  -3.365   6.801  0.00  0.00    +0.002 A 
ATOM     31  C   UNK A   0       3.774  -3.155   7.042  0.00  0.00    +0.002 A 
ATOM     32  C   UNK A   0       4.431  -2.099   6.439  0.00  0.00    +0.034 A 
ATOM     33  C   UNK A   0       3.746  -1.253   5.588  0.00  0.00    +0.147 A 
BRANCH  33  34
ATOM     34  N   UNK A   0       4.451  -0.126   4.938  0.00  0.00    +0.058 N 
ATOM     35  O   UNK A   0       5.658  -0.010   5.060  0.00  0.00    -0.126 OA
ATOM     36  O   UNK A   0       3.825   0.686   4.280  0.00  0.00    -0.126 OA
ENDBRANCH  33  34
ENDBRANCH  26  28
ENDBRANCH  22  26
ENDBRANCH  21  22
ENDBRANCH  20  21
ENDBRANCH   1  20
TORSDOF 10
