REMARK  Name = ZINC38719950
REMARK  6 active torsions:
REMARK  status: ('A' for Active; 'I' for Inactive)
REMARK    1  A    between atoms: C_4  and  N_7
REMARK    2  A    between atoms: C_8  and  S_22
REMARK    3  A    between atoms: C_12  and  C_13
REMARK    4  A    between atoms: S_22  and  C_23
REMARK    5  A    between atoms: C_23  and  C_24
REMARK    6  A    between atoms: C_24  and  C_26
REMARK                            x       y       z     vdW  Elec       q    Type
REMARK                         _______ _______ _______ _____ _____    ______ ____
ROOT
ATOM      1  N   UNL     1       3.655  -0.683  -0.388  0.00  0.00    -0.254 N 
ATOM      2  C   UNL     1       3.841  -2.127  -0.164  0.00  0.00    +0.241 C 
ATOM      3  N   UNL     1       5.257  -2.248   0.221  0.00  0.00    -0.237 N 
ATOM      4  N   UNL     1       5.783  -0.951   0.201  0.00  0.00    -0.168 NA
ATOM      5  C   UNL     1       4.889  -0.083  -0.144  0.00  0.00    +0.153 C 
ATOM      6  H   UNL     1       5.732  -3.064   0.444  0.00  0.00    +0.171 HD
ENDROOT
BRANCH   5   7
ATOM      7  C   UNL     1       5.143   1.369  -0.261  0.00  0.00    +0.020 A 
ATOM      8  C   UNL     1       6.368   1.900   0.147  0.00  0.00    +0.015 A 
ATOM      9  C   UNL     1       6.603   3.254   0.038  0.00  0.00    +0.050 A 
ATOM     10  C   UNL     1       5.626   4.093  -0.477  0.00  0.00    +0.166 A 
ATOM     11  C   UNL     1       4.400   3.569  -0.887  0.00  0.00    +0.167 A 
ATOM     12  C   UNL     1       4.161   2.211  -0.784  0.00  0.00    +0.061 A 
ATOM     13  O   UNL     1       3.622   4.591  -1.350  0.00  0.00    -0.453 OA
ATOM     14  C   UNL     1       4.226   5.795  -0.841  0.00  0.00    +0.466 C 
ATOM     15  O   UNL     1       5.613   5.442  -0.685  0.00  0.00    -0.453 OA
ENDBRANCH   5   7
BRANCH   1  19
ATOM     16  C   UNL     1       0.139   1.226  -1.541  0.00  0.00    +0.000 A 
ATOM     17  C   UNL     1       0.958   0.653  -2.497  0.00  0.00    +0.002 A 
ATOM     18  C   UNL     1       2.125   0.019  -2.118  0.00  0.00    +0.023 A 
ATOM     19  C   UNL     1       2.476  -0.043  -0.775  0.00  0.00    +0.038 A 
ATOM     20  C   UNL     1       1.650   0.534   0.183  0.00  0.00    +0.023 A 
ATOM     21  C   UNL     1       0.485   1.166  -0.203  0.00  0.00    +0.002 A 
ENDBRANCH   1  19
BRANCH   2  22
ATOM     22  S   UNL     1       2.763  -2.708   1.174  0.00  0.00    -0.110 S 
BRANCH  22  23
ATOM     23  C   UNL     1       3.285  -1.734   2.612  0.00  0.00    +0.151 C 
BRANCH  23  24
ATOM     24  C   UNL     1       2.457  -2.123   3.810  0.00  0.00    +0.171 C 
ATOM     25  O   UNL     1       1.598  -2.974   3.703  0.00  0.00    -0.291 OA
BRANCH  24  26
ATOM     26  C   UNL     1       2.680  -1.498   5.055  0.00  0.00    +0.024 C 
ATOM     27  C   UNL     1       2.017  -1.741   6.244  0.00  0.00    +0.006 A 
ATOM     28  C   UNL     1       0.971  -2.626   6.599  0.00  0.00    +0.010 A 
ATOM     29  C   UNL     1       0.504  -2.654   7.867  0.00  0.00    +0.001 A 
ATOM     30  C   UNL     1       1.019  -1.827   8.879  0.00  0.00    +0.002 A 
ATOM     31  C   UNL     1       2.017  -0.948   8.645  0.00  0.00    +0.026 A 
ATOM     32  C   UNL     1       2.584  -0.853   7.289  0.00  0.00    +0.043 A 
ATOM     33  N   UNL     1       3.530  -0.110   6.793  0.00  0.00    -0.380 N 
ATOM     34  C   UNL     1       3.700  -0.425   5.371  0.00  0.00    +0.152 C 
ATOM     35  H   UNL     1       4.046   0.547   7.287  0.00  0.00    +0.160 HD
ENDBRANCH  24  26
ENDBRANCH  23  24
ENDBRANCH  22  23
ENDBRANCH   2  22
TORSDOF 6
