REMARK  Name = ZINC64774343
REMARK  8 active torsions:
REMARK  status: ('A' for Active; 'I' for Inactive)
REMARK    1  A    between atoms: C_1  and  C_2
REMARK    2  A    between atoms: C_2  and  C_3
REMARK    3  A    between atoms: C_3  and  O_4
REMARK    4  A    between atoms: O_4  and  C_5
REMARK    5  A    between atoms: C_8  and  C_11
REMARK    6  A    between atoms: C_19  and  S_25
REMARK    7  A    between atoms: S_25  and  C_26
REMARK    8  A    between atoms: C_26  and  C_27
REMARK                            x       y       z     vdW  Elec       q    Type
REMARK                         _______ _______ _______ _____ _____    ______ ____
ROOT
ATOM      1  C   UNL     1      -6.397  -4.588   0.038  0.00  0.00    +0.047 C 
ATOM      2  C   UNL     1      -6.455  -5.571   1.210  0.00  0.00    +0.105 C 
ATOM      3  C   UNL     1      -5.574  -6.759   0.958  0.00  0.00    +0.219 C 
ATOM      4  O   UNL     1      -5.229  -7.428   1.909  0.00  0.00    -0.275 OA
ATOM      5  N   UNL     1      -5.149  -7.123  -0.260  0.00  0.00    -0.273 N 
ATOM      6  C   UNL     1      -5.439  -6.366  -1.359  0.00  0.00    +0.117 C 
ATOM      7  N   UNL     1      -4.748  -6.492  -2.455  0.00  0.00    -0.212 NA
ATOM      8  C   UNL     1      -4.930  -5.688  -3.511  0.00  0.00    +0.182 C 
ATOM      9  N   UNL     1      -5.796  -4.685  -3.492  0.00  0.00    -0.154 NA
ATOM     10  C   UNL     1      -6.587  -4.467  -2.451  0.00  0.00    +0.249 C 
ATOM     11  O   UNL     1      -7.337  -3.511  -2.462  0.00  0.00    -0.273 OA
ATOM     12  C   UNL     1      -6.573  -5.377  -1.262  0.00  0.00    +0.148 C 
ATOM     13  H   UNL     1      -4.627  -7.934  -0.361  0.00  0.00    +0.156 HD
ENDROOT
BRANCH   1  17
ATOM     14  C   UNL     1      -2.616  -2.596   0.013  0.00  0.00    +0.121 A 
ATOM     15  C   UNL     1      -3.789  -1.862  -0.093  0.00  0.00    +0.046 A 
ATOM     16  C   UNL     1      -5.010  -2.508  -0.086  0.00  0.00    +0.007 A 
ATOM     17  C   UNL     1      -5.064  -3.885   0.029  0.00  0.00    -0.042 A 
ATOM     18  C   UNL     1      -3.897  -4.619   0.136  0.00  0.00    +0.007 A 
ATOM     19  C   UNL     1      -2.673  -3.978   0.122  0.00  0.00    +0.046 A 
BRANCH  14  20
ATOM     20  O   UNL     1      -1.414  -1.962   0.005  0.00  0.00    -0.492 OA
BRANCH  20  21
ATOM     21  C   UNL     1      -1.432  -0.538  -0.110  0.00  0.00    +0.229 C 
BRANCH  21  23
ATOM     22  C   UNL     1      -0.016   1.517  -0.225  0.00  0.00    +0.007 C 
ATOM     23  C   UNL     1       0.003  -0.008  -0.102  0.00  0.00    +0.038 C 
ENDBRANCH  21  23
ENDBRANCH  20  21
ENDBRANCH  14  20
ENDBRANCH   1  17
BRANCH   8  24
ATOM     24  S   UNL     1      -3.988  -5.974  -4.972  0.00  0.00    -0.084 S 
BRANCH  24  25
ATOM     25  C   UNL     1      -4.547  -4.680  -6.114  0.00  0.00    +0.103 C 
BRANCH  25  26
ATOM     26  C   UNL     1      -3.809  -4.812  -7.422  0.00  0.00    -0.023 C 
ATOM     27  C   UNL     1      -4.463  -5.119  -8.515  0.00  0.00    +0.005 C 
ENDBRANCH  25  26
ENDBRANCH  24  25
ENDBRANCH   8  24
TORSDOF 7
