REMARK  Name = ZINC47163879
REMARK  11 active torsions:
REMARK  status: ('A' for Active; 'I' for Inactive)
REMARK    1  A    between atoms: C_1  and  C_2
REMARK    2  A    between atoms: C_3  and  C_15
REMARK    3  A    between atoms: C_10  and  C_14
REMARK    4  A    between atoms: N_12  and  C_13
REMARK    5  A    between atoms: C_15  and  C_16
REMARK    6  A    between atoms: C_16  and  C_17
REMARK    7  A    between atoms: N_19  and  C_20
REMARK    8  A    between atoms: N_19  and  C_21
REMARK    9  A    between atoms: C_21  and  C_22
REMARK   10  A    between atoms: C_22  and  C_23
REMARK   11  A    between atoms: C_23  and  C_24
REMARK                            x       y       z     vdW  Elec       q    Type
REMARK                         _______ _______ _______ _____ _____    ______ ____
ROOT
ATOM      1  C   UNL     1      -0.228   0.061  -2.470  0.00  0.00    +0.050 C 
ENDROOT
BRANCH   1   4
ATOM      2  C   UNL     1       0.244   1.494  -0.021  0.00  0.00    +0.045 C 
ATOM      3  C   UNL     1       0.126  -0.008  -0.013  0.00  0.00    -0.030 A 
ATOM      4  C   UNL     1      -0.096  -0.688  -1.169  0.00  0.00    +0.021 A 
ATOM      5  C   UNL     1      -0.204  -2.090  -1.150  0.00  0.00    +0.254 A 
ATOM      6  O   UNL     1      -0.404  -2.692  -2.192  0.00  0.00    -0.268 OA
ATOM      7  N   UNL     1      -0.089  -2.776   0.002  0.00  0.00    -0.307 N 
ATOM      8  H   UNL     1      -0.166  -3.743  -0.004  0.00  0.00    +0.170 HD
ATOM      9  C   UNL     1       0.135  -2.121   1.183  0.00  0.00    +0.139 A 
ATOM     10  C   UNL     1       0.251  -0.730   1.196  0.00  0.00    +0.043 A 
ATOM     11  C   UNL     1       0.483  -0.345   2.538  0.00  0.00    +0.069 A 
ATOM     12  N   UNL     1       0.508  -1.423   3.270  0.00  0.00    -0.174 NA
ATOM     13  N   UNL     1       0.288  -2.541   2.458  0.00  0.00    -0.251 N 
ATOM     14  C   UNL     1       0.244  -3.933   2.912  0.00  0.00    +0.174 C 
ATOM     15  C   UNL     1       0.669   1.066   3.034  0.00  0.00    +0.068 C 
ENDBRANCH   1   4
BRANCH   1  16
ATOM     16  C   UNL     1       1.134   0.118  -3.165  0.00  0.00    +0.101 C 
BRANCH  16  17
ATOM     17  C   UNL     1       1.002   0.867  -4.466  0.00  0.00    +0.216 C 
ATOM     18  O   UNL     1      -0.074   1.312  -4.804  0.00  0.00    -0.276 OA
ATOM     19  N   UNL     1       2.082   1.043  -5.255  0.00  0.00    -0.305 N 
ATOM     20  C   UNL     1       3.382   0.506  -4.846  0.00  0.00    +0.132 C 
BRANCH  19  21
ATOM     21  C   UNL     1       1.954   1.771  -6.519  0.00  0.00    +0.108 C 
BRANCH  21  22
ATOM     22  C   UNL     1       2.206   3.261  -6.278  0.00  0.00    +0.024 C 
BRANCH  22  23
ATOM     23  C   UNL     1       2.072   4.021  -7.599  0.00  0.00    +0.036 C 
BRANCH  23  24
ATOM     24  C   UNL     1       2.320   5.489  -7.361  0.00  0.00    -0.047 A 
ATOM     25  C   UNL     1       1.268   6.324  -7.035  0.00  0.00    +0.003 A 
ATOM     26  C   UNL     1       1.496   7.669  -6.817  0.00  0.00    +0.000 A 
ATOM     27  C   UNL     1       2.776   8.180  -6.925  0.00  0.00    +0.000 A 
ATOM     28  C   UNL     1       3.828   7.345  -7.250  0.00  0.00    +0.000 A 
ATOM     29  C   UNL     1       3.601   5.998  -7.464  0.00  0.00    +0.003 A 
ENDBRANCH  23  24
ENDBRANCH  22  23
ENDBRANCH  21  22
ENDBRANCH  19  21
ENDBRANCH  16  17
ENDBRANCH   1  16
TORSDOF 7
