REMARK  Name = ZINC20918640
REMARK  12 active torsions:
REMARK  status: ('A' for Active; 'I' for Inactive)
REMARK    1  A    between atoms: C_1  and  C_2
REMARK    2  A    between atoms: C_5  and  C_40
REMARK    3  A    between atoms: N_8  and  C_10
REMARK    4  A    between atoms: C_10  and  C_11
REMARK    5  A    between atoms: C_11  and  C_12
REMARK    6  A    between atoms: C_12  and  N_13
REMARK    7  A    between atoms: C_14  and  C_16
REMARK    8  A    between atoms: C_16  and  C_39
REMARK    9  A    between atoms: N_29  and  C_30
REMARK   10  A    between atoms: C_30  and  C_31
REMARK   11  A    between atoms: C_34  and  O_37
REMARK   12  A    between atoms: O_37  and  C_38
REMARK                            x       y       z     vdW  Elec       q    Type
REMARK                         _______ _______ _______ _____ _____    ______ ____
ROOT
ATOM      1  C   UNL     1       7.671  -1.349   3.666  0.00  0.00    +0.129 C 
ATOM      2  C   UNL     1       8.353  -1.820   4.949  0.00  0.00    +0.157 C 
ATOM      3  N   UNL     1       7.884  -1.004   6.075  0.00  0.00    -0.334 N 
ATOM      4  C   UNL     1       7.750  -1.316   7.386  0.00  0.00    +0.050 A 
ATOM      5  C   UNL     1       7.987  -2.492   8.098  0.00  0.00    +0.026 A 
ATOM      6  C   UNL     1       7.742  -2.464   9.459  0.00  0.00    +0.002 A 
ATOM      7  C   UNL     1       7.282  -1.327  10.105  0.00  0.00    +0.001 A 
ATOM      8  C   UNL     1       7.038  -0.156   9.435  0.00  0.00    +0.010 A 
ATOM      9  C   UNL     1       7.276  -0.153   8.053  0.00  0.00    +0.001 A 
ATOM     10  C   UNL     1       7.130   0.855   7.082  0.00  0.00    +0.041 A 
ATOM     11  C   UNL     1       7.493   0.325   5.895  0.00  0.00    +0.106 A 
ATOM     12  C   UNL     1       7.505   0.937   4.553  0.00  0.00    +0.264 C 
ATOM     13  O   UNL     1       7.340   2.132   4.393  0.00  0.00    -0.268 OA
ATOM     14  N   UNL     1       7.711   0.100   3.510  0.00  0.00    -0.276 N 
ATOM     15  C   UNL     1       8.373  -1.995   2.470  0.00  0.00    +0.043 C 
ENDROOT
BRANCH   1  17
ATOM     16  N   UNL     1       5.288  -1.008   4.235  0.00  0.00    -0.314 N 
ATOM     17  C   UNL     1       6.232  -1.797   3.686  0.00  0.00    +0.238 C 
ATOM     18  O   UNL     1       5.924  -2.868   3.208  0.00  0.00    -0.273 OA
ATOM     19  H   UNL     1       5.523  -0.124   4.559  0.00  0.00    +0.149 HD
BRANCH  16  20
ATOM     20  C   UNL     1       3.907  -1.484   4.343  0.00  0.00    +0.102 C 
BRANCH  20  21
ATOM     21  C   UNL     1       3.020  -0.360   4.883  0.00  0.00    +0.000 C 
BRANCH  21  22
ATOM     22  C   UNL     1       1.560  -0.816   4.880  0.00  0.00    -0.077 C 
BRANCH  22  28
ATOM     23  C   UNL     1       0.429   2.237   8.535  0.00  0.00    +0.005 C 
ATOM     24  C   UNL     1       0.138   1.872   7.078  0.00  0.00    -0.031 C 
ATOM     25  C   UNL     1      -1.348   1.535   6.922  0.00  0.00    +0.003 C 
ATOM     26  C   UNL     1      -1.613   1.096   5.479  0.00  0.00    -0.031 C 
ATOM     27  C   UNL     1      -0.710  -0.091   5.139  0.00  0.00    -0.076 C 
ATOM     28  N   UNL     1       0.697   0.302   5.282  0.00  0.00    +0.380 N 
ATOM     29  C   UNL     1       0.977   0.657   6.678  0.00  0.00    -0.076 C 
ATOM     30  C   UNL     1      -3.079   0.684   5.332  0.00  0.00    +0.005 C 
ATOM     31  H   UNL     1       0.884   1.098   4.691  0.00  0.00    -0.082 HD
ENDBRANCH  22  28
ENDBRANCH  21  22
ENDBRANCH  20  21
ENDBRANCH  16  20
ENDBRANCH   1  17
BRANCH  14  32
ATOM     32  C   UNL     1       7.981   0.666   2.186  0.00  0.00    +0.144 C 
BRANCH  32  33
ATOM     33  C   UNL     1       6.677   0.981   1.498  0.00  0.00    -0.030 A 
ATOM     34  C   UNL     1       6.010  -0.007   0.798  0.00  0.00    +0.009 A 
ATOM     35  C   UNL     1       4.815   0.279   0.167  0.00  0.00    +0.046 A 
ATOM     36  C   UNL     1       4.285   1.559   0.236  0.00  0.00    +0.120 A 
ATOM     37  C   UNL     1       4.956   2.549   0.939  0.00  0.00    +0.046 A 
ATOM     38  C   UNL     1       6.148   2.256   1.573  0.00  0.00    +0.009 A 
BRANCH  36  39
ATOM     39  O   UNL     1       3.109   1.843  -0.385  0.00  0.00    -0.495 OA
ATOM     40  C   UNL     1       2.681   3.206  -0.371  0.00  0.00    +0.277 C 
ENDBRANCH  36  39
ENDBRANCH  32  33
ENDBRANCH  14  32
TORSDOF 8
