REMARK  Name = ZINC50395501
REMARK  4 active torsions:
REMARK  status: ('A' for Active; 'I' for Inactive)
REMARK    1  A    between atoms: C_1  and  C_2
REMARK    2  A    between atoms: C_4  and  C_22
REMARK    3  A    between atoms: C_8  and  N_13
REMARK    4  A    between atoms: N_13  and  C_14
REMARK                            x       y       z     vdW  Elec       q    Type
REMARK                         _______ _______ _______ _____ _____    ______ ____
ROOT
ATOM      1  C   UNL     1       0.261   1.677   0.408  0.00  0.00    +0.044 C 
ATOM      2  C   UNL     1       0.202   0.177   0.274  0.00  0.00    -0.050 A 
ATOM      3  C   UNL     1       0.185  -0.407  -0.980  0.00  0.00    +0.008 A 
ATOM      4  C   UNL     1       0.131  -1.779  -1.109  0.00  0.00    -0.029 A 
ATOM      5  C   UNL     1       0.093  -2.588   0.025  0.00  0.00    +0.038 A 
ATOM      6  C   UNL     1       0.110  -1.989   1.279  0.00  0.00    -0.031 A 
ATOM      7  C   UNL     1       0.169  -0.619   1.405  0.00  0.00    +0.007 A 
ATOM      8  C   UNL     1       0.060  -3.113   2.288  0.00  0.00    +0.050 C 
ATOM      9  C   UNL     1       0.014  -4.367   1.440  0.00  0.00    +0.208 C 
ATOM     10  O   UNL     1      -0.034  -5.509   1.845  0.00  0.00    -0.277 OA
ATOM     11  N   UNL     1       0.037  -3.976   0.155  0.00  0.00    -0.286 N 
ATOM     12  C   UNL     1       0.113  -2.405  -2.480  0.00  0.00    +0.045 C 
ATOM     13  H   UNL     1       0.016  -4.588  -0.597  0.00  0.00    +0.155 HD
ENDROOT
BRANCH   8  14
ATOM     14  N   UNL     1      -1.147  -3.006   3.118  0.00  0.00    +0.397 N 
ATOM     15  H   UNL     1      -1.188  -2.088   3.535  0.00  0.00    -0.083 HD
ATOM     16  H   UNL     1      -1.964  -3.152   2.545  0.00  0.00    -0.083 HD
BRANCH  14  17
ATOM     17  C   UNL     1      -1.104  -4.023   4.178  0.00  0.00    +0.017 C 
ATOM     18  C   UNL     1      -2.462  -4.079   4.883  0.00  0.00    -0.005 C 
ATOM     19  C   UNL     1      -2.316  -4.935   6.147  0.00  0.00    +0.018 C 
ATOM     20  C   UNL     1      -1.414  -4.196   7.137  0.00  0.00    +0.104 C 
ATOM     21  N   UNL     1      -0.180  -3.774   6.486  0.00  0.00    -0.317 N 
ATOM     22  C   UNL     1      -0.031  -3.668   5.166  0.00  0.00    +0.199 C 
ATOM     23  O   UNL     1       1.031  -3.266   4.740  0.00  0.00    -0.278 OA
ATOM     24  H   UNL     1       0.579  -3.555   7.049  0.00  0.00    +0.149 HD
ENDBRANCH  14  17
ENDBRANCH   8  14
TORSDOF 2
