REMARK  Name = ZINC30781285
REMARK  7 active torsions:
REMARK  status: ('A' for Active; 'I' for Inactive)
REMARK    1  A    between atoms: C_1  and  C_2
REMARK    2  A    between atoms: C_2  and  O_3
REMARK    3  A    between atoms: O_3  and  C_4
REMARK    4  A    between atoms: C_8  and  C_12
REMARK    5  A    between atoms: C_9  and  O_10
REMARK    6  A    between atoms: O_10  and  C_11
REMARK    7  A    between atoms: C_24  and  C_29
REMARK                            x       y       z     vdW  Elec       q    Type
REMARK                         _______ _______ _______ _____ _____    ______ ____
ROOT
ATOM      1  C   UNL     1       1.131   2.114   0.492  0.00  0.00    +0.110 C 
ATOM      2  C   UNL     1       1.333   3.332  -0.413  0.00  0.00    +0.047 C 
ATOM      3  C   UNL     1       2.823   3.605  -0.606  0.00  0.00    +0.011 C 
ATOM      4  C   UNL     1       3.444   4.025   0.730  0.00  0.00    +0.028 C 
ATOM      5  C   UNL     1       2.689   5.247   1.262  0.00  0.00    +0.160 C 
ATOM      6  O   UNL     1       1.311   4.911   1.423  0.00  0.00    -0.372 OA
ATOM      7  C   UNL     1       0.644   4.542   0.214  0.00  0.00    +0.155 C 
ATOM      8  C   UNL     1      -0.791   4.205   0.538  0.00  0.00    +0.003 A 
ATOM      9  C   UNL     1      -1.703   5.236   0.686  0.00  0.00    +0.011 A 
ATOM     10  C   UNL     1      -3.022   4.960   0.988  0.00  0.00    -0.050 A 
ATOM     11  C   UNL     1      -3.440   3.650   1.142  0.00  0.00    +0.005 A 
ATOM     12  C   UNL     1      -2.537   2.617   0.994  0.00  0.00    +0.023 A 
ATOM     13  C   UNL     1      -1.208   2.893   0.684  0.00  0.00    +0.033 A 
ATOM     14  N   UNL     1      -0.310   1.829   0.540  0.00  0.00    -0.336 N 
ATOM     15  C   UNL     1      -4.010   6.087   1.147  0.00  0.00    +0.044 C 
ATOM     16  H   UNL     1      -0.669   0.791   0.464  0.00  0.00    +0.147 HD
ENDROOT
BRANCH   1  21
ATOM     17  C   UNL     1       3.257   2.084   3.623  0.00  0.00    +0.162 A 
ATOM     18  C   UNL     1       2.568   2.977   4.428  0.00  0.00    +0.049 A 
ATOM     19  C   UNL     1       1.419   3.586   3.958  0.00  0.00    +0.004 A 
ATOM     20  C   UNL     1       0.959   3.310   2.684  0.00  0.00    +0.009 A 
ATOM     21  C   UNL     1       1.639   2.416   1.878  0.00  0.00    +0.018 A 
ATOM     22  C   UNL     1       2.791   1.802   2.343  0.00  0.00    +0.166 A 
BRANCH  22  23
ATOM     23  O   UNL     1       3.464   0.926   1.550  0.00  0.00    -0.491 OA
ATOM     24  C   UNL     1       4.621   1.421   0.874  0.00  0.00    +0.277 C 
ENDBRANCH  22  23
BRANCH  17  25
ATOM     25  O   UNL     1       4.388   1.485   4.084  0.00  0.00    -0.489 OA
BRANCH  25  27
ATOM     26  C   UNL     1       6.087   1.055   5.748  0.00  0.00    +0.048 C 
ATOM     27  C   UNL     1       4.808   1.822   5.408  0.00  0.00    +0.226 C 
ENDBRANCH  25  27
ENDBRANCH  17  25
ENDBRANCH   1  21
TORSDOF 4
