REMARK  Name = ZINC39595540
REMARK  8 active torsions:
REMARK  status: ('A' for Active; 'I' for Inactive)
REMARK    1  A    between atoms: C_1  and  C_2
REMARK    2  A    between atoms: C_2  and  C_4
REMARK    3  A    between atoms: C_2  and  O_33
REMARK    4  A    between atoms: C_4  and  N_5
REMARK    5  A    between atoms: C_6  and  C_8
REMARK    6  A    between atoms: C_19  and  C_21
REMARK    7  A    between atoms: C_27  and  C_29
REMARK    8  A    between atoms: O_33  and  C_34
REMARK                            x       y       z     vdW  Elec       q    Type
REMARK                         _______ _______ _______ _____ _____    ______ ____
ROOT
ATOM      1  C   UNL     1       1.647  -4.299  -2.656  0.00  0.00    +0.100 C 
ATOM      2  C   UNL     1       0.278  -4.933  -2.989  0.00  0.00    +0.121 C 
ATOM      3  N   UNL     1       0.273  -5.059  -4.466  0.00  0.00    -0.299 N 
ATOM      4  C   UNL     1       1.656  -5.472  -4.805  0.00  0.00    +0.115 C 
ATOM      5  C   UNL     1       2.549  -4.657  -3.848  0.00  0.00    -0.004 C 
ATOM      6  C   UNL     1       3.041  -3.389  -4.539  0.00  0.00    -0.010 C 
ATOM      7  C   UNL     1       3.981  -3.769  -5.686  0.00  0.00    -0.082 C 
ATOM      8  N   UNL     1       5.117  -4.534  -5.156  0.00  0.00    +0.379 N 
ATOM      9  C   UNL     1       4.644  -5.796  -4.576  0.00  0.00    -0.082 C 
ATOM     10  C   UNL     1       3.731  -5.502  -3.382  0.00  0.00    -0.010 C 
ATOM     11  C   UNL     1      -0.756  -4.846  -5.309  0.00  0.00    +0.236 C 
ATOM     12  O   UNL     1      -0.602  -4.992  -6.503  0.00  0.00    -0.274 OA
ATOM     13  H   UNL     1       5.765  -4.731  -5.904  0.00  0.00    -0.086 HD
ATOM     14  H   UNL     1       5.583  -3.992  -4.444  0.00  0.00    -0.086 HD
ENDROOT
BRANCH  11  15
ATOM     15  C   UNL     1      -2.099  -4.426  -4.769  0.00  0.00    +0.162 C 
ATOM     16  C   UNL     1      -2.859  -5.659  -4.236  0.00  0.00    +0.033 C 
ATOM     17  C   UNL     1      -4.324  -5.375  -4.659  0.00  0.00    +0.021 C 
ATOM     18  C   UNL     1      -4.122  -4.670  -6.024  0.00  0.00    +0.109 C 
ATOM     19  N   UNL     1      -2.911  -3.842  -5.846  0.00  0.00    -0.283 N 
ATOM     20  C   UNL     1      -2.601  -2.736  -6.552  0.00  0.00    +0.320 C 
ATOM     21  O   UNL     1      -1.575  -2.135  -6.317  0.00  0.00    -0.266 OA
BRANCH  20  22
ATOM     22  C   UNL     1      -3.530  -2.248  -7.634  0.00  0.00    +0.470 C 
ATOM     23  F   UNL     1      -2.998  -1.094  -8.219  0.00  0.00    -0.162 F 
ATOM     24  F   UNL     1      -3.675  -3.241  -8.608  0.00  0.00    -0.162 F 
ATOM     25  F   UNL     1      -4.780  -1.954  -7.077  0.00  0.00    -0.162 F 
ENDBRANCH  20  22
ENDBRANCH  11  15
BRANCH   1  27
ATOM     26  N   UNL     1       2.347  -2.119  -1.719  0.00  0.00    -0.312 N 
ATOM     27  C   UNL     1       1.514  -2.803  -2.528  0.00  0.00    +0.218 C 
ATOM     28  O   UNL     1       0.659  -2.214  -3.155  0.00  0.00    -0.275 OA
ATOM     29  H   UNL     1       3.032  -2.590  -1.218  0.00  0.00    +0.149 HD
BRANCH  26  30
ATOM     30  C   UNL     1       2.219  -0.665  -1.595  0.00  0.00    +0.148 C 
BRANCH  30  32
ATOM     31  C   UNL     1       3.064   1.357  -0.396  0.00  0.00    +0.053 C 
ATOM     32  C   UNL     1       3.276  -0.141  -0.622  0.00  0.00    +0.187 C 
BRANCH  32  33
ATOM     33  O   UNL     1       4.578  -0.360  -1.169  0.00  0.00    -0.488 OA
BRANCH  33  34
ATOM     34  C   UNL     1       5.612  -0.438  -0.290  0.00  0.00    +0.121 A 
ATOM     35  C   UNL     1       5.396  -0.200   1.059  0.00  0.00    +0.048 A 
ATOM     36  C   UNL     1       6.447  -0.280   1.952  0.00  0.00    +0.042 A 
ATOM     37  C   UNL     1       7.717  -0.596   1.499  0.00  0.00    +0.124 A 
ATOM     38  C   UNL     1       7.935  -0.833   0.153  0.00  0.00    +0.042 A 
ATOM     39  C   UNL     1       6.884  -0.761  -0.741  0.00  0.00    +0.048 A 
ATOM     40  F   UNL     1       8.745  -0.672   2.373  0.00  0.00    -0.205 F 
ENDBRANCH  33  34
ENDBRANCH  32  33
ENDBRANCH  30  32
ENDBRANCH  26  30
ENDBRANCH   1  27
TORSDOF 7
