REMARK  Name = ZINC00728507
REMARK  9 active torsions:
REMARK  status: ('A' for Active; 'I' for Inactive)
REMARK    1  A    between atoms: C_1  and  C_2
REMARK    2  A    between atoms: C_2  and  O_3
REMARK    3  A    between atoms: O_3  and  C_4
REMARK    4  A    between atoms: C_4  and  C_6
REMARK    5  A    between atoms: C_7  and  N_26
REMARK    6  A    between atoms: C_11  and  C_13
REMARK    7  A    between atoms: C_16  and  C_18
REMARK    8  A    between atoms: C_22  and  C_24
REMARK    9  A    between atoms: C_22  and  C_25
REMARK                            x       y       z     vdW  Elec       q    Type
REMARK                         _______ _______ _______ _____ _____    ______ ____
ROOT
ATOM      1  C   UNL     1       1.444  -2.321  -2.455  0.00  0.00    +0.106 C 
ATOM      2  C   UNL     1       1.609  -3.664  -2.579  0.00  0.00    +0.195 C 
ATOM      3  O   UNL     1       2.201  -4.192  -3.662  0.00  0.00    -0.446 OA
ATOM      4  C   UNL     1       2.262  -3.494  -4.812  0.00  0.00    +0.115 C 
ATOM      5  C   UNL     1       2.140  -2.154  -4.821  0.00  0.00    +0.046 C 
ATOM      6  C   UNL     1       1.916  -1.393  -3.539  0.00  0.00    +0.104 C 
ATOM      7  C   UNL     1       2.217  -1.421  -6.022  0.00  0.00    +0.164 C 
ATOM      8  O   UNL     1       2.086  -0.213  -5.992  0.00  0.00    -0.292 OA
ATOM      9  C   UNL     1       2.458  -2.106  -7.339  0.00  0.00    +0.086 C 
ATOM     10  C   UNL     1       3.248  -3.395  -7.091  0.00  0.00    -0.021 C 
ATOM     11  C   UNL     1       2.467  -4.258  -6.098  0.00  0.00    +0.081 C 
ATOM     12  C   UNL     1       4.620  -3.053  -6.506  0.00  0.00    +0.012 C 
ATOM     13  C   UNL     1       3.421  -4.154  -8.408  0.00  0.00    +0.012 C 
ENDROOT
BRANCH   6  14
ATOM     14  C   UNL     1       3.211  -0.748  -3.114  0.00  0.00    +0.002 A 
ATOM     15  C   UNL     1       3.492   0.566  -2.940  0.00  0.00    +0.012 A 
ATOM     16  C   UNL     1       4.764   0.932  -2.541  0.00  0.00    +0.011 A 
ATOM     17  C   UNL     1       5.692  -0.035  -2.335  0.00  0.00    -0.013 A 
ATOM     18  S   UNL     1       4.768  -1.518  -2.703  0.00  0.00    -0.097 S 
ATOM     19  C   UNL     1       7.129   0.105  -1.903  0.00  0.00    +0.051 C 
ENDBRANCH   6  14
BRANCH   2  20
ATOM     20  N   UNL     1       1.166  -4.492  -1.582  0.00  0.00    -0.329 N 
ATOM     21  H   UNL     1       0.658  -4.129  -0.840  0.00  0.00    +0.145 HD
ATOM     22  H   UNL     1       1.360  -5.442  -1.618  0.00  0.00    +0.145 HD
ENDBRANCH   2  20
BRANCH   1  23
ATOM     23  C   UNL     1       0.823  -1.798  -1.311  0.00  0.00    +0.341 C 
ATOM     24  O   UNL     1      -0.342  -1.442  -1.359  0.00  0.00    -0.245 OA
BRANCH  23  25
ATOM     25  O   UNL     1       1.515  -1.688  -0.157  0.00  0.00    -0.462 OA
BRANCH  25  27
ATOM     26  C   UNL     1       1.760  -1.100   2.174  0.00  0.00    +0.048 C 
ATOM     27  C   UNL     1       0.820  -1.146   0.968  0.00  0.00    +0.229 C 
ENDBRANCH  25  27
ENDBRANCH  23  25
ENDBRANCH   1  23
TORSDOF 5
