REMARK  Name = ZINC06275413
REMARK  9 active torsions:
REMARK  status: ('A' for Active; 'I' for Inactive)
REMARK    1  A    between atoms: C_1  and  C_2
REMARK    2  A    between atoms: C_2  and  C_4
REMARK    3  A    between atoms: C_2  and  C_16
REMARK    4  A    between atoms: C_9  and  O_14
REMARK    5  A    between atoms: O_14  and  C_15
REMARK    6  A    between atoms: C_16  and  O_18
REMARK    7  A    between atoms: O_18  and  C_19
REMARK    8  A    between atoms: C_19  and  C_20
REMARK    9  A    between atoms: C_20  and  C_22
REMARK                            x       y       z     vdW  Elec       q    Type
REMARK                         _______ _______ _______ _____ _____    ______ ____
ROOT
ATOM      1  C   UNL     1      -0.750   6.182  -1.188  0.00  0.00    +0.315 C 
ATOM      2  O   UNL     1      -1.208   5.396  -1.983  0.00  0.00    -0.250 OA
ENDROOT
BRANCH   1   4
ATOM      3  C   UNL     1      -0.738   6.176   1.292  0.00  0.00    +0.024 C 
ATOM      4  C   UNL     1      -0.022   5.681   0.033  0.00  0.00    +0.125 C 
BRANCH   4   5
ATOM      5  C   UNL     1      -0.005   4.174   0.024  0.00  0.00    -0.033 A 
ATOM      6  C   UNL     1      -1.210   3.474   0.032  0.00  0.00    +0.005 A 
ATOM      7  C   UNL     1      -1.229   2.113   0.019  0.00  0.00    +0.009 A 
ATOM      8  C   UNL     1      -0.017   1.400   0.010  0.00  0.00    -0.014 A 
ATOM      9  C   UNL     1       0.002  -0.004   0.002  0.00  0.00    +0.054 A 
ATOM     10  C   UNL     1       1.198  -0.663  -0.013  0.00  0.00    +0.121 A 
ATOM     11  C   UNL     1       2.406   0.043  -0.021  0.00  0.00    +0.046 A 
ATOM     12  C   UNL     1       2.421   1.402  -0.013  0.00  0.00    +0.012 A 
ATOM     13  C   UNL     1       1.208   2.113   0.002  0.00  0.00    -0.017 A 
ATOM     14  C   UNL     1       1.188   3.518   0.009  0.00  0.00    +0.013 A 
BRANCH  10  15
ATOM     15  O   UNL     1       1.215  -2.022  -0.021  0.00  0.00    -0.495 OA
ATOM     16  C   UNL     1       2.497  -2.654  -0.036  0.00  0.00    +0.277 C 
ENDBRANCH  10  15
ENDBRANCH   4   5
ENDBRANCH   1   4
BRANCH   1  17
ATOM     17  O   UNL     1      -0.890   7.501  -1.391  0.00  0.00    -0.456 OA
BRANCH  17  18
ATOM     18  C   UNL     1      -1.603   7.912  -2.588  0.00  0.00    +0.308 C 
BRANCH  18  19
ATOM     19  C   UNL     1      -1.661   9.416  -2.648  0.00  0.00    +0.190 C 
ATOM     20  O   UNL     1      -1.154  10.075  -1.772  0.00  0.00    -0.292 OA
BRANCH  19  21
ATOM     21  C   UNL     1      -2.351  10.099  -3.800  0.00  0.00    +0.141 C 
ATOM     22  C   UNL     1      -1.470  10.020  -5.054  0.00  0.00    +0.035 C 
ATOM     23  C   UNL     1      -2.219  10.656  -6.225  0.00  0.00    +0.039 C 
ATOM     24  C   UNL     1      -2.717  12.027  -5.849  0.00  0.00    -0.026 A 
ATOM     25  C   UNL     1      -3.028  12.926  -6.856  0.00  0.00    +0.005 A 
ATOM     26  C   UNL     1      -3.490  14.190  -6.543  0.00  0.00    +0.000 A 
ATOM     27  C   UNL     1      -3.647  14.565  -5.221  0.00  0.00    +0.002 A 
ATOM     28  C   UNL     1      -3.339  13.675  -4.212  0.00  0.00    +0.023 A 
ATOM     29  C   UNL     1      -2.871  12.403  -4.524  0.00  0.00    +0.031 A 
ATOM     30  N   UNL     1      -2.557  11.519  -3.486  0.00  0.00    -0.334 N 
ATOM     31  H   UNL     1      -2.477  11.839  -2.574  0.00  0.00    +0.147 HD
ENDBRANCH  19  21
ENDBRANCH  18  19
ENDBRANCH  17  18
ENDBRANCH   1  17
TORSDOF 7
