REMARK  Name = ZINC39711065
REMARK  13 active torsions:
REMARK  status: ('A' for Active; 'I' for Inactive)
REMARK    1  A    between atoms: C_1  and  C_2
REMARK    2  A    between atoms: C_4  and  C_40
REMARK    3  A    between atoms: C_9  and  C_14
REMARK    4  A    between atoms: C_14  and  C_16
REMARK    5  A    between atoms: C_14  and  N_26
REMARK    6  A    between atoms: N_21  and  C_22
REMARK    7  A    between atoms: C_22  and  C_23
REMARK    8  A    between atoms: C_22  and  C_24
REMARK    9  A    between atoms: C_22  and  C_25
REMARK   10  A    between atoms: N_26  and  C_27
REMARK   11  A    between atoms: N_26  and  C_33
REMARK   12  A    between atoms: C_27  and  C_28
REMARK   13  A    between atoms: C_33  and  C_34
REMARK                            x       y       z     vdW  Elec       q    Type
REMARK                         _______ _______ _______ _____ _____    ______ ____
ROOT
ATOM      1  C   UNL     1      -1.724  -4.989   2.416  0.00  0.00    -0.010 C 
ENDROOT
BRANCH   1  10
ATOM      2  C   UNL     1       1.513   0.825  -0.178  0.00  0.00    +0.044 C 
ATOM      3  C   UNL     1       1.382  -0.662   0.034  0.00  0.00    -0.050 A 
ATOM      4  C   UNL     1       2.007  -1.536  -0.856  0.00  0.00    +0.008 A 
ATOM      5  C   UNL     1       1.934  -2.886  -0.730  0.00  0.00    -0.028 A 
ATOM      6  C   UNL     1       1.209  -3.467   0.327  0.00  0.00    +0.043 A 
ATOM      7  N   UNL     1       1.145  -4.793   0.442  0.00  0.00    -0.284 N 
ATOM      8  C   UNL     1       0.481  -5.403   1.410  0.00  0.00    +0.223 C 
ATOM      9  O   UNL     1       0.458  -6.618   1.462  0.00  0.00    -0.275 OA
ATOM     10  C   UNL     1      -0.249  -4.584   2.450  0.00  0.00    +0.088 C 
ATOM     11  C   UNL     1      -0.178  -3.075   2.325  0.00  0.00    -0.006 C 
ATOM     12  C   UNL     1       0.539  -2.567   1.282  0.00  0.00    -0.007 A 
ATOM     13  C   UNL     1       0.663  -1.122   1.090  0.00  0.00    +0.012 A 
ATOM     14  C   UNL     1       2.635  -3.770  -1.729  0.00  0.00    +0.046 C 
ATOM     15  H   UNL     1       1.606  -5.337  -0.216  0.00  0.00    +0.155 HD
ENDBRANCH   1  10
BRANCH   1  16
ATOM     16  C   UNL     1      -2.321  -4.625   1.056  0.00  0.00    +0.183 C 
ATOM     17  N   UNL     1      -1.309  -4.752  -0.010  0.00  0.00    -0.229 N 
ATOM     18  N   UNL     1      -1.165  -3.470  -0.555  0.00  0.00    -0.064 NA
ATOM     19  N   UNL     1      -1.891  -2.641  -0.015  0.00  0.00    -0.061 NA
ATOM     20  N   UNL     1      -2.678  -3.194   1.008  0.00  0.00    -0.211 N 
ATOM     21  H   UNL     1      -0.839  -5.557  -0.277  0.00  0.00    +0.172 HD
BRANCH  20  22
ATOM     22  C   UNL     1      -3.651  -2.498   1.853  0.00  0.00    +0.047 C 
ATOM     23  C   UNL     1      -3.050  -2.270   3.241  0.00  0.00    +0.033 C 
ATOM     24  C   UNL     1      -4.003  -1.150   1.222  0.00  0.00    +0.033 C 
ATOM     25  C   UNL     1      -4.917  -3.348   1.979  0.00  0.00    +0.033 C 
ENDBRANCH  20  22
ENDBRANCH   1  16
BRANCH   1  26
ATOM     26  N   UNL     1      -1.839  -6.438   2.630  0.00  0.00    +0.391 N 
ATOM     27  H   UNL     1      -1.428  -6.926   1.849  0.00  0.00    -0.080 HD
BRANCH  26  28
ATOM     28  C   UNL     1      -1.135  -6.808   3.865  0.00  0.00    -0.002 C 
BRANCH  28  29
ATOM     29  C   UNL     1      -1.640  -5.961   5.005  0.00  0.00    +0.089 A 
ATOM     30  C   UNL     1      -2.597  -6.313   5.882  0.00  0.00    +0.042 A 
ATOM     31  C   UNL     1      -2.754  -5.227   6.774  0.00  0.00    +0.041 A 
ATOM     32  C   UNL     1      -1.883  -4.277   6.389  0.00  0.00    +0.195 A 
ATOM     33  O   UNL     1      -1.207  -4.729   5.320  0.00  0.00    -0.470 OA
ENDBRANCH  28  29
ENDBRANCH  26  28
BRANCH  26  34
ATOM     34  C   UNL     1      -3.257  -6.804   2.746  0.00  0.00    -0.046 C 
BRANCH  34  35
ATOM     35  C   UNL     1      -3.397  -8.326   2.688  0.00  0.00    +0.102 C 
ATOM     36  C   UNL     1      -4.891  -8.714   2.646  0.00  0.00    +0.032 C 
ATOM     37  C   UNL     1      -4.931  -9.970   3.558  0.00  0.00    +0.030 C 
ATOM     38  C   UNL     1      -3.848  -9.609   4.604  0.00  0.00    +0.160 C 
ATOM     39  O   UNL     1      -2.829  -8.912   3.866  0.00  0.00    -0.378 OA
ENDBRANCH  34  35
ENDBRANCH  26  34
ENDBRANCH   1  26
TORSDOF 8
