REMARK  Name = ZINC57806610
REMARK  5 active torsions:
REMARK  status: ('A' for Active; 'I' for Inactive)
REMARK    1  A    between atoms: C_4  and  O_7
REMARK    2  A    between atoms: O_7  and  C_8
REMARK    3  A    between atoms: C_12  and  N_14
REMARK    4  A    between atoms: N_14  and  S_15
REMARK    5  A    between atoms: S_15  and  C_18
REMARK                            x       y       z     vdW  Elec       q    Type
REMARK                         _______ _______ _______ _____ _____    ______ ____
ROOT
ATOM      1  N   UNL     1       6.202  -4.639   0.140  0.00  0.00    -0.216 N 
ATOM      2  H   UNL     1       6.880  -4.322   0.758  0.00  0.00    +0.174 HD
ENDROOT
BRANCH   1   7
ATOM      3  C   UNL     1       3.657  -1.988  -0.010  0.00  0.00    +0.130 A 
ATOM      4  C   UNL     1       2.494  -2.746  -0.046  0.00  0.00    +0.046 A 
ATOM      5  C   UNL     1       2.566  -4.126  -0.020  0.00  0.00    +0.005 A 
ATOM      6  C   UNL     1       3.794  -4.756   0.042  0.00  0.00    +0.025 A 
ATOM      7  C   UNL     1       4.961  -4.003   0.078  0.00  0.00    +0.052 A 
ATOM      8  C   UNL     1       4.891  -2.616   0.046  0.00  0.00    +0.070 A 
BRANCH   3   9
ATOM      9  O   UNL     1       3.586  -0.632  -0.036  0.00  0.00    -0.456 OA
BRANCH   9  13
ATOM     10  C   UNL     1       3.333   1.363   3.566  0.00  0.00    +0.000 A 
ATOM     11  C   UNL     1       3.415  -0.017   3.546  0.00  0.00    +0.004 A 
ATOM     12  C   UNL     1       3.500  -0.687   2.341  0.00  0.00    +0.046 A 
ATOM     13  C   UNL     1       3.502   0.025   1.150  0.00  0.00    +0.128 A 
ATOM     14  C   UNL     1       3.420   1.410   1.174  0.00  0.00    +0.046 A 
ATOM     15  C   UNL     1       3.335   2.076   2.381  0.00  0.00    +0.004 A 
ENDBRANCH   9  13
ENDBRANCH   3   9
ENDBRANCH   1   7
BRANCH   1  16
ATOM     16  S   UNL     1       6.518  -5.937  -0.839  0.00  0.00    +0.072 S 
ATOM     17  O   UNL     1       7.853  -6.339  -0.563  0.00  0.00    -0.150 OA
ATOM     18  O   UNL     1       5.413  -6.821  -0.710  0.00  0.00    -0.150 OA
BRANCH  16  19
ATOM     19  C   UNL     1       6.503  -5.351  -2.501  0.00  0.00    +0.109 A 
ATOM     20  C   UNL     1       5.323  -5.346  -3.224  0.00  0.00    +0.030 A 
ATOM     21  C   UNL     1       5.304  -4.889  -4.525  0.00  0.00    +0.025 A 
ATOM     22  C   UNL     1       6.476  -4.426  -5.121  0.00  0.00    +0.037 A 
ATOM     23  C   UNL     1       7.654  -4.435  -4.385  0.00  0.00    -0.016 A 
ATOM     24  C   UNL     1       7.669  -4.888  -3.084  0.00  0.00    +0.034 A 
ATOM     25  C   UNL     1       8.728  -3.883  -5.293  0.00  0.00    +0.133 C 
ATOM     26  C   UNL     1       7.998  -3.581  -6.585  0.00  0.00    +0.222 C 
ATOM     27  O   UNL     1       8.483  -3.118  -7.596  0.00  0.00    -0.275 OA
ATOM     28  N   UNL     1       6.711  -3.922  -6.401  0.00  0.00    -0.285 N 
ATOM     29  H   UNL     1       6.024  -3.828  -7.079  0.00  0.00    +0.155 HD
ENDBRANCH  16  19
ENDBRANCH   1  16
TORSDOF 5
