REMARK  Name = ZINC20255259
REMARK  11 active torsions:
REMARK  status: ('A' for Active; 'I' for Inactive)
REMARK    1  A    between atoms: C_1  and  C_2
REMARK    2  A    between atoms: C_2  and  O_3
REMARK    3  A    between atoms: O_3  and  C_4
REMARK    4  A    between atoms: C_4  and  C_6
REMARK    5  A    between atoms: N_9  and  C_26
REMARK    6  A    between atoms: C_10  and  C_11
REMARK    7  A    between atoms: C_11  and  N_12
REMARK    8  A    between atoms: N_12  and  C_13
REMARK    9  A    between atoms: C_13  and  C_15
REMARK   10  A    between atoms: C_13  and  C_16
REMARK   11  A    between atoms: N_30  and  C_37
REMARK                            x       y       z     vdW  Elec       q    Type
REMARK                         _______ _______ _______ _____ _____    ______ ____
ROOT
ATOM      1  C   UNL     1      -5.872   2.790   0.116  0.00  0.00    +0.101 A 
ATOM      2  C   UNL     1      -5.170   1.569  -0.016  0.00  0.00    +0.150 A 
ATOM      3  N   UNL     1      -3.894   1.836  -0.051  0.00  0.00    -0.174 NA
ATOM      4  N   UNL     1      -3.717   3.219   0.064  0.00  0.00    -0.234 N 
ATOM      5  C   UNL     1      -4.930   3.798   0.163  0.00  0.00    +0.073 A 
ENDROOT
BRANCH   4   6
ATOM      6  C   UNL     1      -2.495   3.885   0.070  0.00  0.00    +0.080 A 
ATOM      7  C   UNL     1      -2.094   4.601   1.161  0.00  0.00    +0.098 A 
ATOM      8  C   UNL     1      -0.857   5.268   1.152  0.00  0.00    +0.254 A 
ATOM      9  O   UNL     1      -0.517   5.901   2.138  0.00  0.00    -0.268 OA
ATOM     10  N   UNL     1      -0.038   5.227   0.087  0.00  0.00    -0.311 N 
ATOM     11  C   UNL     1      -0.380   4.524  -1.050  0.00  0.00    +0.054 A 
ATOM     12  C   UNL     1      -1.606   3.836  -1.099  0.00  0.00    +0.024 A 
ATOM     13  C   UNL     1      -1.961   3.126  -2.248  0.00  0.00    +0.012 A 
ATOM     14  C   UNL     1      -1.101   3.096  -3.322  0.00  0.00    +0.001 A 
ATOM     15  C   UNL     1       0.108   3.776  -3.273  0.00  0.00    +0.002 A 
ATOM     16  C   UNL     1       0.471   4.485  -2.148  0.00  0.00    +0.026 A 
ATOM     17  C   UNL     1       1.240   5.942   0.134  0.00  0.00    +0.152 C 
ENDBRANCH   4   6
BRANCH   1  18
ATOM     18  C   UNL     1      -7.333   2.956   0.189  0.00  0.00    +0.343 C 
ATOM     19  O   UNL     1      -7.814   4.066   0.302  0.00  0.00    -0.245 OA
BRANCH  18  20
ATOM     20  O   UNL     1      -8.137   1.876   0.131  0.00  0.00    -0.461 OA
BRANCH  20  22
ATOM     21  C   UNL     1     -10.312   0.780   0.127  0.00  0.00    +0.048 C 
ATOM     22  C   UNL     1      -9.568   2.114   0.209  0.00  0.00    +0.229 C 
ENDBRANCH  20  22
ENDBRANCH  18  20
ENDBRANCH   1  18
BRANCH   5  23
ATOM     23  C   UNL     1      -5.207   5.273   0.298  0.00  0.00    +0.138 C 
BRANCH  23  24
ATOM     24  N   UNL     1      -5.485   5.843  -1.027  0.00  0.00    -0.302 NA
ATOM     25  H   UNL     1      -4.614   5.692  -1.682  0.00  0.00    +0.123 HD
BRANCH  24  26
ATOM     26  C   UNL     1      -5.761   7.283  -0.934  0.00  0.00    +0.117 C 
ATOM     27  C   UNL     1      -4.441   8.056  -0.951  0.00  0.00    +0.032 C 
BRANCH  26  28
ATOM     28  C   UNL     1      -6.608   7.709  -2.105  0.00  0.00    +0.125 A 
ATOM     29  N   UNL     1      -7.440   8.786  -2.114  0.00  0.00    -0.341 N 
ATOM     30  H   UNL     1      -7.531   9.418  -1.218  0.00  0.00    +0.167 HD
ATOM     31  C   UNL     1      -8.031   8.838  -3.360  0.00  0.00    +0.066 A 
ATOM     32  C   UNL     1      -8.948   9.689  -3.960  0.00  0.00    +0.028 A 
ATOM     33  C   UNL     1      -9.350   9.455  -5.258  0.00  0.00    +0.002 A 
ATOM     34  C   UNL     1      -8.843   8.375  -5.967  0.00  0.00    +0.002 A 
ATOM     35  C   UNL     1      -7.939   7.527  -5.393  0.00  0.00    +0.030 A 
ATOM     36  C   UNL     1      -7.518   7.744  -4.078  0.00  0.00    +0.089 A 
ATOM     37  N   UNL     1      -6.655   7.098  -3.252  0.00  0.00    -0.231 NA
ENDBRANCH  26  28
ENDBRANCH  24  26
ENDBRANCH  23  24
ENDBRANCH   5  23
TORSDOF 8
