REMARK  Name = ZINC63869419
REMARK  4 active torsions:
REMARK  status: ('A' for Active; 'I' for Inactive)
REMARK    1  A    between atoms: C_1  and  C_2
REMARK    2  A    between atoms: C_2  and  C_3
REMARK    3  A    between atoms: N_12  and  C_15
REMARK    4  A    between atoms: C_15  and  C_16
REMARK                            x       y       z     vdW  Elec       q    Type
REMARK                         _______ _______ _______ _____ _____    ______ ____
ROOT
ATOM      1  C   UNL     1      -1.379  -0.608  -0.258  0.00  0.00    -0.016 C 
ATOM      2  C   UNL     1      -2.240  -1.046  -1.158  0.00  0.00    -0.002 C 
ATOM      3  C   UNL     1      -3.610  -1.485  -0.721  0.00  0.00    +0.126 C 
ATOM      4  C   UNL     1      -3.622  -1.779   0.786  0.00  0.00    +0.133 C 
ATOM      5  S   UNL     1      -2.214  -0.734   1.315  0.00  0.00    -0.110 S 
ATOM      6  N   UNL     1      -4.841  -1.438   1.468  0.00  0.00    -0.288 NA
ATOM      7  C   UNL     1      -5.398  -0.126   1.194  0.00  0.00    +0.193 C 
ATOM      8  N   UNL     1      -5.436   0.153  -0.233  0.00  0.00    -0.284 N 
ATOM      9  C   UNL     1      -4.601  -0.422  -1.084  0.00  0.00    +0.226 C 
ATOM     10  O   UNL     1      -4.681  -0.092  -2.248  0.00  0.00    -0.275 OA
ATOM     11  H   UNL     1      -5.537  -2.159   1.347  0.00  0.00    +0.124 HD
ENDROOT
BRANCH   1  13
ATOM     12  C   UNL     1       0.005   1.415  -0.637  0.00  0.00    +0.009 C 
ATOM     13  C   UNL     1       0.021  -0.110  -0.507  0.00  0.00    +0.038 C 
ENDBRANCH   1  13
BRANCH   8  14
ATOM     14  C   UNL     1      -6.409   1.126  -0.737  0.00  0.00    +0.155 C 
BRANCH  14  15
ATOM     15  C   UNL     1      -7.715   0.409  -1.083  0.00  0.00    +0.192 C 
ATOM     16  N   UNL     1      -8.214  -0.324   0.088  0.00  0.00    -0.362 N 
ATOM     17  C   UNL     1      -8.261  -1.585  -0.231  0.00  0.00    +0.060 A 
ATOM     18  C   UNL     1      -8.668  -2.787   0.509  0.00  0.00    +0.029 A 
ATOM     19  C   UNL     1      -8.609  -3.991  -0.094  0.00  0.00    +0.022 A 
ATOM     20  C   UNL     1      -8.169  -4.154  -1.421  0.00  0.00    +0.043 A 
ATOM     21  C   UNL     1      -7.772  -3.116  -2.188  0.00  0.00    +0.047 A 
ATOM     22  C   UNL     1      -7.795  -1.756  -1.635  0.00  0.00    +0.062 A 
ATOM     23  N   UNL     1      -7.478  -0.593  -2.130  0.00  0.00    -0.362 N 
ATOM     24 CL   UNL     1      -8.134  -5.752  -2.098  0.00  0.00    -0.083 Cl
ATOM     25  H   UNL     1      -8.462   0.061   0.943  0.00  0.00    +0.162 HD
ATOM     26  H   UNL     1      -7.146  -0.421  -3.025  0.00  0.00    +0.162 HD
ENDBRANCH  14  15
ENDBRANCH   8  14
TORSDOF 3
