REMARK  Name = ZINC39936409
REMARK  6 active torsions:
REMARK  status: ('A' for Active; 'I' for Inactive)
REMARK    1  A    between atoms: C_4  and  N_7
REMARK    2  A    between atoms: C_8  and  C_10
REMARK    3  A    between atoms: C_10  and  N_11
REMARK    4  A    between atoms: C_13  and  C_20
REMARK    5  A    between atoms: C_21  and  C_22
REMARK    6  A    between atoms: C_21  and  C_24
REMARK                            x       y       z     vdW  Elec       q    Type
REMARK                         _______ _______ _______ _____ _____    ______ ____
ROOT
ATOM      1  N   UNL     1       5.233  -4.097   0.584  0.00  0.00    -0.337 N 
ATOM      2  C   UNL     1       4.835  -4.844   1.646  0.00  0.00    +0.095 A 
ATOM      3  C   UNL     1       4.677  -6.144   1.261  0.00  0.00    +0.001 A 
ATOM      4  C   UNL     1       5.011  -6.199  -0.174  0.00  0.00    +0.007 A 
ATOM      5  C   UNL     1       5.346  -4.886  -0.543  0.00  0.00    +0.050 A 
ATOM      6  C   UNL     1       5.706  -4.618  -1.859  0.00  0.00    +0.026 A 
ATOM      7  C   UNL     1       5.728  -5.636  -2.787  0.00  0.00    +0.002 A 
ATOM      8  C   UNL     1       5.393  -6.932  -2.422  0.00  0.00    +0.001 A 
ATOM      9  C   UNL     1       5.043  -7.219  -1.121  0.00  0.00    +0.010 A 
ENDROOT
BRANCH   3  10
ATOM     10  C   UNL     1       4.259  -7.265   2.108  0.00  0.00    +0.028 C 
ATOM     11  C   UNL     1       3.662  -7.027   3.299  0.00  0.00    +0.072 C 
BRANCH  11  12
ATOM     12  C   UNL     1       3.408  -8.164   4.255  0.00  0.00    +0.216 C 
ATOM     13  N   UNL     1       1.978  -8.239   4.579  0.00  0.00    -0.359 N 
ATOM     14  C   UNL     1       1.859  -8.066   5.864  0.00  0.00    +0.060 A 
ATOM     15  C   UNL     1       0.699  -8.036   6.765  0.00  0.00    +0.027 A 
ATOM     16  C   UNL     1       0.886  -7.831   8.084  0.00  0.00    +0.002 A 
ATOM     17  C   UNL     1       2.160  -7.641   8.648  0.00  0.00    +0.002 A 
ATOM     18  C   UNL     1       3.290  -7.649   7.912  0.00  0.00    +0.027 A 
ATOM     19  C   UNL     1       3.208  -7.865   6.461  0.00  0.00    +0.060 A 
ATOM     20  N   UNL     1       4.108  -7.923   5.523  0.00  0.00    -0.359 N 
ATOM     21  H   UNL     1       1.254  -8.391   3.951  0.00  0.00    +0.162 HD
ATOM     22  H   UNL     1       5.066  -7.824   5.639  0.00  0.00    +0.162 HD
ENDBRANCH  11  12
BRANCH  11  23
ATOM     23  C   UNL     1       3.271  -5.695   3.651  0.00  0.00    +0.099 C 
ATOM     24  N   UNL     1       2.962  -4.638   3.930  0.00  0.00    -0.191 NA
ENDBRANCH  11  23
ENDBRANCH   3  10
BRANCH   1  25
ATOM     25  C   UNL     1       5.500  -2.657   0.626  0.00  0.00    +0.217 C 
BRANCH  25  27
ATOM     26  N   UNL     1       4.276  -0.558   0.166  0.00  0.00    -0.284 N 
ATOM     27  C   UNL     1       4.265  -1.905   0.203  0.00  0.00    +0.237 C 
ATOM     28  O   UNL     1       3.261  -2.512  -0.104  0.00  0.00    -0.274 OA
ATOM     29  H   UNL     1       5.097  -0.074   0.348  0.00  0.00    +0.155 HD
BRANCH  26  33
ATOM     30  C   UNL     1       0.785   1.531  -0.731  0.00  0.00    +0.000 A 
ATOM     31  C   UNL     1       0.719   0.357  -0.004  0.00  0.00    +0.002 A 
ATOM     32  C   UNL     1       1.874  -0.338   0.295  0.00  0.00    +0.023 A 
ATOM     33  C   UNL     1       3.103   0.144  -0.136  0.00  0.00    +0.033 A 
ATOM     34  C   UNL     1       3.166   1.323  -0.866  0.00  0.00    +0.023 A 
ATOM     35  C   UNL     1       2.007   2.014  -1.161  0.00  0.00    +0.002 A 
ENDBRANCH  26  33
ENDBRANCH  25  27
ENDBRANCH   1  25
TORSDOF 6
