REMARK  Name = ZINC21891594
REMARK  7 active torsions:
REMARK  status: ('A' for Active; 'I' for Inactive)
REMARK    1  A    between atoms: C_1  and  C_2
REMARK    2  A    between atoms: C_2  and  O_3
REMARK    3  A    between atoms: O_3  and  C_4
REMARK    4  A    between atoms: C_4  and  C_6
REMARK    5  A    between atoms: C_6  and  C_7
REMARK    6  A    between atoms: C_7  and  N_13
REMARK    7  A    between atoms: C_29  and  C_31
REMARK                            x       y       z     vdW  Elec       q    Type
REMARK                         _______ _______ _______ _____ _____    ______ ____
ROOT
ATOM      1  N   UNL     1       5.494   1.471  -3.310  0.00  0.00    -0.293 N 
ATOM      2  C   UNL     1       5.056   1.093  -2.092  0.00  0.00    +0.304 C 
ATOM      3  O   UNL     1       5.643   0.222  -1.479  0.00  0.00    -0.253 OA
ATOM      4  N   UNL     1       3.969   1.681  -1.554  0.00  0.00    -0.268 N 
ATOM      5  C   UNL     1       3.309   2.821  -2.219  0.00  0.00    +0.147 C 
ATOM      6  C   UNL     1       2.900   3.885  -1.238  0.00  0.00    -0.006 A 
ATOM      7  C   UNL     1       3.581   5.083  -1.167  0.00  0.00    +0.007 A 
ATOM      8  C   UNL     1       3.135   6.081  -0.320  0.00  0.00    +0.000 A 
ATOM      9  C   UNL     1       2.009   5.882   0.459  0.00  0.00    +0.002 A 
ATOM     10  C   UNL     1       1.339   4.674   0.413  0.00  0.00    +0.026 A 
ATOM     11  C   UNL     1       1.797   3.664  -0.419  0.00  0.00    +0.051 A 
ATOM     12  N   UNL     1       1.174   2.409  -0.443  0.00  0.00    -0.318 N 
ATOM     13  C   UNL     1      -0.147   2.106  -0.525  0.00  0.00    +0.091 A 
ATOM     14  C   UNL     1      -0.267   0.760  -0.520  0.00  0.00    +0.020 A 
ATOM     15  C   UNL     1       1.034   0.217  -0.430  0.00  0.00    +0.025 A 
ATOM     16  C   UNL     1       1.893   1.247  -0.383  0.00  0.00    +0.049 A 
ATOM     17  C   UNL     1       3.397   1.208  -0.280  0.00  0.00    +0.162 C 
ATOM     18  H   UNL     1       5.015   2.314  -3.829  0.00  0.00    +0.151 HD
ENDROOT
BRANCH   1  19
ATOM     19  C   UNL     1       6.606   0.758  -3.942  0.00  0.00    +0.046 C 
ATOM     20  C   UNL     1       6.899   1.379  -5.309  0.00  0.00    +0.026 C 
ATOM     21  C   UNL     1       5.655   1.271  -6.194  0.00  0.00    +0.002 C 
ATOM     22  C   UNL     1       5.282  -0.202  -6.373  0.00  0.00    +0.000 C 
ATOM     23  C   UNL     1       4.990  -0.823  -5.005  0.00  0.00    +0.002 C 
ATOM     24  C   UNL     1       6.233  -0.715  -4.120  0.00  0.00    +0.026 C 
BRANCH  19  25
ATOM     25  C   UNL     1       7.850   0.866  -3.057  0.00  0.00    +0.146 C 
BRANCH  25  26
ATOM     26  C   UNL     1       8.134   2.317  -2.764  0.00  0.00    +0.309 C 
ATOM     27  O   UNL     1       7.354   3.169  -3.120  0.00  0.00    -0.251 OA
BRANCH  26  28
ATOM     28  O   UNL     1       9.253   2.663  -2.108  0.00  0.00    -0.465 OA
BRANCH  28  30
ATOM     29  C   UNL     1      10.778   4.276  -1.108  0.00  0.00    +0.048 C 
ATOM     30  C   UNL     1       9.461   4.078  -1.861  0.00  0.00    +0.229 C 
ENDBRANCH  28  30
ENDBRANCH  26  28
ENDBRANCH  25  26
ENDBRANCH  19  25
ENDBRANCH   1  19
BRANCH  17  31
ATOM     31  C   UNL     1       3.850   2.105   0.843  0.00  0.00    +0.016 A 
ATOM     32  C   UNL     1       5.009   2.797   0.967  0.00  0.00    +0.013 A 
ATOM     33  C   UNL     1       5.211   3.569   2.096  0.00  0.00    +0.008 A 
ATOM     34  C   UNL     1       4.249   3.603   3.050  0.00  0.00    +0.045 A 
ATOM     35  S   UNL     1       3.004   2.527   2.357  0.00  0.00    -0.099 S 
ENDBRANCH  17  31
TORSDOF 6
