REMARK  Name = ZINC66254250
REMARK  3 active torsions:
REMARK  status: ('A' for Active; 'I' for Inactive)
REMARK    1  A    between atoms: C_4  and  C_7
REMARK    2  A    between atoms: N_16  and  S_17
REMARK    3  A    between atoms: S_17  and  C_20
REMARK                            x       y       z     vdW  Elec       q    Type
REMARK                         _______ _______ _______ _____ _____    ______ ____
ROOT
ATOM      1  C   UNL     1       3.711  -0.707  -0.038  0.00  0.00    +0.024 C 
ATOM      2  C   UNL     1       3.817  -1.601   1.202  0.00  0.00    +0.014 C 
ATOM      3  C   UNL     1       5.233  -2.166   1.315  0.00  0.00    +0.054 C 
ATOM      4  C   UNL     1       5.608  -2.835  -0.007  0.00  0.00    +0.028 A 
ATOM      5  C   UNL     1       4.934  -2.543  -1.126  0.00  0.00    +0.013 A 
ATOM      6  S   UNL     1       5.712  -3.539  -2.371  0.00  0.00    -0.053 S 
ATOM      7  C   UNL     1       6.929  -4.318  -1.319  0.00  0.00    +0.192 A 
ATOM      8  N   UNL     1       6.636  -3.748  -0.104  0.00  0.00    -0.336 N 
ATOM      9  N   UNL     1       7.852  -5.196  -1.625  0.00  0.00    -0.103 NA
ATOM     10  C   UNL     1       3.791  -1.591  -1.291  0.00  0.00    +0.052 C 
ATOM     11  H   UNL     1       7.150  -3.988   0.683  0.00  0.00    +0.168 HD
ENDROOT
BRANCH   1  15
ATOM     12  C   UNL     1      -0.017   1.378   0.010  0.00  0.00    +0.000 A 
ATOM     13  C   UNL     1       1.171   2.086   0.002  0.00  0.00    +0.000 A 
ATOM     14  C   UNL     1       2.377   1.411  -0.013  0.00  0.00    +0.004 A 
ATOM     15  C   UNL     1       2.396   0.029  -0.020  0.00  0.00    -0.044 A 
ATOM     16  C   UNL     1       1.208  -0.679  -0.012  0.00  0.00    +0.004 A 
ATOM     17  C   UNL     1       0.002  -0.004   0.002  0.00  0.00    +0.000 A 
ENDBRANCH   1  15
BRANCH   9  18
ATOM     18  S   UNL     1       8.869  -5.771  -0.451  0.00  0.00    +0.104 S 
ATOM     19  O   UNL     1       9.666  -4.671  -0.030  0.00  0.00    -0.146 OA
ATOM     20  O   UNL     1       8.067  -6.520   0.451  0.00  0.00    -0.146 OA
BRANCH  18  21
ATOM     21  C   UNL     1       9.962  -6.917  -1.224  0.00  0.00    +0.150 A 
ATOM     22  C   UNL     1       9.751  -8.246  -1.367  0.00  0.00    +0.134 A 
ATOM     23  N   UNL     1      10.818  -8.765  -2.009  0.00  0.00    -0.283 N 
ATOM     24  H   UNL     1      10.942  -9.697  -2.248  0.00  0.00    +0.188 HD
ATOM     25  N   UNL     1      11.715  -7.721  -2.269  0.00  0.00    -0.180 NA
ATOM     26  C   UNL     1      11.198  -6.613  -1.804  0.00  0.00    +0.163 A 
ENDBRANCH  18  21
ENDBRANCH   9  18
TORSDOF 3
