REMARK  Name = ZINC59170530
REMARK  10 active torsions:
REMARK  status: ('A' for Active; 'I' for Inactive)
REMARK    1  A    between atoms: C_1  and  C_2
REMARK    2  A    between atoms: C_2  and  N_3
REMARK    3  A    between atoms: N_3  and  C_4
REMARK    4  A    between atoms: N_3  and  C_6
REMARK    5  A    between atoms: C_4  and  C_5
REMARK    6  A    between atoms: C_11  and  C_27
REMARK    7  A    between atoms: N_13  and  C_14
REMARK    8  A    between atoms: C_17  and  S_20
REMARK    9  A    between atoms: S_20  and  N_23
REMARK   10  A    between atoms: N_29  and  C_30
REMARK                            x       y       z     vdW  Elec       q    Type
REMARK                         _______ _______ _______ _____ _____    ______ ____
ROOT
ATOM      1  C   UNL     1      -2.224  -0.854   0.913  0.00  0.00    +0.033 A 
ATOM      2  C   UNL     1      -1.960   0.100   1.897  0.00  0.00    +0.024 A 
ATOM      3  C   UNL     1      -2.745   0.183   3.008  0.00  0.00    +0.013 A 
ATOM      4  C   UNL     1      -3.822  -0.703   3.171  0.00  0.00    +0.018 A 
ATOM      5  C   UNL     1      -4.623  -0.649   4.339  0.00  0.00    +0.030 A 
ATOM      6  C   UNL     1      -5.544  -1.667   4.550  0.00  0.00    +0.098 A 
ATOM      7  C   UNL     1      -5.597  -2.751   3.550  0.00  0.00    +0.212 A 
ATOM      8  N   UNL     1      -6.029  -3.952   3.870  0.00  0.00    -0.325 N 
ATOM      9  O   UNL     1      -5.184  -2.465   2.288  0.00  0.00    -0.438 OA
ATOM     10  C   UNL     1      -4.110  -1.647   2.166  0.00  0.00    +0.139 A 
ATOM     11  C   UNL     1      -3.303  -1.720   1.044  0.00  0.00    +0.070 A 
ATOM     12  H   UNL     1      -6.227  -4.166   4.795  0.00  0.00    +0.169 HD
ENDROOT
BRANCH   8  13
ATOM     13  C   UNL     1      -6.200  -4.899   2.898  0.00  0.00    +0.042 A 
ATOM     14  C   UNL     1      -6.826  -4.564   1.694  0.00  0.00    +0.027 A 
ATOM     15  C   UNL     1      -6.994  -5.524   0.719  0.00  0.00    +0.030 A 
ATOM     16  C   UNL     1      -6.546  -6.816   0.929  0.00  0.00    +0.105 A 
ATOM     17  C   UNL     1      -5.925  -7.155   2.119  0.00  0.00    +0.030 A 
ATOM     18  C   UNL     1      -5.744  -6.204   3.101  0.00  0.00    +0.027 A 
BRANCH  16  19
ATOM     19  S   UNL     1      -6.766  -8.036  -0.323  0.00  0.00    +0.056 S 
ATOM     20  O   UNL     1      -6.751  -9.297   0.332  0.00  0.00    -0.153 OA
ATOM     21  O   UNL     1      -7.860  -7.606  -1.121  0.00  0.00    -0.153 OA
BRANCH  19  22
ATOM     22  N   UNL     1      -5.425  -7.990  -1.293  0.00  0.00    -0.204 NA
ATOM     23  H   UNL     1      -4.712  -7.361  -1.105  0.00  0.00    +0.144 HD
ATOM     24  H   UNL     1      -5.353  -8.593  -2.050  0.00  0.00    +0.144 HD
ENDBRANCH  19  22
ENDBRANCH  16  19
ENDBRANCH   8  13
BRANCH   6  25
ATOM     25  C   UNL     1      -6.432  -1.664   5.723  0.00  0.00    +0.253 C 
ATOM     26  O   UNL     1      -6.273  -0.840   6.604  0.00  0.00    -0.270 OA
ATOM     27  N   UNL     1      -7.421  -2.574   5.822  0.00  0.00    -0.281 N 
ATOM     28  H   UNL     1      -7.503  -3.276   5.157  0.00  0.00    +0.155 HD
BRANCH  27  29
ATOM     29  C   UNL     1      -8.329  -2.508   6.884  0.00  0.00    +0.034 A 
ATOM     30  C   UNL     1      -7.917  -2.036   8.123  0.00  0.00    +0.025 A 
ATOM     31  C   UNL     1      -8.816  -1.971   9.170  0.00  0.00    +0.022 A 
ATOM     32  C   UNL     1     -10.126  -2.375   8.984  0.00  0.00    +0.041 A 
ATOM     33  C   UNL     1     -10.539  -2.846   7.750  0.00  0.00    +0.022 A 
ATOM     34  C   UNL     1      -9.646  -2.908   6.699  0.00  0.00    +0.025 A 
ATOM     35 CL   UNL     1     -11.253  -2.293  10.302  0.00  0.00    -0.084 Cl
ENDBRANCH  27  29
ENDBRANCH   6  25
BRANCH   1  36
ATOM     36  N   UNL     1      -1.407  -0.935  -0.209  0.00  0.00    -0.330 N 
BRANCH  36  38
ATOM     37  C   UNL     1      -0.717   1.241  -1.086  0.00  0.00    +0.024 C 
ATOM     38  C   UNL     1      -0.269  -0.024  -0.352  0.00  0.00    +0.102 C 
ENDBRANCH  36  38
BRANCH  36  39
ATOM     39  C   UNL     1      -1.684  -1.931  -1.247  0.00  0.00    +0.102 C 
ATOM     40  C   UNL     1      -0.936  -3.225  -0.924  0.00  0.00    +0.024 C 
ENDBRANCH  36  39
ENDBRANCH   1  36
TORSDOF 8
