REMARK  Name = ZINC14459088
REMARK  8 active torsions:
REMARK  status: ('A' for Active; 'I' for Inactive)
REMARK    1  A    between atoms: C_1  and  N_2
REMARK    2  A    between atoms: N_2  and  C_3
REMARK    3  A    between atoms: N_2  and  S_4
REMARK    4  A    between atoms: S_4  and  C_7
REMARK    5  A    between atoms: C_20  and  C_23
REMARK    6  A    between atoms: C_26  and  O_31
REMARK    7  A    between atoms: C_27  and  O_29
REMARK    8  A    between atoms: O_29  and  C_30
REMARK                            x       y       z     vdW  Elec       q    Type
REMARK                         _______ _______ _______ _____ _____    ______ ____
ROOT
ATOM      1  C   UNL     1      -1.245   3.128   0.030  0.00  0.00    +0.106 A 
ATOM      2  C   UNL     1      -1.218   1.746   0.017  0.00  0.00    +0.030 A 
ATOM      3  C   UNL     1      -0.013   1.076   0.008  0.00  0.00    +0.025 A 
ATOM      4  C   UNL     1       1.183   1.784   0.000  0.00  0.00    +0.031 A 
ATOM      5  C   UNL     1       1.149   3.182   0.019  0.00  0.00    -0.018 A 
ATOM      6  C   UNL     1      -0.061   3.842   0.028  0.00  0.00    +0.034 A 
ATOM      7  C   UNL     1       2.444   3.897   0.036  0.00  0.00    +0.049 C 
ATOM      8  C   UNL     1       2.587   5.277  -0.494  0.00  0.00    -0.023 C 
ATOM      9  C   UNL     1       3.816   5.420  -0.975  0.00  0.00    -0.030 C 
ATOM     10  C   UNL     1       4.591   4.109  -0.831  0.00  0.00    +0.033 C 
ATOM     11  C   UNL     1       3.454   3.078  -0.822  0.00  0.00    +0.029 C 
ATOM     12  C   UNL     1       3.674   1.782  -0.061  0.00  0.00    +0.105 C 
ATOM     13  N   UNL     1       2.394   1.082  -0.048  0.00  0.00    -0.336 N 
ATOM     14  H   UNL     1       2.382   0.113  -0.082  0.00  0.00    +0.147 HD
ENDROOT
BRANCH  12  15
ATOM     15  C   UNL     1       4.722   0.946  -0.749  0.00  0.00    -0.023 A 
ATOM     16  C   UNL     1       4.383   0.189  -1.855  0.00  0.00    +0.009 A 
ATOM     17  C   UNL     1       5.341  -0.580  -2.490  0.00  0.00    +0.049 A 
ATOM     18  C   UNL     1       6.644  -0.592  -2.018  0.00  0.00    +0.158 A 
ATOM     19  C   UNL     1       6.985   0.171  -0.905  0.00  0.00    +0.162 A 
ATOM     20  C   UNL     1       6.021   0.943  -0.277  0.00  0.00    +0.054 A 
BRANCH  19  21
ATOM     21  O   UNL     1       8.262   0.162  -0.439  0.00  0.00    -0.491 OA
ATOM     22  C   UNL     1       8.540   0.970   0.707  0.00  0.00    +0.277 C 
ENDBRANCH  19  21
BRANCH  18  23
ATOM     23  O   UNL     1       7.587  -1.347  -2.642  0.00  0.00    -0.503 OA
ATOM     24  H   UNL     1       8.057  -0.885  -3.349  0.00  0.00    +0.292 HD
ENDBRANCH  18  23
ENDBRANCH  12  15
BRANCH   1  25
ATOM     25  S   UNL     1      -2.787   3.980   0.043  0.00  0.00    +0.060 S 
ATOM     26  O   UNL     1      -3.742   3.084   0.594  0.00  0.00    -0.153 OA
ATOM     27  O   UNL     1      -2.538   5.264   0.600  0.00  0.00    -0.153 OA
BRANCH  25  29
ATOM     28  C   UNL     1      -4.031   3.224  -2.236  0.00  0.00    +0.131 C 
ATOM     29  N   UNL     1      -3.224   4.226  -1.535  0.00  0.00    -0.183 NA
ATOM     30  C   UNL     1      -2.804   5.445  -2.230  0.00  0.00    +0.131 C 
ENDBRANCH  25  29
ENDBRANCH   1  25
TORSDOF 5
