REMARK  Name = ZINC28286096
REMARK  8 active torsions:
REMARK  status: ('A' for Active; 'I' for Inactive)
REMARK    1  A    between atoms: C_1  and  C_2
REMARK    2  A    between atoms: C_2  and  C_3
REMARK    3  A    between atoms: C_3  and  C_36
REMARK    4  A    between atoms: C_7  and  N_28
REMARK    5  A    between atoms: C_14  and  N_19
REMARK    6  A    between atoms: N_19  and  C_20
REMARK    7  A    between atoms: C_20  and  C_21
REMARK    8  A    between atoms: C_21  and  N_22
REMARK                            x       y       z     vdW  Elec       q    Type
REMARK                         _______ _______ _______ _____ _____    ______ ____
ROOT
ATOM      1  C   UNL     1      -4.677   4.925   6.811  0.00  0.00    +0.071 C 
ATOM      2  C   UNL     1      -3.725   4.959   5.613  0.00  0.00    +0.071 C 
ATOM      3  C   UNL     1      -4.518   5.025   4.336  0.00  0.00    -0.025 A 
ATOM      4  C   UNL     1      -5.829   5.386   4.320  0.00  0.00    +0.020 A 
ATOM      5  C   UNL     1      -6.522   5.445   3.106  0.00  0.00    +0.105 A 
ATOM      6  N   UNL     1      -5.914   5.145   1.970  0.00  0.00    -0.337 N 
ATOM      7  C   UNL     1      -4.649   4.785   1.950  0.00  0.00    +0.089 A 
ATOM      8  C   UNL     1      -3.866   4.703   3.120  0.00  0.00    +0.031 A 
ATOM      9  C   UNL     1      -2.472   4.294   2.921  0.00  0.00    +0.055 A 
ATOM     10  C   UNL     1      -2.089   4.022   1.640  0.00  0.00    +0.050 A 
ATOM     11  S   UNL     1      -3.525   4.311   0.656  0.00  0.00    -0.070 S 
ATOM     12  C   UNL     1      -0.714   3.577   1.244  0.00  0.00    +0.188 C 
ATOM     13  N   UNL     1       0.185   4.020   2.331  0.00  0.00    -0.359 N 
ATOM     14  C   UNL     1      -0.275   4.027   3.624  0.00  0.00    +0.157 C 
ATOM     15  N   UNL     1      -1.526   4.176   3.935  0.00  0.00    -0.306 N 
ATOM     16  C   UNL     1      -6.568   5.722   5.590  0.00  0.00    +0.199 C 
ATOM     17  O   UNL     1      -5.644   5.970   6.649  0.00  0.00    -0.369 OA
ATOM     18  C   UNL     1      -5.386   3.571   6.867  0.00  0.00    +0.042 C 
ATOM     19  H   UNL     1       1.213   4.343   2.111  0.00  0.00    +0.162 HD
ATOM     20  H   UNL     1      -6.466   5.194   1.020  0.00  0.00    +0.168 HD
ATOM     21  H   UNL     1      -1.843   4.211   4.988  0.00  0.00    +0.153 HD
ENDROOT
BRANCH   5  22
ATOM     22  N   UNL     1      -7.861   5.822   3.093  0.00  0.00    -0.312 N 
ATOM     23  C   UNL     1      -8.709   4.737   2.580  0.00  0.00    +0.134 C 
ATOM     24  C   UNL     1     -10.176   5.171   2.639  0.00  0.00    +0.178 C 
ATOM     25  O   UNL     1     -10.339   6.383   1.897  0.00  0.00    -0.377 OA
ATOM     26  C   UNL     1      -9.528   7.462   2.370  0.00  0.00    +0.178 C 
ATOM     27  C   UNL     1      -8.054   7.050   2.309  0.00  0.00    +0.134 C 
ENDBRANCH   5  22
BRANCH   1  29
ATOM     28  C   UNL     1      -4.822   4.990   9.304  0.00  0.00    +0.007 C 
ATOM     29  C   UNL     1      -3.888   5.148   8.103  0.00  0.00    +0.032 C 
ENDBRANCH   1  29
BRANCH  12  30
ATOM     30  N   UNL     1      -0.673   2.114   1.119  0.00  0.00    -0.291 NA
ATOM     31  H   UNL     1      -0.150   1.686   1.987  0.00  0.00    +0.124 HD
BRANCH  30  32
ATOM     32  C   UNL     1       0.035   1.711  -0.104  0.00  0.00    +0.098 C 
BRANCH  32  33
ATOM     33  C   UNL     1       0.057   0.184  -0.200  0.00  0.00    +0.099 C 
BRANCH  33  34
ATOM     34  N   UNL     1       0.764  -0.220  -1.422  0.00  0.00    -0.297 NA
ATOM     35  C   UNL     1       0.019   0.189  -2.622  0.00  0.00    +0.112 C 
ATOM     36  C   UNL     1       0.818  -0.197  -3.869  0.00  0.00    +0.175 C 
ATOM     37  O   UNL     1       1.079  -1.603  -3.846  0.00  0.00    -0.377 OA
ATOM     38  C   UNL     1       1.804  -2.035  -2.692  0.00  0.00    +0.175 C 
ATOM     39  C   UNL     1       1.015  -1.668  -1.433  0.00  0.00    +0.112 C 
ENDBRANCH  33  34
ENDBRANCH  32  33
ENDBRANCH  30  32
ENDBRANCH  12  30
TORSDOF 6
