REMARK  Name = ZINC04731224
REMARK  7 active torsions:
REMARK  status: ('A' for Active; 'I' for Inactive)
REMARK    1  A    between atoms: C_1  and  C_2
REMARK    2  A    between atoms: C_2  and  C_4
REMARK    3  A    between atoms: C_14  and  C_37
REMARK    4  A    between atoms: C_25  and  C_35
REMARK    5  A    between atoms: C_28  and  O_31
REMARK    6  A    between atoms: O_31  and  C_32
REMARK    7  A    between atoms: C_32  and  C_34
REMARK                            x       y       z     vdW  Elec       q    Type
REMARK                         _______ _______ _______ _____ _____    ______ ____
ROOT
ATOM      1  C   UNL     1       0.825  -0.467  -1.198  0.00  0.00    +0.037 C 
ATOM      2  C   UNL     1       0.803   0.188  -2.563  0.00  0.00    +0.015 C 
ATOM      3  C   UNL     1       1.992  -0.357  -3.372  0.00  0.00    +0.001 C 
ATOM      4  C   UNL     1       3.327  -0.173  -2.666  0.00  0.00    +0.000 C 
ATOM      5  C   UNL     1       3.314  -0.689  -1.216  0.00  0.00    +0.004 C 
ATOM      6  C   UNL     1       2.154  -0.026  -0.524  0.00  0.00    +0.003 C 
ATOM      7  C   UNL     1       1.952  -0.219   0.975  0.00  0.00    +0.009 C 
ATOM      8  C   UNL     1       0.463  -0.586   1.120  0.00  0.00    -0.000 C 
ATOM      9  C   UNL     1      -0.189   0.015  -0.156  0.00  0.00    -0.016 C 
ATOM     10  C   UNL     1      -1.597  -0.511  -0.305  0.00  0.00    +0.008 C 
ATOM     11  C   UNL     1      -2.265  -0.677   1.067  0.00  0.00    +0.005 C 
ATOM     12  C   UNL     1      -1.669   0.265   2.107  0.00  0.00    +0.001 C 
ATOM     13  C   UNL     1      -0.213  -0.133   2.383  0.00  0.00    -0.001 C 
ATOM     14  C   UNL     1       0.495   1.033   3.067  0.00  0.00    +0.038 C 
ATOM     15  C   UNL     1      -0.279   1.404   4.335  0.00  0.00    +0.152 C 
ATOM     16  C   UNL     1      -1.732   0.998   4.502  0.00  0.00    +0.105 C 
ATOM     17  C   UNL     1      -2.452   0.187   3.426  0.00  0.00    +0.003 C 
ATOM     18  C   UNL     1      -2.592  -1.272   3.849  0.00  0.00    +0.013 C 
ATOM     19  C   UNL     1      -3.209  -1.387   5.242  0.00  0.00    +0.045 C 
ATOM     20  C   UNL     1      -2.318  -0.678   6.263  0.00  0.00    +0.179 C 
ATOM     21  C   UNL     1      -2.264   0.814   5.930  0.00  0.00    +0.082 C 
ATOM     22  C   UNL     1      -3.843   0.797   3.209  0.00  0.00    +0.014 C 
ATOM     23  O   UNL     1      -1.351   2.339   4.161  0.00  0.00    -0.364 OA
ATOM     24  C   UNL     1      -0.189   1.553  -0.158  0.00  0.00    +0.012 C 
ENDROOT
BRANCH   1  26
ATOM     25  C   UNL     1      -0.259  -2.583  -2.269  0.00  0.00    +0.086 C 
ATOM     26  C   UNL     1       0.755  -1.963  -1.343  0.00  0.00    +0.137 C 
ATOM     27  O   UNL     1       1.511  -2.666  -0.717  0.00  0.00    -0.297 OA
ENDBRANCH   1  26
BRANCH  20  28
ATOM     28  O   UNL     1      -2.868  -0.858   7.595  0.00  0.00    -0.461 OA
BRANCH  28  29
ATOM     29  C   UNL     1      -2.448  -1.929   8.287  0.00  0.00    +0.304 C 
ATOM     30  O   UNL     1      -1.647  -2.689   7.798  0.00  0.00    -0.251 OA
ATOM     31  C   UNL     1      -2.975  -2.181   9.676  0.00  0.00    +0.136 C 
ENDBRANCH  28  29
ENDBRANCH  20  28
TORSDOF 3
