REMARK  Name = ZINC59015080
REMARK  6 active torsions:
REMARK  status: ('A' for Active; 'I' for Inactive)
REMARK    1  A    between atoms: C_5  and  C_7
REMARK    2  A    between atoms: N_8  and  N_9
REMARK    3  A    between atoms: C_12  and  S_15
REMARK    4  A    between atoms: S_15  and  C_16
REMARK    5  A    between atoms: C_16  and  C_17
REMARK    6  A    between atoms: C_17  and  C_19
REMARK                            x       y       z     vdW  Elec       q    Type
REMARK                         _______ _______ _______ _____ _____    ______ ____
ROOT
ATOM      1  N   UNL     1       2.458  -4.145  -0.797  0.00  0.00    -0.205 N 
ATOM      2  C   UNL     1       3.663  -4.819  -0.712  0.00  0.00    +0.232 A 
ATOM      3  N   UNL     1       4.843  -4.272  -0.510  0.00  0.00    -0.186 NA
ATOM      4  C   UNL     1       5.782  -5.224  -0.485  0.00  0.00    +0.210 A 
ATOM      5  N   UNL     1       5.211  -6.390  -0.672  0.00  0.00    -0.144 NA
ATOM      6  N   UNL     1       3.835  -6.154  -0.817  0.00  0.00    -0.245 N 
ATOM      7  H   UNL     1       1.636  -4.638  -0.945  0.00  0.00    +0.177 HD
ATOM      8  H   UNL     1       3.144  -6.818  -0.965  0.00  0.00    +0.192 HD
ENDROOT
BRANCH   1  10
ATOM      9  C   UNL     1       1.295  -2.117  -0.749  0.00  0.00    +0.139 C 
ATOM     10  N   UNL     1       2.425  -2.750  -0.669  0.00  0.00    -0.188 NA
BRANCH   9  15
ATOM     11  C   UNL     1       0.020   1.408  -0.574  0.00  0.00    +0.001 A 
ATOM     12  C   UNL     1       1.195   2.109  -0.363  0.00  0.00    +0.001 A 
ATOM     13  C   UNL     1       2.402   1.439  -0.278  0.00  0.00    +0.020 A 
ATOM     14  C   UNL     1       2.443   0.064  -0.402  0.00  0.00    +0.050 A 
ATOM     15  C   UNL     1       1.260  -0.650  -0.615  0.00  0.00    +0.013 A 
ATOM     16  C   UNL     1       0.045   0.035  -0.700  0.00  0.00    +0.011 A 
ATOM     17 CL   UNL     1       3.959  -0.775  -0.294  0.00  0.00    -0.083 Cl
ENDBRANCH   9  15
ENDBRANCH   1  10
BRANCH   4  18
ATOM     18  S   UNL     1       7.506  -4.955  -0.242  0.00  0.00    -0.077 S 
BRANCH  18  19
ATOM     19  C   UNL     1       8.224  -6.619  -0.315  0.00  0.00    +0.152 C 
BRANCH  19  20
ATOM     20  C   UNL     1       9.716  -6.532  -0.119  0.00  0.00    +0.147 C 
ATOM     21  O   UNL     1      10.241  -5.458   0.053  0.00  0.00    -0.296 OA
BRANCH  20  22
ATOM     22  C   UNL     1      10.553  -7.785  -0.137  0.00  0.00    +0.062 C 
ATOM     23  C   UNL     1      10.338  -8.560   1.164  0.00  0.00    +0.000 C 
ATOM     24  C   UNL     1      11.188  -9.833   1.146  0.00  0.00    +0.007 C 
ATOM     25  C   UNL     1      12.666  -9.457   1.014  0.00  0.00    -0.010 C 
ATOM     26  C   UNL     1      13.078  -8.585   2.201  0.00  0.00    +0.007 C 
ATOM     27  C   UNL     1      12.229  -7.313   2.220  0.00  0.00    -0.010 C 
ATOM     28  C   UNL     1      10.751  -7.689   2.352  0.00  0.00    +0.007 C 
ATOM     29  C   UNL     1      12.443  -6.537   0.918  0.00  0.00    +0.007 C 
ATOM     30  C   UNL     1      12.030  -7.409  -0.269  0.00  0.00    +0.000 C 
ATOM     31  C   UNL     1      12.880  -8.681  -0.288  0.00  0.00    +0.007 C 
ENDBRANCH  20  22
ENDBRANCH  19  20
ENDBRANCH  18  19
ENDBRANCH   4  18
TORSDOF 6
