REMARK  Name = ZINC06421205
REMARK  7 active torsions:
REMARK  status: ('A' for Active; 'I' for Inactive)
REMARK    1  A    between atoms: C_1  and  C_2
REMARK    2  A    between atoms: C_5  and  N_9
REMARK    3  A    between atoms: C_6  and  C_8
REMARK    4  A    between atoms: C_13  and  C_15
REMARK    5  A    between atoms: C_15  and  O_16
REMARK    6  A    between atoms: O_16  and  C_17
REMARK    7  A    between atoms: C_21  and  C_28
REMARK                            x       y       z     vdW  Elec       q    Type
REMARK                         _______ _______ _______ _____ _____    ______ ____
ROOT
ATOM      1  N   UNL     1      -2.965  -5.166   0.003  0.00  0.00    -0.269 N 
ATOM      2  C   UNL     1      -1.908  -4.330  -0.007  0.00  0.00    +0.310 C 
ATOM      3  O   UNL     1      -0.778  -4.779  -0.012  0.00  0.00    -0.252 OA
ATOM      4  N   UNL     1      -2.103  -2.997  -0.010  0.00  0.00    -0.237 N 
ATOM      5  C   UNL     1      -1.045  -2.161  -0.020  0.00  0.00    +0.258 C 
ATOM      6  O   UNL     1       0.081  -2.608  -0.025  0.00  0.00    -0.272 OA
ATOM      7  H   UNL     1      -3.863  -4.810   0.089  0.00  0.00    +0.156 HD
ATOM      8  H   UNL     1      -3.004  -2.638  -0.006  0.00  0.00    +0.159 HD
ENDROOT
BRANCH   1  13
ATOM      9  C   UNL     1      -2.160 -10.762  -0.462  0.00  0.00    +0.044 C 
ATOM     10  C   UNL     1      -2.374  -9.276  -0.339  0.00  0.00    -0.050 A 
ATOM     11  C   UNL     1      -1.431  -8.399  -0.844  0.00  0.00    +0.005 A 
ATOM     12  C   UNL     1      -1.624  -7.036  -0.732  0.00  0.00    +0.024 A 
ATOM     13  C   UNL     1      -2.767  -6.546  -0.112  0.00  0.00    +0.038 A 
ATOM     14  C   UNL     1      -3.709  -7.429   0.398  0.00  0.00    -0.029 A 
ATOM     15  C   UNL     1      -3.513  -8.791   0.278  0.00  0.00    +0.008 A 
ATOM     16  C   UNL     1      -4.947  -6.902   1.077  0.00  0.00    +0.045 C 
ENDBRANCH   1  13
BRANCH   5  17
ATOM     17  C   UNL     1      -1.264  -0.670  -0.024  0.00  0.00    +0.325 C 
BRANCH  17  18
ATOM     18  O   UNL     1       0.001  -0.003  -0.034  0.00  0.00    -0.483 OA
BRANCH  18  19
ATOM     19  C   UNL     1      -0.018   1.354  -0.038  0.00  0.00    +0.125 A 
ATOM     20  C   UNL     1      -1.238   2.028  -0.039  0.00  0.00    +0.046 A 
ATOM     21  C   UNL     1      -1.274   3.392  -0.038  0.00  0.00    +0.015 A 
ATOM     22  C   UNL     1      -0.078   4.119  -0.048  0.00  0.00    +0.021 A 
ATOM     23  C   UNL     1      -0.086   5.584  -0.053  0.00  0.00    -0.033 A 
ATOM     24  C   UNL     1       1.108   6.232  -0.062  0.00  0.00    +0.096 A 
ATOM     25  C   UNL     1       2.308   5.492  -0.067  0.00  0.00    +0.337 A 
ATOM     26  O   UNL     1       3.372   6.085  -0.074  0.00  0.00    -0.245 OA
ATOM     27  O   UNL     1       2.308   4.149  -0.062  0.00  0.00    -0.422 OA
ATOM     28  C   UNL     1       1.157   3.444  -0.053  0.00  0.00    +0.143 A 
ATOM     29  C   UNL     1       1.175   2.058  -0.048  0.00  0.00    +0.092 A 
ATOM     30  C   UNL     1      -1.383   6.351  -0.047  0.00  0.00    +0.045 C 
ENDBRANCH  18  19
ENDBRANCH  17  18
ENDBRANCH   5  17
TORSDOF 4
