REMARK  Name = ZINC24804871
REMARK  12 active torsions:
REMARK  status: ('A' for Active; 'I' for Inactive)
REMARK    1  A    between atoms: C_1  and  C_2
REMARK    2  A    between atoms: C_2  and  C_4
REMARK    3  A    between atoms: C_2  and  O_15
REMARK    4  A    between atoms: N_6  and  C_7
REMARK    5  A    between atoms: O_15  and  C_16
REMARK    6  A    between atoms: C_16  and  C_18
REMARK    7  A    between atoms: C_21  and  S_24
REMARK    8  A    between atoms: S_24  and  N_27
REMARK    9  A    between atoms: N_27  and  C_28
REMARK   10  A    between atoms: C_28  and  C_29
REMARK   11  A    between atoms: C_28  and  C_30
REMARK   12  A    between atoms: C_28  and  C_31
REMARK                            x       y       z     vdW  Elec       q    Type
REMARK                         _______ _______ _______ _____ _____    ______ ____
ROOT
ATOM      1  C   UNL     1       1.143  -2.604  -0.995  0.00  0.00    +0.340 C 
ATOM      2  O   UNL     1       1.546  -1.975  -0.037  0.00  0.00    -0.245 OA
ENDROOT
BRANCH   1   3
ATOM      3  C   UNL     1       0.877  -4.052  -0.870  0.00  0.00    +0.059 A 
ATOM      4  C   UNL     1       0.408  -4.776  -1.967  0.00  0.00    +0.017 A 
ATOM      5  C   UNL     1       0.167  -6.129  -1.844  0.00  0.00    +0.029 A 
ATOM      6  C   UNL     1       0.380  -6.766  -0.634  0.00  0.00    +0.105 A 
ATOM      7  C   UNL     1       0.840  -6.053   0.459  0.00  0.00    +0.029 A 
ATOM      8  C   UNL     1       1.090  -4.701   0.348  0.00  0.00    +0.017 A 
BRANCH   6   9
ATOM      9  S   UNL     1       0.064  -8.493  -0.485  0.00  0.00    +0.059 S 
ATOM     10  O   UNL     1      -0.241  -8.964  -1.790  0.00  0.00    -0.153 OA
ATOM     11  O   UNL     1       1.124  -9.034   0.292  0.00  0.00    -0.153 OA
BRANCH   9  12
ATOM     12  N   UNL     1      -1.316  -8.662   0.414  0.00  0.00    -0.185 NA
ATOM     13  H   UNL     1      -1.236  -8.949   1.473  0.00  0.00    +0.149 HD
BRANCH  12  14
ATOM     14  C   UNL     1      -2.604  -8.224  -0.131  0.00  0.00    +0.032 C 
ATOM     15  C   UNL     1      -3.005  -9.139  -1.290  0.00  0.00    +0.029 C 
ATOM     16  C   UNL     1      -3.670  -8.290   0.964  0.00  0.00    +0.029 C 
ATOM     17  C   UNL     1      -2.480  -6.785  -0.637  0.00  0.00    +0.029 C 
ENDBRANCH  12  14
ENDBRANCH   9  12
ENDBRANCH   6   9
ENDBRANCH   1   3
BRANCH   1  18
ATOM     18  O   UNL     1       0.936  -1.981  -2.171  0.00  0.00    -0.449 OA
BRANCH  18  20
ATOM     19  C   UNL     1       2.677  -0.340  -2.627  0.00  0.00    +0.062 C 
ATOM     20  C   UNL     1       1.218  -0.557  -2.222  0.00  0.00    +0.259 C 
BRANCH  20  21
ATOM     21  C   UNL     1       0.313   0.099  -3.232  0.00  0.00    +0.258 C 
ATOM     22  O   UNL     1      -0.491  -0.568  -3.850  0.00  0.00    -0.271 OA
ATOM     23  N   UNL     1       0.396   1.426  -3.450  0.00  0.00    -0.281 N 
ATOM     24  H   UNL     1       1.078   2.041  -2.845  0.00  0.00    +0.155 HD
BRANCH  23  25
ATOM     25  C   UNL     1      -0.386   2.022  -4.447  0.00  0.00    +0.053 A 
ATOM     26  C   UNL     1      -0.943   1.244  -5.453  0.00  0.00    +0.025 A 
ATOM     27  C   UNL     1      -1.714   1.834  -6.435  0.00  0.00    +0.003 A 
ATOM     28  C   UNL     1      -1.933   3.199  -6.418  0.00  0.00    +0.021 A 
ATOM     29  C   UNL     1      -1.380   3.979  -5.417  0.00  0.00    +0.061 A 
ATOM     30  C   UNL     1      -0.612   3.393  -4.428  0.00  0.00    +0.080 A 
ATOM     31 CL   UNL     1       0.076   4.370  -3.168  0.00  0.00    -0.080 Cl
ATOM     32 CL   UNL     1      -1.658   5.692  -5.399  0.00  0.00    -0.082 Cl
ENDBRANCH  23  25
ENDBRANCH  20  21
ENDBRANCH  18  20
ENDBRANCH   1  18
TORSDOF 8
