REMARK  Name = ZINC62667040
REMARK  10 active torsions:
REMARK  status: ('A' for Active; 'I' for Inactive)
REMARK    1  A    between atoms: C_1  and  C_2
REMARK    2  A    between atoms: C_3  and  C_19
REMARK    3  A    between atoms: C_7  and  N_8
REMARK    4  A    between atoms: N_8  and  C_9
REMARK    5  A    between atoms: N_8  and  C_10
REMARK    6  A    between atoms: C_14  and  O_15
REMARK    7  A    between atoms: O_15  and  C_16
REMARK    8  A    between atoms: C_16  and  C_17
REMARK    9  A    between atoms: C_16  and  C_18
REMARK   10  A    between atoms: C_19  and  N_20
REMARK                            x       y       z     vdW  Elec       q    Type
REMARK                         _______ _______ _______ _____ _____    ______ ____
ROOT
ATOM      1  C   UNL     1      -0.909   1.418   0.053  0.00  0.00    +0.047 C 
ATOM      2  C   UNL     1      -0.647  -0.066   0.033  0.00  0.00    -0.008 A 
ATOM      3  C   UNL     1      -0.635  -0.756  -1.172  0.00  0.00    +0.035 A 
ATOM      4  N   UNL     1      -0.410  -2.048  -1.227  0.00  0.00    -0.354 N 
ATOM      5  C   UNL     1      -0.181  -2.769  -0.124  0.00  0.00    +0.091 A 
ATOM      6  C   UNL     1      -0.176  -2.141   1.143  0.00  0.00    +0.023 A 
ATOM      7  C   UNL     1      -0.411  -0.747   1.216  0.00  0.00    +0.043 A 
ATOM      8  C   UNL     1       0.065  -2.900   2.296  0.00  0.00    +0.012 A 
ATOM      9  C   UNL     1       0.294  -4.239   2.192  0.00  0.00    +0.004 A 
ATOM     10  C   UNL     1       0.293  -4.870   0.952  0.00  0.00    +0.048 A 
ATOM     11  C   UNL     1       0.059  -4.156  -0.202  0.00  0.00    +0.145 A 
ATOM     12  H   UNL     1      -0.410  -2.491  -2.090  0.00  0.00    +0.166 HD
ENDROOT
BRANCH   7  13
ATOM     13  N   UNL     1      -0.412  -0.084   2.435  0.00  0.00    -0.335 N 
ATOM     14  C   UNL     1      -1.655   0.044   3.199  0.00  0.00    +0.129 C 
ATOM     15  C   UNL     1       0.832   0.487   2.959  0.00  0.00    +0.129 C 
ENDBRANCH   7  13
BRANCH  11  16
ATOM     16  O   UNL     1       0.059  -4.784  -1.407  0.00  0.00    -0.487 OA
BRANCH  16  17
ATOM     17  C   UNL     1       0.191  -6.207  -1.397  0.00  0.00    +0.167 C 
ATOM     18  C   UNL     1      -0.427  -6.785  -2.671  0.00  0.00    +0.051 C 
ATOM     19  C   UNL     1       1.673  -6.582  -1.333  0.00  0.00    +0.051 C 
ENDBRANCH  16  17
ENDBRANCH  11  16
BRANCH   3  20
ATOM     20  C   UNL     1      -0.887  -0.000  -2.451  0.00  0.00    +0.131 C 
BRANCH  20  21
ATOM     21  N   UNL     1       0.344   0.687  -2.865  0.00  0.00    -0.325 NA
ATOM     22  H   UNL     1       1.108   0.035  -2.958  0.00  0.00    +0.119 HD
ATOM     23  H   UNL     1       0.200   1.202  -3.721  0.00  0.00    +0.119 HD
ENDBRANCH  20  21
ENDBRANCH   3  20
TORSDOF 5
