REMARK  Name = ZINC17222126
REMARK  4 active torsions:
REMARK  status: ('A' for Active; 'I' for Inactive)
REMARK    1  A    between atoms: C_1  and  C_2
REMARK    2  A    between atoms: C_7  and  C_9
REMARK    3  A    between atoms: C_19  and  C_21
REMARK    4  A    between atoms: C_24  and  O_27
REMARK                            x       y       z     vdW  Elec       q    Type
REMARK                         _______ _______ _______ _____ _____    ______ ____
ROOT
ATOM      1  C   UNL     1       4.737   2.551   0.584  0.00  0.00    +0.068 C 
ATOM      2  C   UNL     1       3.263   2.626   0.279  0.00  0.00    +0.067 A 
ATOM      3  C   UNL     1       2.354   1.585   0.413  0.00  0.00    +0.037 A 
ATOM      4  C   UNL     1       1.108   2.052   0.034  0.00  0.00    +0.167 A 
ATOM      5  N   UNL     1       1.269   3.363  -0.320  0.00  0.00    -0.177 N 
ATOM      6  N   UNL     1       2.624   3.685  -0.155  0.00  0.00    -0.167 NA
ATOM      7  C   UNL     1       0.299   4.196  -0.748  0.00  0.00    +0.280 C 
ATOM      8  O   UNL     1      -0.823   3.773  -0.943  0.00  0.00    -0.265 OA
ATOM      9  N   UNL     1      -0.024   1.310   0.029  0.00  0.00    -0.207 NA
ATOM     10  C   UNL     1      -0.005   0.002   0.033  0.00  0.00    +0.154 C 
ATOM     11  S   UNL     1       1.490  -0.924  -0.041  0.00  0.00    -0.078 S 
ATOM     12  C   UNL     1       2.602   0.172   0.881  0.00  0.00    +0.119 C 
ATOM     13  N   UNL     1      -1.197  -0.674   0.098  0.00  0.00    -0.338 N 
ATOM     14  H   UNL     1      -1.205  -1.774   0.103  0.00  0.00    +0.144 HD
ATOM     15  H   UNL     1      -2.144  -0.117   0.145  0.00  0.00    +0.144 HD
ENDROOT
BRANCH   7  16
ATOM     16  C   UNL     1       0.601   5.622  -0.982  0.00  0.00    +0.041 A 
ATOM     17  C   UNL     1       1.915   6.087  -0.878  0.00  0.00    +0.015 A 
ATOM     18  C   UNL     1       2.191   7.419  -1.103  0.00  0.00    +0.021 A 
ATOM     19  C   UNL     1       1.168   8.297  -1.420  0.00  0.00    +0.041 A 
ATOM     20  C   UNL     1      -0.137   7.844  -1.518  0.00  0.00    +0.021 A 
ATOM     21  C   UNL     1      -0.426   6.513  -1.301  0.00  0.00    +0.015 A 
ATOM     22 CL   UNL     1       1.523   9.974  -1.695  0.00  0.00    -0.084 Cl
ENDBRANCH   7  16
BRANCH  12  23
ATOM     23  C   UNL     1       2.317   0.065   2.357  0.00  0.00    -0.029 A 
ATOM     24  C   UNL     1       1.063   0.390   2.842  0.00  0.00    +0.008 A 
ATOM     25  C   UNL     1       0.797   0.287   4.194  0.00  0.00    +0.046 A 
ATOM     26  C   UNL     1       1.792  -0.132   5.066  0.00  0.00    +0.117 A 
ATOM     27  C   UNL     1       3.050  -0.453   4.577  0.00  0.00    +0.046 A 
ATOM     28  C   UNL     1       3.309  -0.353   3.223  0.00  0.00    +0.008 A 
BRANCH  26  29
ATOM     29  O   UNL     1       1.534  -0.230   6.396  0.00  0.00    -0.507 OA
ATOM     30  H   UNL     1       2.323  -0.562   7.087  0.00  0.00    +0.292 HD
ENDBRANCH  26  29
ENDBRANCH  12  23
TORSDOF 3
