REMARK  Name = ZINC12190636
REMARK  5 active torsions:
REMARK  status: ('A' for Active; 'I' for Inactive)
REMARK    1  A    between atoms: C_8  and  C_10
REMARK    2  A    between atoms: C_10  and  N_62
REMARK    3  A    between atoms: C_13  and  C_16
REMARK    4  A    between atoms: C_13  and  O_33
REMARK    5  A    between atoms: C_23  and  C_25
REMARK                            x       y       z     vdW  Elec       q    Type
REMARK                         _______ _______ _______ _____ _____    ______ ____
ROOT
ATOM      1  C   UNL     1      -0.024   1.271   0.036  0.00  0.00    -0.075 C 
ATOM      2  C   UNL     1      -0.838   1.828  -1.134  0.00  0.00    +0.021 C 
ATOM      3  C   UNL     1      -2.163   1.067  -1.235  0.00  0.00    +0.088 C 
ATOM      4  C   UNL     1      -2.918   1.196   0.091  0.00  0.00    +0.021 C 
ATOM      5  C   UNL     1      -2.044   0.657   1.225  0.00  0.00    -0.075 C 
ATOM      6  N   UNL     1      -0.796   1.447   1.285  0.00  0.00    +0.383 N 
ATOM      7  H   UNL     1      -1.035   2.440   1.392  0.00  0.00    -0.081 HD
ENDROOT
BRANCH   3   8
ATOM      8  C   UNL     1      -2.995   1.651  -2.348  0.00  0.00    -0.015 A 
ATOM      9  C   UNL     1      -2.873   2.996  -2.667  0.00  0.00    +0.010 A 
ATOM     10  C   UNL     1      -3.624   3.551  -3.681  0.00  0.00    +0.047 A 
ATOM     11  C   UNL     1      -4.516   2.758  -4.394  0.00  0.00    +0.136 A 
ATOM     12  C   UNL     1      -4.636   1.395  -4.066  0.00  0.00    +0.021 A 
ATOM     13  C   UNL     1      -3.861   0.851  -3.039  0.00  0.00    +0.018 A 
ATOM     14  C   UNL     1      -5.637   0.852  -4.984  0.00  0.00    +0.063 A 
ATOM     15  C   UNL     1      -6.030   1.890  -5.767  0.00  0.00    +0.191 A 
ATOM     16  O   UNL     1      -5.364   3.008  -5.411  0.00  0.00    -0.450 OA
BRANCH  15  17
ATOM     17  C   UNL     1      -7.032   1.808  -6.840  0.00  0.00    +0.282 C 
ATOM     18  O   UNL     1      -7.677   0.788  -6.992  0.00  0.00    -0.267 OA
ATOM     19  N   UNL     1      -7.235   2.862  -7.654  0.00  0.00    -0.291 N 
ATOM     20  C   UNL     1      -6.367   4.049  -7.588  0.00  0.00    +0.136 C 
ATOM     21  C   UNL     1      -5.888   4.373  -9.012  0.00  0.00    +0.179 C 
ATOM     22  O   UNL     1      -7.022   4.463  -9.878  0.00  0.00    -0.377 OA
ATOM     23  C   UNL     1      -7.763   3.247 -10.002  0.00  0.00    +0.179 C 
ATOM     24  C   UNL     1      -8.334   2.863  -8.632  0.00  0.00    +0.136 C 
ENDBRANCH  15  17
ENDBRANCH   3   8
BRANCH   3  25
ATOM     25  O   UNL     1      -1.903  -0.311  -1.506  0.00  0.00    -0.384 OA
ATOM     26  H   UNL     1      -2.699  -0.854  -1.583  0.00  0.00    +0.211 HD
ENDBRANCH   3  25
BRANCH   6  27
ATOM     27  C   UNL     1       0.016   1.021   2.444  0.00  0.00    -0.036 C 
BRANCH  27  35
ATOM     28  C   UNL     1      -3.538   1.377   7.605  0.00  0.00    +0.001 A 
ATOM     29  C   UNL     1      -3.088   2.662   7.880  0.00  0.00    +0.001 A 
ATOM     30  C   UNL     1      -2.175   3.259   7.034  0.00  0.00    +0.015 A 
ATOM     31  C   UNL     1      -1.724   2.571   5.928  0.00  0.00    +0.020 A 
ATOM     32  C   UNL     1      -2.164   1.265   5.625  0.00  0.00    -0.011 A 
ATOM     33  C   UNL     1      -3.100   0.689   6.517  0.00  0.00    +0.009 A 
ATOM     34  C   UNL     1      -1.582   0.692   4.421  0.00  0.00    +0.017 A 
ATOM     35  C   UNL     1      -0.704   1.412   3.709  0.00  0.00    -0.026 A 
ATOM     36  S   UNL     1      -0.582   2.939   4.620  0.00  0.00    -0.095 S 
ENDBRANCH  27  35
ENDBRANCH   6  27
TORSDOF 5
