REMARK  Name = ZINC40758784
REMARK  8 active torsions:
REMARK  status: ('A' for Active; 'I' for Inactive)
REMARK    1  A    between atoms: C_1  and  C_2
REMARK    2  A    between atoms: C_2  and  O_3
REMARK    3  A    between atoms: O_3  and  C_4
REMARK    4  A    between atoms: C_9  and  N_10
REMARK    5  A    between atoms: C_12  and  N_29
REMARK    6  A    between atoms: C_13  and  N_17
REMARK    7  A    between atoms: N_17  and  C_18
REMARK    8  A    between atoms: C_25  and  C_28
REMARK                            x       y       z     vdW  Elec       q    Type
REMARK                         _______ _______ _______ _____ _____    ______ ____
ROOT
ATOM      1  N   UNL     1       2.638  -1.479  -3.032  0.00  0.00    -0.295 N 
ATOM      2  C   UNL     1       3.168  -1.992  -4.211  0.00  0.00    +0.149 A 
ATOM      3  C   UNL     1       3.656  -1.136  -5.200  0.00  0.00    +0.106 A 
ATOM      4  C   UNL     1       4.177  -1.703  -6.364  0.00  0.00    +0.149 A 
ATOM      5  N   UNL     1       4.190  -3.029  -6.486  0.00  0.00    -0.219 NA
ATOM      6  C   UNL     1       3.720  -3.801  -5.527  0.00  0.00    +0.225 A 
ATOM      7  N   UNL     1       3.224  -3.307  -4.411  0.00  0.00    -0.219 NA
ATOM      8  H   UNL     1       2.695  -0.529  -2.848  0.00  0.00    +0.154 HD
ENDROOT
BRANCH   1  14
ATOM      9  C   UNL     1       1.978  -1.994  -0.762  0.00  0.00    +0.142 A 
ATOM     10  C   UNL     1       1.361  -2.842   0.144  0.00  0.00    +0.047 A 
ATOM     11  C   UNL     1       0.795  -4.026  -0.292  0.00  0.00    +0.004 A 
ATOM     12  C   UNL     1       0.842  -4.367  -1.631  0.00  0.00    +0.002 A 
ATOM     13  C   UNL     1       1.456  -3.527  -2.541  0.00  0.00    +0.027 A 
ATOM     14  C   UNL     1       2.021  -2.335  -2.112  0.00  0.00    +0.075 A 
BRANCH   9  15
ATOM     15  O   UNL     1       2.535  -0.829  -0.334  0.00  0.00    -0.490 OA
BRANCH  15  17
ATOM     16  C   UNL     1       3.129   0.796   1.352  0.00  0.00    +0.048 C 
ATOM     17  C   UNL     1       2.453  -0.545   1.064  0.00  0.00    +0.226 C 
ENDBRANCH  15  17
ENDBRANCH   9  15
ENDBRANCH   1  14
BRANCH   3  18
ATOM     18  N   UNL     1       3.622   0.257  -5.030  0.00  0.00    -0.353 N 
ATOM     19  H   UNL     1       3.256   0.637  -4.216  0.00  0.00    +0.143 HD
ATOM     20  H   UNL     1       3.964   0.840  -5.726  0.00  0.00    +0.143 HD
ENDBRANCH   3  18
BRANCH   4  21
ATOM     21  N   UNL     1       4.676  -0.896  -7.381  0.00  0.00    -0.296 N 
ATOM     22  H   UNL     1       4.588   0.068  -7.322  0.00  0.00    +0.154 HD
BRANCH  21  23
ATOM     23  C   UNL     1       5.302  -1.474  -8.486  0.00  0.00    +0.059 A 
ATOM     24  C   UNL     1       5.922  -2.699  -8.370  0.00  0.00    +0.025 A 
ATOM     25  C   UNL     1       6.550  -3.286  -9.465  0.00  0.00    +0.003 A 
ATOM     26  C   UNL     1       6.568  -2.667 -10.678  0.00  0.00    +0.010 A 
ATOM     27  C   UNL     1       5.947  -1.417 -10.836  0.00  0.00    +0.002 A 
ATOM     28  C   UNL     1       5.300  -0.810  -9.732  0.00  0.00    +0.092 A 
ATOM     29  N   UNL     1       4.703   0.376  -9.880  0.00  0.00    -0.250 NA
ATOM     30  C   UNL     1       4.698   0.997 -11.035  0.00  0.00    +0.039 A 
ATOM     31  C   UNL     1       5.311   0.454 -12.162  0.00  0.00    +0.023 A 
ATOM     32  C   UNL     1       5.949  -0.751 -12.076  0.00  0.00    +0.012 A 
ATOM     33  C   UNL     1       4.010   2.333 -11.146  0.00  0.00    +0.065 C 
ENDBRANCH  21  23
ENDBRANCH   4  21
TORSDOF 6
