REMARK  Name = ZINC37376760
REMARK  4 active torsions:
REMARK  status: ('A' for Active; 'I' for Inactive)
REMARK    1  A    between atoms: C_3  and  N_8
REMARK    2  A    between atoms: C_9  and  N_29
REMARK    3  A    between atoms: C_11  and  C_21
REMARK    4  A    between atoms: N_17  and  C_18
REMARK                            x       y       z     vdW  Elec       q    Type
REMARK                         _______ _______ _______ _____ _____    ______ ____
ROOT
ATOM      1  N   UNL     1       3.569   2.341   0.326  0.00  0.00    -0.216 N 
ATOM      2  C   UNL     1       4.752   1.795   0.668  0.00  0.00    +0.131 A 
ATOM      3  C   UNL     1       5.753   2.591   0.125  0.00  0.00    +0.086 A 
ATOM      4  C   UNL     1       7.166   2.573   0.114  0.00  0.00    +0.089 A 
ATOM      5  N   UNL     1       7.801   3.540  -0.536  0.00  0.00    -0.214 NA
ATOM      6  C   UNL     1       7.152   4.512  -1.169  0.00  0.00    +0.218 A 
ATOM      7  N   UNL     1       5.838   4.605  -1.209  0.00  0.00    -0.193 NA
ATOM      8  C   UNL     1       5.073   3.687  -0.589  0.00  0.00    +0.189 A 
ATOM      9  N   UNL     1       3.780   3.490  -0.445  0.00  0.00    -0.144 NA
ATOM     10  N   UNL     1       7.896   5.479  -1.821  0.00  0.00    -0.311 N 
ATOM     11  H   UNL     1       8.865   5.436  -1.808  0.00  0.00    +0.149 HD
ENDROOT
BRANCH   4  12
ATOM     12  C   UNL     1       7.917   1.505   0.810  0.00  0.00    +0.003 A 
ATOM     13  C   UNL     1       7.545   0.169   0.649  0.00  0.00    +0.013 A 
ATOM     14  C   UNL     1       8.248  -0.823   1.299  0.00  0.00    +0.040 A 
ATOM     15  C   UNL     1       9.323  -0.497   2.111  0.00  0.00    +0.142 A 
ATOM     16  C   UNL     1       9.697   0.829   2.275  0.00  0.00    +0.077 A 
ATOM     17  C   UNL     1       9.003   1.829   1.623  0.00  0.00    +0.033 A 
ATOM     18 CL   UNL     1      11.044   1.230   3.294  0.00  0.00    -0.081 Cl
ATOM     19  F   UNL     1      10.008  -1.473   2.747  0.00  0.00    -0.204 F 
ENDBRANCH   4  12
BRANCH   1  22
ATOM     20  C   UNL     1       0.024   2.195   1.298  0.00  0.00    +0.005 A 
ATOM     21  C   UNL     1       1.262   2.699   0.947  0.00  0.00    +0.028 A 
ATOM     22  C   UNL     1       2.314   1.833   0.682  0.00  0.00    +0.070 A 
ATOM     23  C   UNL     1       2.120   0.460   0.772  0.00  0.00    +0.066 A 
ATOM     24  C   UNL     1       0.879  -0.039   1.124  0.00  0.00    +0.125 A 
ATOM     25  C   UNL     1      -0.168   0.829   1.387  0.00  0.00    +0.038 A 
ATOM     26  F   UNL     1       0.689  -1.374   1.212  0.00  0.00    -0.205 F 
ENDBRANCH   1  22
BRANCH  10  27
ATOM     27  C   UNL     1       7.221   6.568  -2.530  0.00  0.00    +0.073 C 
ATOM     28  C   UNL     1       7.754   6.948  -3.913  0.00  0.00    +0.024 C 
ATOM     29  C   UNL     1       7.994   7.875  -2.720  0.00  0.00    +0.024 C 
ENDBRANCH  10  27
BRANCH   2  30
ATOM     30  N   UNL     1       4.936   0.651   1.423  0.00  0.00    -0.342 N 
ATOM     31  H   UNL     1       4.182   0.073   1.619  0.00  0.00    +0.144 HD
ATOM     32  H   UNL     1       5.819   0.427   1.756  0.00  0.00    +0.144 HD
ENDBRANCH   2  30
TORSDOF 4
