REMARK  Name = ZINC08898638
REMARK  10 active torsions:
REMARK  status: ('A' for Active; 'I' for Inactive)
REMARK    1  A    between atoms: C_1  and  C_2
REMARK    2  A    between atoms: C_2  and  O_3
REMARK    3  A    between atoms: O_3  and  C_4
REMARK    4  A    between atoms: C_4  and  C_6
REMARK    5  A    between atoms: C_7  and  C_24
REMARK    6  A    between atoms: C_10  and  N_11
REMARK    7  A    between atoms: C_12  and  C_14
REMARK    8  A    between atoms: C_14  and  N_54
REMARK    9  A    between atoms: C_16  and  C_23
REMARK   10  A    between atoms: C_19  and  C_22
REMARK                            x       y       z     vdW  Elec       q    Type
REMARK                         _______ _______ _______ _____ _____    ______ ____
ROOT
ATOM      1  C   UNL     1      -2.192   0.998   7.347  0.00  0.00    +0.095 A 
ATOM      2  C   UNL     1      -1.236   0.496   8.316  0.00  0.00    +0.005 A 
ATOM      3  C   UNL     1      -0.080  -0.019   7.823  0.00  0.00    +0.056 A 
ATOM      4  S   UNL     1      -0.272   0.158   6.061  0.00  0.00    -0.080 S 
ATOM      5  C   UNL     1      -1.839   0.892   6.008  0.00  0.00    +0.086 A 
ENDROOT
BRANCH   2   6
ATOM      6  C   UNL     1      -1.504   0.549   9.773  0.00  0.00    -0.016 A 
ATOM      7  C   UNL     1      -1.922   1.741  10.364  0.00  0.00    +0.009 A 
ATOM      8  C   UNL     1      -2.176   1.783  11.720  0.00  0.00    +0.016 A 
ATOM      9  C   UNL     1      -2.004   0.649  12.494  0.00  0.00    +0.018 A 
ATOM     10  C   UNL     1      -1.583  -0.535  11.913  0.00  0.00    +0.016 A 
ATOM     11  C   UNL     1      -1.332  -0.590  10.558  0.00  0.00    +0.009 A 
ATOM     12 BR   UNL     1      -2.345   0.717  14.353  0.00  0.00    -0.050 Br
ENDBRANCH   2   6
BRANCH   5  13
ATOM     13  N   UNL     1      -2.565   1.286   4.896  0.00  0.00    -0.281 N 
ATOM     14  C   UNL     1      -2.055   1.109   3.661  0.00  0.00    +0.201 C 
ATOM     15  O   UNL     1      -0.960   0.604   3.523  0.00  0.00    -0.278 OA
ATOM     16  H   UNL     1      -3.440   1.690   5.006  0.00  0.00    +0.155 HD
BRANCH  14  17
ATOM     17  C   UNL     1      -2.844   1.538   2.451  0.00  0.00    +0.019 C 
BRANCH  17  25
ATOM     18  C   UNL     1      -2.755   1.705   0.035  0.00  0.00    -0.046 C 
ATOM     19  C   UNL     1      -1.963   1.275  -1.202  0.00  0.00    +0.099 C 
ATOM     20  O   UNL     1      -1.930  -0.153  -1.269  0.00  0.00    -0.378 OA
ATOM     21  C   UNL     1      -1.343  -0.770  -0.120  0.00  0.00    +0.099 C 
ATOM     22  C   UNL     1      -2.129  -0.362   1.129  0.00  0.00    -0.046 C 
ATOM     23  C   UNL     1      -1.389  -2.291  -0.278  0.00  0.00    +0.036 C 
ATOM     24  C   UNL     1      -2.637   1.830  -2.458  0.00  0.00    +0.036 C 
ATOM     25  N   UNL     1      -2.121   1.112   1.233  0.00  0.00    +0.389 N 
ATOM     26  H   UNL     1      -1.149   1.438   1.292  0.00  0.00    -0.081 HD
ENDBRANCH  17  25
ENDBRANCH  14  17
ENDBRANCH   5  13
BRANCH   1  27
ATOM     27  C   UNL     1      -3.468   1.581   7.760  0.00  0.00    +0.342 C 
ATOM     28  O   UNL     1      -4.448   0.872   7.889  0.00  0.00    -0.245 OA
BRANCH  27  29
ATOM     29  O   UNL     1      -3.558   2.906   7.999  0.00  0.00    -0.461 OA
BRANCH  29  31
ATOM     30  C   UNL     1      -4.762   4.927   8.629  0.00  0.00    +0.048 C 
ATOM     31  C   UNL     1      -4.855   3.416   8.405  0.00  0.00    +0.229 C 
ENDBRANCH  29  31
ENDBRANCH  27  29
ENDBRANCH   1  27
TORSDOF 7
