REMARK  Name = ZINC24225490
REMARK  12 active torsions:
REMARK  status: ('A' for Active; 'I' for Inactive)
REMARK    1  A    between atoms: C_1  and  C_2
REMARK    2  A    between atoms: C_2  and  N_3
REMARK    3  A    between atoms: N_3  and  C_4
REMARK    4  A    between atoms: N_3  and  C_6
REMARK    5  A    between atoms: C_4  and  C_5
REMARK    6  A    between atoms: C_9  and  C_12
REMARK    7  A    between atoms: C_15  and  S_17
REMARK    8  A    between atoms: S_17  and  C_18
REMARK    9  A    between atoms: C_18  and  C_20
REMARK   10  A    between atoms: C_18  and  C_21
REMARK   11  A    between atoms: C_21  and  C_23
REMARK   12  A    between atoms: C_23  and  C_33
REMARK                            x       y       z     vdW  Elec       q    Type
REMARK                         _______ _______ _______ _____ _____    ______ ____
ROOT
ATOM      1  C   UNL     1      -2.729   0.167   0.028  0.00  0.00    +0.125 C 
ATOM      2  C   UNL     1      -2.675   0.953   1.339  0.00  0.00    +0.028 C 
ENDROOT
BRANCH   1   3
ATOM      3  C   UNL     1      -4.062  -0.526  -0.087  0.00  0.00    +0.189 C 
ATOM      4  O   UNL     1      -4.180  -1.681   0.273  0.00  0.00    -0.290 OA
BRANCH   3   5
ATOM      5  C   UNL     1      -5.169   0.163  -0.611  0.00  0.00    +0.131 C 
ATOM      6  C   UNL     1      -6.413  -0.485  -0.719  0.00  0.00    +0.114 C 
ATOM      7  N   UNL     1      -6.665  -1.769  -0.357  0.00  0.00    -0.300 N 
ATOM      8  C   UNL     1      -8.005  -2.038  -0.612  0.00  0.00    +0.054 A 
ATOM      9  C   UNL     1      -8.795  -3.167  -0.437  0.00  0.00    +0.025 A 
ATOM     10  C   UNL     1     -10.127  -3.136  -0.798  0.00  0.00    +0.002 A 
ATOM     11  C   UNL     1     -10.680  -1.984  -1.333  0.00  0.00    +0.002 A 
ATOM     12  C   UNL     1      -9.903  -0.857  -1.510  0.00  0.00    +0.025 A 
ATOM     13  C   UNL     1      -8.563  -0.877  -1.151  0.00  0.00    +0.054 A 
ATOM     14  N   UNL     1      -7.551   0.074  -1.207  0.00  0.00    -0.300 N 
ATOM     15  H   UNL     1      -5.859  -2.392   0.057  0.00  0.00    +0.153 HD
ATOM     16  H   UNL     1      -7.544   1.117  -1.558  0.00  0.00    +0.153 HD
BRANCH   5  17
ATOM     17  C   UNL     1      -5.030   1.523  -1.036  0.00  0.00    +0.106 C 
ATOM     18  N   UNL     1      -4.920   2.603  -1.372  0.00  0.00    -0.191 NA
ENDBRANCH   5  17
ENDBRANCH   3   5
ENDBRANCH   1   3
BRANCH   1  19
ATOM     19  S   UNL     1      -1.404  -1.066   0.009  0.00  0.00    -0.054 S 
BRANCH  19  23
ATOM     20  C   UNL     1       2.028   0.744  -0.013  0.00  0.00    +0.249 A 
ATOM     21  N   UNL     1       1.191   1.753   0.000  0.00  0.00    -0.106 NA
ATOM     22  N   UNL     1      -0.016   1.308   0.009  0.00  0.00    -0.101 NA
ATOM     23  C   UNL     1       0.002  -0.004   0.002  0.00  0.00    +0.278 A 
ATOM     24  O   UNL     1       1.292  -0.390  -0.012  0.00  0.00    -0.411 OA
BRANCH  20  28
ATOM     25  C   UNL     1       6.269   0.992  -0.049  0.00  0.00    +0.030 A 
ATOM     26  C   UNL     1       5.506   2.154  -0.037  0.00  0.00    +0.024 A 
ATOM     27  C   UNL     1       4.130   2.078  -0.026  0.00  0.00    +0.015 A 
ATOM     28  C   UNL     1       3.502   0.830  -0.026  0.00  0.00    +0.039 A 
ATOM     29  C   UNL     1       4.271  -0.336  -0.033  0.00  0.00    +0.015 A 
ATOM     30  C   UNL     1       5.647  -0.252  -0.050  0.00  0.00    +0.024 A 
BRANCH  25  31
ATOM     31  N   UNL     1       7.662   1.073  -0.061  0.00  0.00    -0.330 N 
BRANCH  31  33
ATOM     32  C   UNL     1       8.735  -0.570  -1.521  0.00  0.00    +0.024 C 
ATOM     33  C   UNL     1       8.467  -0.151  -0.074  0.00  0.00    +0.102 C 
ENDBRANCH  31  33
BRANCH  31  34
ATOM     34  C   UNL     1       8.319   2.382  -0.060  0.00  0.00    +0.102 C 
ATOM     35  C   UNL     1       8.560   2.831   1.382  0.00  0.00    +0.024 C 
ENDBRANCH  31  34
ENDBRANCH  25  31
ENDBRANCH  20  28
ENDBRANCH  19  23
ENDBRANCH   1  19
TORSDOF 9
