REMARK  Name = ZINC40433515
REMARK  4 active torsions:
REMARK  status: ('A' for Active; 'I' for Inactive)
REMARK    1  A    between atoms: C_4  and  S_9
REMARK    2  A    between atoms: C_5  and  C_7
REMARK    3  A    between atoms: S_9  and  C_10
REMARK    4  A    between atoms: C_16  and  N_18
REMARK                            x       y       z     vdW  Elec       q    Type
REMARK                         _______ _______ _______ _____ _____    ______ ____
ROOT
ATOM      1  C   UNL     1       5.157   0.495  -0.196  0.00  0.00    +0.176 A 
ATOM      2  N   UNL     1       6.472   0.178  -0.351  0.00  0.00    -0.302 N 
ATOM      3  H   UNL     1       6.746  -0.752  -0.376  0.00  0.00    +0.171 HD
ATOM      4  C   UNL     1       7.395   1.155  -0.470  0.00  0.00    +0.254 A 
ATOM      5  O   UNL     1       8.576   0.880  -0.610  0.00  0.00    -0.268 OA
ATOM      6  C   UNL     1       6.975   2.489  -0.431  0.00  0.00    +0.113 A 
ATOM      7  C   UNL     1       5.623   2.758  -0.271  0.00  0.00    +0.124 A 
ATOM      8  N   UNL     1       4.753   1.748  -0.163  0.00  0.00    -0.208 NA
ENDROOT
BRANCH   7   9
ATOM      9  N   UNL     1       5.178   4.064  -0.229  0.00  0.00    -0.343 N 
ATOM     10  H   UNL     1       5.810   4.795  -0.311  0.00  0.00    +0.144 HD
ATOM     11  H   UNL     1       4.232   4.250  -0.117  0.00  0.00    +0.144 HD
ENDBRANCH   7   9
BRANCH   1  12
ATOM     12  S   UNL     1       3.969  -0.798  -0.042  0.00  0.00    -0.050 S 
BRANCH  12  16
ATOM     13  C   UNL     1       0.073   1.379   0.786  0.00  0.00    +0.001 A 
ATOM     14  C   UNL     1       0.324   0.848  -0.469  0.00  0.00    +0.001 A 
ATOM     15  C   UNL     1       1.508   0.186  -0.724  0.00  0.00    +0.016 A 
ATOM     16  C   UNL     1       2.457   0.048   0.280  0.00  0.00    +0.033 A 
ATOM     17  C   UNL     1       2.206   0.584   1.552  0.00  0.00    +0.066 A 
ATOM     18  C   UNL     1       1.003   1.252   1.794  0.00  0.00    +0.020 A 
BRANCH  17  19
ATOM     19  C   UNL     1       3.177   0.447   2.596  0.00  0.00    +0.100 C 
ATOM     20  N   UNL     1       3.947   0.339   3.425  0.00  0.00    -0.191 NA
ENDBRANCH  17  19
ENDBRANCH  12  16
ENDBRANCH   1  12
TORSDOF 4
