REMARK  Name = ZINC35139479
REMARK  12 active torsions:
REMARK  status: ('A' for Active; 'I' for Inactive)
REMARK    1  A    between atoms: C_1  and  C_2
REMARK    2  A    between atoms: N_8  and  C_9
REMARK    3  A    between atoms: C_9  and  C_10
REMARK    4  A    between atoms: C_10  and  C_11
REMARK    5  A    between atoms: C_11  and  N_12
REMARK    6  A    between atoms: C_13  and  C_15
REMARK    7  A    between atoms: C_15  and  C_16
REMARK    8  A    between atoms: C_16  and  C_17
REMARK    9  A    between atoms: C_17  and  C_18
REMARK   10  A    between atoms: C_18  and  S_19
REMARK   11  A    between atoms: S_19  and  C_20
REMARK   12  A    between atoms: N_30  and  C_31
REMARK                            x       y       z     vdW  Elec       q    Type
REMARK                         _______ _______ _______ _____ _____    ______ ____
ROOT
ATOM      1  C   UNL     1      10.131   2.673   7.984  0.00  0.00    +0.077 C 
ENDROOT
BRANCH   1   2
ATOM      2  C   UNL     1       8.663   2.758   8.406  0.00  0.00    +0.012 C 
BRANCH   2   3
ATOM      3  C   UNL     1       7.917   3.708   7.467  0.00  0.00    +0.010 C 
BRANCH   3   4
ATOM      4  C   UNL     1       6.449   3.793   7.890  0.00  0.00    +0.096 C 
BRANCH   4   6
ATOM      5  N   UNL     1       4.398   4.958   7.146  0.00  0.00    -0.315 N 
ATOM      6  C   UNL     1       5.713   4.728   6.965  0.00  0.00    +0.213 C 
ATOM      7  O   UNL     1       6.305   5.273   6.057  0.00  0.00    -0.276 OA
ATOM      8  H   UNL     1       3.924   4.523   7.872  0.00  0.00    +0.149 HD
BRANCH   5   9
ATOM      9  C   UNL     1       3.683   5.868   6.247  0.00  0.00    +0.102 C 
BRANCH   9  10
ATOM     10  C   UNL     1       2.215   5.952   6.669  0.00  0.00    +0.000 C 
BRANCH  10  11
ATOM     11  C   UNL     1       1.468   6.902   5.730  0.00  0.00    -0.077 C 
BRANCH  11  18
ATOM     12  C   UNL     1       0.087   9.329   5.438  0.00  0.00    -0.013 C 
ATOM     13  C   UNL     1      -0.630   7.984   5.310  0.00  0.00    -0.072 C 
ATOM     14  C   UNL     1      -2.078   8.131   5.782  0.00  0.00    -0.016 C 
ATOM     15  C   UNL     1      -2.791   6.782   5.652  0.00  0.00    -0.003 C 
ATOM     16  C   UNL     1      -2.022   5.729   6.457  0.00  0.00    -0.019 C 
ATOM     17  C   UNL     1      -0.576   5.671   5.959  0.00  0.00    -0.078 C 
ATOM     18  N   UNL     1       0.058   6.983   6.135  0.00  0.00    +0.381 N 
ATOM     19  H   UNL     1       0.004   7.255   7.106  0.00  0.00    -0.081 HD
ENDBRANCH  11  18
ENDBRANCH  10  11
ENDBRANCH   9  10
ENDBRANCH   5   9
ENDBRANCH   4   6
ENDBRANCH   3   4
ENDBRANCH   2   3
ENDBRANCH   1   2
BRANCH   1  20
ATOM     20  S   UNL     1      11.017   1.548   9.098  0.00  0.00    -0.087 S 
BRANCH  20  21
ATOM     21  C   UNL     1      12.670   1.558   8.488  0.00  0.00    +0.177 A 
ATOM     22  N   UNL     1      12.947   2.304   7.447  0.00  0.00    -0.223 NA
ATOM     23  C   UNL     1      14.196   2.358   6.928  0.00  0.00    +0.079 A 
ATOM     24  C   UNL     1      14.495   3.153   5.818  0.00  0.00    +0.028 A 
ATOM     25  C   UNL     1      15.770   3.178   5.327  0.00  0.00    +0.002 A 
ATOM     26  C   UNL     1      16.777   2.423   5.915  0.00  0.00    +0.001 A 
ATOM     27  C   UNL     1      16.516   1.635   7.002  0.00  0.00    +0.015 A 
ATOM     28  C   UNL     1      15.224   1.591   7.524  0.00  0.00    +0.065 A 
ATOM     29  C   UNL     1      14.886   0.764   8.690  0.00  0.00    +0.267 A 
ATOM     30  O   UNL     1      15.728   0.083   9.246  0.00  0.00    -0.267 OA
ATOM     31  N   UNL     1      13.605   0.791   9.126  0.00  0.00    -0.255 N 
BRANCH  31  32
ATOM     32  C   UNL     1      13.233   0.023  10.238  0.00  0.00    +0.053 A 
ATOM     33  C   UNL     1      12.788  -1.281  10.065  0.00  0.00    +0.026 A 
ATOM     34  C   UNL     1      12.422  -2.036  11.162  0.00  0.00    +0.003 A 
ATOM     35  C   UNL     1      12.499  -1.495  12.432  0.00  0.00    +0.020 A 
ATOM     36  C   UNL     1      12.942  -0.196  12.608  0.00  0.00    +0.043 A 
ATOM     37  C   UNL     1      13.315   0.562  11.514  0.00  0.00    +0.046 A 
ATOM     38 CL   UNL     1      13.036   0.479  14.205  0.00  0.00    -0.083 Cl
ENDBRANCH  31  32
ENDBRANCH  20  21
ENDBRANCH   1  20
TORSDOF 11
