REMARK  Name = ZINC05066956
REMARK  9 active torsions:
REMARK  status: ('A' for Active; 'I' for Inactive)
REMARK    1  A    between atoms: C_1  and  C_2
REMARK    2  A    between atoms: C_2  and  C_3
REMARK    3  A    between atoms: C_3  and  C_4
REMARK    4  A    between atoms: C_3  and  C_5
REMARK    5  A    between atoms: C_3  and  C_6
REMARK    6  A    between atoms: N_19  and  N_20
REMARK    7  A    between atoms: C_21  and  C_22
REMARK    8  A    between atoms: C_22  and  C_30
REMARK    9  A    between atoms: C_23  and  C_24
REMARK                            x       y       z     vdW  Elec       q    Type
REMARK                         _______ _______ _______ _____ _____    ______ ____
ROOT
ATOM      1  C   UNL     1      -5.920   0.071  -0.936  0.00  0.00    -0.001 C 
ATOM      2  C   UNL     1      -7.033  -0.613  -0.136  0.00  0.00    +0.009 C 
ATOM      3  C   UNL     1      -6.933  -2.130  -0.351  0.00  0.00    +0.043 C 
ATOM      4  C   UNL     1      -5.504  -2.542  -0.162  0.00  0.00    -0.004 A 
ATOM      5  C   UNL     1      -4.420  -1.740  -0.130  0.00  0.00    -0.024 A 
ATOM      6  C   UNL     1      -3.123  -2.385   0.070  0.00  0.00    +0.052 A 
ATOM      7  C   UNL     1      -1.833  -1.789   0.144  0.00  0.00    +0.150 A 
ATOM      8  N   UNL     1      -0.775  -2.563   0.326  0.00  0.00    -0.219 NA
ATOM      9  C   UNL     1      -0.876  -3.874   0.451  0.00  0.00    +0.224 A 
ATOM     10  N   UNL     1      -2.044  -4.484   0.391  0.00  0.00    -0.228 NA
ATOM     11  C   UNL     1      -3.149  -3.788   0.207  0.00  0.00    +0.114 A 
ATOM     12  S   UNL     1      -4.873  -4.182   0.069  0.00  0.00    -0.073 S 
ATOM     13  N   UNL     1      -1.686  -0.419   0.022  0.00  0.00    -0.220 N 
ATOM     14  C   UNL     1      -4.563  -0.229  -0.298  0.00  0.00    +0.040 C 
ATOM     15  H   UNL     1      -2.453   0.163   0.138  0.00  0.00    +0.176 HD
ENDROOT
BRANCH   1  16
ATOM     16  C   UNL     1      -6.154   1.583  -0.945  0.00  0.00    -0.032 C 
ATOM     17  C   UNL     1      -6.138   2.110   0.491  0.00  0.00    +0.011 C 
ATOM     18  C   UNL     1      -5.048   2.266  -1.751  0.00  0.00    +0.011 C 
BRANCH  16  20
ATOM     19  C   UNL     1      -7.747   3.396  -1.592  0.00  0.00    +0.004 C 
ATOM     20  C   UNL     1      -7.512   1.884  -1.583  0.00  0.00    +0.003 C 
ENDBRANCH  16  20
ENDBRANCH   1  16
BRANCH  13  21
ATOM     21  N   UNL     1      -0.429   0.128  -0.269  0.00  0.00    -0.189 NA
ATOM     22  C   UNL     1      -0.291   1.418  -0.384  0.00  0.00    +0.133 C 
BRANCH  22  23
ATOM     23  C   UNL     1       0.981   1.971  -0.678  0.00  0.00    -0.030 C 
ATOM     24  C   UNL     1       1.124   3.308  -0.797  0.00  0.00    +0.012 C 
ATOM     25  C   UNL     1       2.172   1.067  -0.859  0.00  0.00    +0.045 C 
BRANCH  24  26
ATOM     26  C   UNL     1       2.404   3.873  -1.254  0.00  0.00    -0.025 A 
ATOM     27  C   UNL     1       2.828   5.121  -0.787  0.00  0.00    +0.008 A 
ATOM     28  C   UNL     1       4.030   5.641  -1.216  0.00  0.00    +0.001 A 
ATOM     29  C   UNL     1       4.811   4.937  -2.116  0.00  0.00    +0.000 A 
ATOM     30  C   UNL     1       4.396   3.704  -2.587  0.00  0.00    +0.001 A 
ATOM     31  C   UNL     1       3.199   3.167  -2.163  0.00  0.00    +0.008 A 
ENDBRANCH  24  26
ENDBRANCH  22  23
ENDBRANCH  13  21
TORSDOF 5
