REMARK  Name = ZINC63374926
REMARK  11 active torsions:
REMARK  status: ('A' for Active; 'I' for Inactive)
REMARK    1  A    between atoms: C_1  and  C_2
REMARK    2  A    between atoms: C_2  and  C_3
REMARK    3  A    between atoms: C_3  and  O_4
REMARK    4  A    between atoms: O_4  and  C_5
REMARK    5  A    between atoms: C_9  and  C_14
REMARK    6  A    between atoms: C_10  and  O_11
REMARK    7  A    between atoms: O_11  and  C_12
REMARK    8  A    between atoms: C_12  and  C_13
REMARK    9  A    between atoms: N_20  and  C_35
REMARK   10  A    between atoms: C_23  and  C_34
REMARK   11  A    between atoms: C_38  and  C_41
REMARK                            x       y       z     vdW  Elec       q    Type
REMARK                         _______ _______ _______ _____ _____    ______ ____
ROOT
ATOM      1  C   UNL     1       2.092  -6.048  -3.541  0.00  0.00    +0.069 C 
ATOM      2  C   UNL     1       3.554  -6.528  -3.630  0.00  0.00    +0.123 C 
ATOM      3  N   UNL     1       4.039  -6.279  -4.990  0.00  0.00    -0.268 N 
ATOM      4  C   UNL     1       5.121  -5.588  -5.371  0.00  0.00    +0.317 C 
ATOM      5  O   UNL     1       5.951  -5.149  -4.599  0.00  0.00    -0.252 OA
ATOM      6  N   UNL     1       5.184  -5.436  -6.701  0.00  0.00    -0.192 N 
ATOM      7  C   UNL     1       4.171  -6.073  -7.324  0.00  0.00    +0.253 C 
ATOM      8  O   UNL     1       3.945  -6.098  -8.514  0.00  0.00    -0.272 OA
ATOM      9  C   UNL     1       3.376  -6.749  -6.228  0.00  0.00    +0.137 C 
ATOM     10  C   UNL     1       1.945  -6.199  -6.200  0.00  0.00    +0.139 C 
ATOM     11  C   UNL     1       1.399  -6.492  -4.805  0.00  0.00    -0.027 C 
ATOM     12  C   UNL     1       0.278  -7.184  -4.980  0.00  0.00    -0.000 A 
ATOM     13  C   UNL     1      -0.727  -7.676  -4.023  0.00  0.00    +0.010 A 
ATOM     14  C   UNL     1      -1.763  -8.380  -4.551  0.00  0.00    +0.001 A 
ATOM     15  C   UNL     1      -1.898  -8.640  -5.918  0.00  0.00    +0.002 A 
ATOM     16  C   UNL     1      -1.027  -8.220  -6.870  0.00  0.00    +0.026 A 
ATOM     17  C   UNL     1       0.101  -7.462  -6.437  0.00  0.00    +0.043 A 
ATOM     18  N   UNL     1       1.074  -6.915  -7.135  0.00  0.00    -0.375 N 
ATOM     19  C   UNL     1       3.409  -8.274  -6.354  0.00  0.00    +0.044 C 
ATOM     20  H   UNL     1       1.199  -6.973  -8.095  0.00  0.00    +0.160 HD
ENDROOT
BRANCH   6  21
ATOM     21  C   UNL     1       6.181  -4.706  -7.363  0.00  0.00    +0.045 A 
ATOM     22  C   UNL     1       6.236  -4.704  -8.751  0.00  0.00    +0.024 A 
ATOM     23  C   UNL     1       7.219  -3.983  -9.400  0.00  0.00    +0.005 A 
ATOM     24  C   UNL     1       8.148  -3.264  -8.671  0.00  0.00    -0.050 A 
ATOM     25  C   UNL     1       8.095  -3.264  -7.289  0.00  0.00    +0.005 A 
ATOM     26  C   UNL     1       7.111  -3.978  -6.634  0.00  0.00    +0.024 A 
ATOM     27  C   UNL     1       9.219  -2.479  -9.383  0.00  0.00    +0.044 C 
ENDBRANCH   6  21
BRANCH   1  32
ATOM     28  C   UNL     1       1.415  -2.557  -2.242  0.00  0.00    +0.162 A 
ATOM     29  C   UNL     1       1.979  -1.781  -3.243  0.00  0.00    +0.049 A 
ATOM     30  C   UNL     1       2.576  -2.387  -4.333  0.00  0.00    +0.004 A 
ATOM     31  C   UNL     1       2.612  -3.765  -4.428  0.00  0.00    +0.008 A 
ATOM     32  C   UNL     1       2.051  -4.545  -3.433  0.00  0.00    +0.007 A 
ATOM     33  C   UNL     1       1.457  -3.945  -2.335  0.00  0.00    +0.166 A 
BRANCH  28  34
ATOM     34  O   UNL     1       0.828  -1.963  -1.169  0.00  0.00    -0.488 OA
BRANCH  34  35
ATOM     35  C   UNL     1       0.823  -0.534  -1.140  0.00  0.00    +0.229 C 
BRANCH  35  37
ATOM     36  C   UNL     1       0.118   1.478   0.163  0.00  0.00    +0.007 C 
ATOM     37  C   UNL     1       0.124  -0.052   0.133  0.00  0.00    +0.038 C 
ENDBRANCH  35  37
ENDBRANCH  34  35
ENDBRANCH  28  34
BRANCH  33  38
ATOM     38  O   UNL     1       0.910  -4.710  -1.353  0.00  0.00    -0.488 OA
BRANCH  38  39
ATOM     39  C   UNL     1      -0.466  -5.067  -1.499  0.00  0.00    +0.226 C 
ATOM     40  C   UNL     1      -0.900  -5.922  -0.306  0.00  0.00    +0.048 C 
ENDBRANCH  38  39
ENDBRANCH  33  38
ENDBRANCH   1  32
TORSDOF 7
