REMARK  Name = ZINC11855710
REMARK  5 active torsions:
REMARK  status: ('A' for Active; 'I' for Inactive)
REMARK    1  A    between atoms: C_3  and  C_6
REMARK    2  A    between atoms: C_8  and  N_22
REMARK    3  A    between atoms: C_23  and  C_25
REMARK    4  A    between atoms: C_25  and  C_26
REMARK    5  A    between atoms: C_26  and  C_27
REMARK                            x       y       z     vdW  Elec       q    Type
REMARK                         _______ _______ _______ _____ _____    ______ ____
ROOT
ATOM      1  C   UNL     1       9.971   2.441  -0.578  0.00  0.00    +0.102 A 
ATOM      2  C   UNL     1       8.616   2.073  -0.439  0.00  0.00    +0.074 A 
ATOM      3  C   UNL     1       8.045   2.919   0.455  0.00  0.00    +0.132 A 
ATOM      4  N   UNL     1       9.007   3.799   0.866  0.00  0.00    -0.185 N 
ATOM      5  N   UNL     1      10.200   3.473   0.208  0.00  0.00    -0.162 NA
ATOM      6  C   UNL     1       8.833   4.827   1.771  0.00  0.00    +0.234 A 
ATOM      7  N   UNL     1       9.889   5.622   2.089  0.00  0.00    -0.291 N 
ATOM      8  H   UNL     1      10.756   5.466   1.682  0.00  0.00    +0.172 HD
ATOM      9  C   UNL     1       9.723   6.631   2.969  0.00  0.00    +0.256 A 
ATOM     10  O   UNL     1      10.658   7.359   3.263  0.00  0.00    -0.267 OA
ATOM     11  C   UNL     1       8.454   6.827   3.546  0.00  0.00    +0.038 A 
ATOM     12  C   UNL     1       7.433   5.995   3.195  0.00  0.00    +0.053 A 
ATOM     13  N   UNL     1       7.651   5.015   2.314  0.00  0.00    -0.217 NA
ATOM     14  C   UNL     1       6.170   6.388   3.931  0.00  0.00    +0.056 C 
ATOM     15  C   UNL     1       6.645   7.281   5.097  0.00  0.00    +0.011 C 
ATOM     16  C   UNL     1       7.972   7.850   4.550  0.00  0.00    +0.043 C 
ENDROOT
BRANCH   1  19
ATOM     17  C   UNL     1      13.023   1.319  -2.516  0.00  0.00    +0.008 A 
ATOM     18  C   UNL     1      12.286   2.082  -1.637  0.00  0.00    +0.018 A 
ATOM     19  C   UNL     1      10.963   1.782  -1.453  0.00  0.00    +0.039 A 
ATOM     20  S   UNL     1      10.750   0.382  -2.541  0.00  0.00    -0.095 S 
ATOM     21  C   UNL     1      12.417   0.295  -3.171  0.00  0.00    +0.046 A 
ENDBRANCH   1  19
BRANCH   3  22
ATOM     22  N   UNL     1       6.717   2.899   0.873  0.00  0.00    -0.270 N 
ATOM     23  C   UNL     1       5.869   1.974   0.380  0.00  0.00    +0.218 C 
ATOM     24  O   UNL     1       6.263   1.160  -0.428  0.00  0.00    -0.275 OA
ATOM     25  H   UNL     1       6.402   3.550   1.520  0.00  0.00    +0.156 HD
BRANCH  23  26
ATOM     26  C   UNL     1       4.432   1.952   0.833  0.00  0.00    +0.096 C 
BRANCH  26  27
ATOM     27  C   UNL     1       3.692   0.815   0.127  0.00  0.00    +0.013 C 
BRANCH  27  28
ATOM     28  C   UNL     1       2.232   0.792   0.586  0.00  0.00    -0.011 C 
ATOM     29  C   UNL     1       1.453   1.995  -0.001  0.00  0.00    +0.003 C 
ATOM     30  C   UNL     1      -0.019   1.534   0.011  0.00  0.00    +0.000 C 
ATOM     31  C   UNL     1       0.002  -0.004   0.002  0.00  0.00    +0.000 C 
ATOM     32  C   UNL     1       1.486  -0.425  -0.014  0.00  0.00    +0.003 C 
ENDBRANCH  27  28
ENDBRANCH  26  27
ENDBRANCH  23  26
ENDBRANCH   3  22
TORSDOF 5
