REMARK  Name = ZINC08431527
REMARK  12 active torsions:
REMARK  status: ('A' for Active; 'I' for Inactive)
REMARK    1  A    between atoms: C_1  and  C_2
REMARK    2  A    between atoms: C_2  and  C_3
REMARK    3  A    between atoms: C_2  and  C_4
REMARK    4  A    between atoms: C_2  and  C_5
REMARK    5  A    between atoms: C_8  and  O_11
REMARK    6  A    between atoms: O_11  and  C_12
REMARK    7  A    between atoms: C_12  and  C_13
REMARK    8  A    between atoms: C_13  and  C_15
REMARK    9  A    between atoms: C_13  and  O_37
REMARK   10  A    between atoms: C_15  and  N_79
REMARK   11  A    between atoms: C_18  and  C_21
REMARK   12  A    between atoms: C_21  and  N_22
REMARK                            x       y       z     vdW  Elec       q    Type
REMARK                         _______ _______ _______ _____ _____    ______ ____
ROOT
ATOM      1  C   UNL     1       7.027   0.100   1.625  0.00  0.00    -0.078 C 
ATOM      2  C   UNL     1       8.409   0.717   1.404  0.00  0.00    -0.014 C 
ATOM      3  C   UNL     1       8.555   1.960   2.287  0.00  0.00    +0.003 C 
ATOM      4  C   UNL     1       7.434   2.949   1.952  0.00  0.00    -0.014 C 
ATOM      5  C   UNL     1       6.080   2.266   2.157  0.00  0.00    -0.078 C 
ATOM      6  N   UNL     1       5.994   1.093   1.262  0.00  0.00    +0.381 N 
ATOM      7  H   UNL     1       6.152   1.399   0.295  0.00  0.00    -0.082 HD
ENDROOT
BRANCH   6   8
ATOM      8  C   UNL     1       4.651   0.483   1.358  0.00  0.00    -0.045 C 
BRANCH   8   9
ATOM      9  C   UNL     1       3.669   1.332   0.549  0.00  0.00    +0.124 C 
BRANCH   9  10
ATOM     10  O   UNL     1       4.091   1.380  -0.815  0.00  0.00    -0.391 OA
ATOM     11  H   UNL     1       4.138   0.514  -1.243  0.00  0.00    +0.210 HD
ENDBRANCH   9  10
BRANCH   9  12
ATOM     12  C   UNL     1       2.272   0.713   0.629  0.00  0.00    +0.189 C 
BRANCH  12  13
ATOM     13  O   UNL     1       1.334   1.567  -0.027  0.00  0.00    -0.374 OA
BRANCH  13  17
ATOM     14  C   UNL     1      -1.476   3.613  -0.032  0.00  0.00    -0.005 C 
ATOM     15  C   UNL     1      -0.760   3.093  -1.280  0.00  0.00    +0.006 C 
ATOM     16  C   UNL     1      -0.745   1.564  -1.259  0.00  0.00    +0.032 C 
ATOM     17  C   UNL     1      -0.009   1.078  -0.009  0.00  0.00    +0.118 C 
ATOM     18  C   UNL     1      -0.725   1.598   1.239  0.00  0.00    +0.032 C 
ATOM     19  C   UNL     1      -0.739   3.127   1.218  0.00  0.00    +0.006 C 
BRANCH  14  21
ATOM     20  C   UNL     1      -2.227   5.629  -1.303  0.00  0.00    +0.011 C 
ATOM     21  C   UNL     1      -1.491   5.143  -0.053  0.00  0.00    -0.035 C 
ATOM     22  C   UNL     1      -2.207   5.663   1.196  0.00  0.00    +0.011 C 
ATOM     23  C   UNL     1      -0.053   5.667  -0.072  0.00  0.00    +0.011 C 
ENDBRANCH  14  21
ENDBRANCH  13  17
ENDBRANCH  12  13
ENDBRANCH   9  12
ENDBRANCH   8   9
ENDBRANCH   6   8
BRANCH   3  24
ATOM     24  C   UNL     1       9.912   2.617   2.025  0.00  0.00    +0.120 C 
BRANCH  24  25
ATOM     25  N   UNL     1      10.982   1.716   2.458  0.00  0.00    -0.234 N 
ATOM     26  C   UNL     1      11.433   1.805   3.724  0.00  0.00    +0.254 C 
ATOM     27  O   UNL     1      10.949   2.623   4.482  0.00  0.00    -0.270 OA
ATOM     28  C   UNL     1      12.503   0.914   4.196  0.00  0.00    +0.046 A 
ATOM     29  C   UNL     1      12.992   0.967   5.493  0.00  0.00    +0.014 A 
ATOM     30  C   UNL     1      14.008   0.106   5.892  0.00  0.00    +0.001 A 
ATOM     31  C   UNL     1      14.550  -0.807   5.033  0.00  0.00    +0.008 A 
ATOM     32  C   UNL     1      14.082  -0.893   3.711  0.00  0.00    -0.016 A 
ATOM     33  C   UNL     1      13.051  -0.025   3.294  0.00  0.00    +0.006 A 
ATOM     34  C   UNL     1      12.558  -0.088   1.971  0.00  0.00    +0.046 A 
ATOM     35  C   UNL     1      13.103  -1.014   1.093  0.00  0.00    +0.014 A 
ATOM     36  C   UNL     1      14.118  -1.864   1.515  0.00  0.00    +0.001 A 
ATOM     37  C   UNL     1      14.607  -1.817   2.790  0.00  0.00    +0.008 A 
ATOM     38  C   UNL     1      11.483   0.832   1.574  0.00  0.00    +0.254 C 
ATOM     39  O   UNL     1      11.044   0.796   0.440  0.00  0.00    -0.270 OA
ENDBRANCH  24  25
ENDBRANCH   3  24
TORSDOF 9
