REMARK  Name = ZINC10395253
REMARK  9 active torsions:
REMARK  status: ('A' for Active; 'I' for Inactive)
REMARK    1  A    between atoms: C_1  and  C_2
REMARK    2  A    between atoms: C_2  and  O_3
REMARK    3  A    between atoms: O_3  and  C_4
REMARK    4  A    between atoms: C_4  and  C_6
REMARK    5  A    between atoms: C_7  and  C_33
REMARK    6  A    between atoms: C_11  and  C_15
REMARK    7  A    between atoms: C_15  and  O_16
REMARK    8  A    between atoms: O_16  and  C_17
REMARK    9  A    between atoms: C_17  and  C_19
REMARK                            x       y       z     vdW  Elec       q    Type
REMARK                         _______ _______ _______ _____ _____    ______ ____
ROOT
ATOM      1  C   UNL     1       3.191   3.069   1.133  0.00  0.00    +0.102 A 
ATOM      2  C   UNL     1       3.257   1.708   1.145  0.00  0.00    -0.017 A 
ATOM      3  C   UNL     1       2.084   0.952   1.030  0.00  0.00    +0.051 A 
ATOM      4  C   UNL     1       1.921  -0.466   1.020  0.00  0.00    +0.128 A 
ATOM      5  N   UNL     1       0.706  -0.974   0.900  0.00  0.00    -0.214 NA
ATOM      6  C   UNL     1      -0.369  -0.215   0.788  0.00  0.00    +0.170 A 
ATOM      7  N   UNL     1      -0.285   1.102   0.791  0.00  0.00    -0.221 NA
ATOM      8  C   UNL     1       0.885   1.696   0.906  0.00  0.00    +0.115 A 
ATOM      9  S   UNL     1       1.442   3.380   0.955  0.00  0.00    -0.062 S 
ATOM     10  N   UNL     1       3.017  -1.296   1.134  0.00  0.00    -0.343 N 
ATOM     11  C   UNL     1       4.590   1.018   1.282  0.00  0.00    +0.046 C 
ATOM     12  H   UNL     1       2.915  -2.187   1.506  0.00  0.00    +0.144 HD
ATOM     13  H   UNL     1       3.890  -0.990   0.843  0.00  0.00    +0.144 HD
ENDROOT
BRANCH   1  14
ATOM     14  C   UNL     1       4.285   4.039   1.239  0.00  0.00    +0.346 C 
ATOM     15  O   UNL     1       5.439   3.654   1.254  0.00  0.00    -0.244 OA
BRANCH  14  16
ATOM     16  O   UNL     1       4.013   5.357   1.321  0.00  0.00    -0.461 OA
BRANCH  16  18
ATOM     17  C   UNL     1       4.643   7.702   1.505  0.00  0.00    +0.048 C 
ATOM     18  C   UNL     1       5.146   6.259   1.423  0.00  0.00    +0.229 C 
ENDBRANCH  16  18
ENDBRANCH  14  16
ENDBRANCH   1  14
BRANCH   6  19
ATOM     19  C   UNL     1      -1.721  -0.866   0.655  0.00  0.00    +0.308 C 
BRANCH  19  20
ATOM     20  O   UNL     1      -2.018  -1.082  -0.750  0.00  0.00    -0.453 OA
BRANCH  20  21
ATOM     21  C   UNL     1      -3.199  -1.661  -1.043  0.00  0.00    +0.341 C 
ATOM     22  O   UNL     1      -3.959  -1.976  -0.150  0.00  0.00    -0.245 OA
BRANCH  21  23
ATOM     23  C   UNL     1      -3.569  -1.911  -2.452  0.00  0.00    +0.073 A 
ATOM     24  C   UNL     1      -3.224  -3.129  -3.092  0.00  0.00    +0.015 A 
ATOM     25  C   UNL     1      -2.533  -4.141  -2.415  0.00  0.00    +0.011 A 
ATOM     26  C   UNL     1      -2.224  -5.297  -3.067  0.00  0.00    +0.001 A 
ATOM     27  C   UNL     1      -2.591  -5.487  -4.397  0.00  0.00    +0.002 A 
ATOM     28  C   UNL     1      -3.268  -4.527  -5.083  0.00  0.00    +0.028 A 
ATOM     29  C   UNL     1      -3.606  -3.319  -4.443  0.00  0.00    +0.072 A 
ATOM     30  N   UNL     1      -4.271  -2.361  -5.090  0.00  0.00    -0.251 NA
ATOM     31  C   UNL     1      -4.597  -1.222  -4.518  0.00  0.00    +0.046 A 
ATOM     32  C   UNL     1      -4.260  -0.959  -3.191  0.00  0.00    -0.012 A 
ATOM     33  C   UNL     1      -4.755   0.416  -2.800  0.00  0.00    +0.038 C 
ATOM     34  C   UNL     1      -5.037   1.138  -4.134  0.00  0.00    +0.011 C 
ATOM     35  C   UNL     1      -5.343  -0.033  -5.091  0.00  0.00    +0.056 C 
ENDBRANCH  21  23
ENDBRANCH  20  21
ENDBRANCH  19  20
ENDBRANCH   6  19
TORSDOF 7
