REMARK  Name = ZINC20897904
REMARK  4 active torsions:
REMARK  status: ('A' for Active; 'I' for Inactive)
REMARK    1  A    between atoms: C_5  and  N_7
REMARK    2  A    between atoms: C_13  and  C_15
REMARK    3  A    between atoms: C_17  and  N_26
REMARK    4  A    between atoms: C_20  and  N_21
REMARK                            x       y       z     vdW  Elec       q    Type
REMARK                         _______ _______ _______ _____ _____    ______ ____
ROOT
ATOM      1  N   UNL     1      -2.303   7.799  -1.706  0.00  0.00    -0.325 N 
ATOM      2  C   UNL     1      -3.522   7.000  -1.883  0.00  0.00    +0.124 C 
ATOM      3  C   UNL     1      -3.679   6.044  -0.695  0.00  0.00    +0.127 C 
ATOM      4  N   UNL     1      -2.439   5.265  -0.556  0.00  0.00    -0.294 N 
ATOM      5  C   UNL     1      -1.162   5.992  -0.504  0.00  0.00    +0.127 C 
ATOM      6  C   UNL     1      -1.104   6.950  -1.705  0.00  0.00    +0.124 C 
ATOM      7  C   UNL     1      -2.473   3.920  -0.472  0.00  0.00    +0.249 C 
ATOM      8  O   UNL     1      -3.531   3.330  -0.581  0.00  0.00    -0.270 OA
ENDROOT
BRANCH   1  13
ATOM      9  C   UNL     1      -3.110  10.742  -3.756  0.00  0.00    +0.002 A 
ATOM     10  C   UNL     1      -2.029  10.767  -4.618  0.00  0.00    +0.003 A 
ATOM     11  C   UNL     1      -1.037   9.808  -4.516  0.00  0.00    +0.040 A 
ATOM     12  C   UNL     1      -1.124   8.822  -3.551  0.00  0.00    +0.144 A 
ATOM     13  C   UNL     1      -2.211   8.795  -2.683  0.00  0.00    +0.065 A 
ATOM     14  C   UNL     1      -3.206   9.757  -2.793  0.00  0.00    +0.026 A 
ATOM     15  F   UNL     1      -0.156   7.885  -3.452  0.00  0.00    -0.204 F 
ENDBRANCH   1  13
BRANCH   7  16
ATOM     16  C   UNL     1      -1.228   3.164  -0.248  0.00  0.00    +0.060 A 
ATOM     17  C   UNL     1      -0.148   3.313  -1.123  0.00  0.00    +0.047 A 
ATOM     18  C   UNL     1       1.013   2.603  -0.909  0.00  0.00    +0.127 A 
ATOM     19  C   UNL     1       1.117   1.740   0.171  0.00  0.00    +0.034 A 
ATOM     20  C   UNL     1       0.060   1.582   1.043  0.00  0.00    +0.026 A 
ATOM     21  C   UNL     1      -1.121   2.285   0.841  0.00  0.00    +0.042 A 
BRANCH  21  22
ATOM     22  N   UNL     1      -2.188   2.124   1.715  0.00  0.00    -0.329 N 
ATOM     23  C   UNL     1      -1.834   1.201   2.823  0.00  0.00    +0.105 C 
ATOM     24  C   UNL     1      -2.873   1.547   3.919  0.00  0.00    +0.020 C 
ATOM     25  C   UNL     1      -3.016   3.081   3.787  0.00  0.00    +0.020 C 
ATOM     26  C   UNL     1      -2.545   3.407   2.358  0.00  0.00    +0.105 C 
ENDBRANCH  21  22
BRANCH  18  27
ATOM     27  N   UNL     1       2.155   2.762  -1.837  0.00  0.00    +0.056 N 
ATOM     28  O   UNL     1       3.183   2.136  -1.650  0.00  0.00    -0.126 OA
ATOM     29  O   UNL     1       2.067   3.520  -2.786  0.00  0.00    -0.126 OA
ENDBRANCH  18  27
ENDBRANCH   7  16
TORSDOF 4
