REMARK  Name = ZINC39688752
REMARK  11 active torsions:
REMARK  status: ('A' for Active; 'I' for Inactive)
REMARK    1  A    between atoms: C_1  and  C_2
REMARK    2  A    between atoms: C_2  and  C_4
REMARK    3  A    between atoms: C_2  and  N_12
REMARK    4  A    between atoms: C_4  and  C_5
REMARK    5  A    between atoms: C_13  and  C_15
REMARK    6  A    between atoms: C_26  and  C_28
REMARK    7  A    between atoms: C_28  and  C_30
REMARK    8  A    between atoms: C_28  and  O_33
REMARK    9  A    between atoms: C_30  and  C_31
REMARK   10  A    between atoms: C_30  and  C_32
REMARK   11  A    between atoms: O_33  and  C_34
REMARK                            x       y       z     vdW  Elec       q    Type
REMARK                         _______ _______ _______ _____ _____    ______ ____
ROOT
ATOM      1  C   UNL     1      -3.781  -0.889  -1.001  0.00  0.00    +0.100 C 
ATOM      2  C   UNL     1      -3.681  -2.375  -0.590  0.00  0.00    +0.121 C 
ATOM      3  N   UNL     1      -4.648  -3.073  -1.469  0.00  0.00    -0.297 N 
ATOM      4  C   UNL     1      -4.499  -2.406  -2.784  0.00  0.00    +0.115 C 
ATOM      5  C   UNL     1      -4.318  -0.914  -2.442  0.00  0.00    -0.004 C 
ATOM      6  C   UNL     1      -5.658  -0.188  -2.519  0.00  0.00    -0.010 C 
ATOM      7  C   UNL     1      -6.144  -0.177  -3.971  0.00  0.00    -0.082 C 
ATOM      8  N   UNL     1      -5.150   0.497  -4.816  0.00  0.00    +0.379 N 
ATOM      9  C   UNL     1      -3.892  -0.258  -4.809  0.00  0.00    -0.082 C 
ATOM     10  C   UNL     1      -3.311  -0.273  -3.392  0.00  0.00    -0.010 C 
ATOM     11  C   UNL     1      -5.476  -4.086  -1.146  0.00  0.00    +0.257 C 
ATOM     12  O   UNL     1      -6.154  -4.612  -2.003  0.00  0.00    -0.272 OA
ATOM     13  H   UNL     1      -5.500   0.558  -5.761  0.00  0.00    -0.086 HD
ATOM     14  H   UNL     1      -4.985   1.427  -4.461  0.00  0.00    -0.086 HD
ENDROOT
BRANCH   1  16
ATOM     15  N   UNL     1      -2.318   1.100  -0.855  0.00  0.00    -0.312 N 
ATOM     16  C   UNL     1      -2.422  -0.240  -0.958  0.00  0.00    +0.218 C 
ATOM     17  O   UNL     1      -1.422  -0.923  -1.016  0.00  0.00    -0.275 OA
ATOM     18  H   UNL     1      -3.119   1.646  -0.809  0.00  0.00    +0.149 HD
BRANCH  15  20
ATOM     19  C   UNL     1      -0.490   1.949  -2.241  0.00  0.00    +0.028 C 
ATOM     20  C   UNL     1      -0.997   1.731  -0.814  0.00  0.00    +0.074 C 
BRANCH  20  21
ATOM     21  C   UNL     1      -1.098   3.080  -0.098  0.00  0.00    +0.057 C 
BRANCH  21  22
ATOM     22  C   UNL     1      -1.479   2.856   1.343  0.00  0.00    -0.045 A 
ATOM     23  C   UNL     1      -2.812   2.817   1.708  0.00  0.00    +0.006 A 
ATOM     24  C   UNL     1      -3.162   2.611   3.029  0.00  0.00    +0.038 A 
ATOM     25  C   UNL     1      -2.177   2.444   3.987  0.00  0.00    +0.123 A 
ATOM     26  C   UNL     1      -0.842   2.483   3.621  0.00  0.00    +0.038 A 
ATOM     27  C   UNL     1      -0.494   2.683   2.299  0.00  0.00    +0.006 A 
ATOM     28  F   UNL     1      -2.518   2.243   5.279  0.00  0.00    -0.205 F 
ENDBRANCH  21  22
ENDBRANCH  20  21
ENDBRANCH  15  20
ENDBRANCH   1  16
BRANCH  11  29
ATOM     29  C   UNL     1      -5.560  -4.566   0.281  0.00  0.00    +0.261 C 
BRANCH  29  30
ATOM     30  C   UNL     1      -4.495  -5.637   0.522  0.00  0.00    +0.033 C 
ATOM     31  C   UNL     1      -3.119  -5.082   0.150  0.00  0.00    +0.011 C 
ATOM     32  C   UNL     1      -4.501  -6.038   1.998  0.00  0.00    +0.011 C 
ENDBRANCH  29  30
BRANCH  29  33
ATOM     33  O   UNL     1      -6.855  -5.118   0.522  0.00  0.00    -0.479 OA
BRANCH  33  34
ATOM     34  C   UNL     1      -7.374  -4.953   1.767  0.00  0.00    +0.122 A 
ATOM     35  C   UNL     1      -6.694  -4.194   2.708  0.00  0.00    +0.045 A 
ATOM     36  C   UNL     1      -7.224  -4.028   3.973  0.00  0.00    +0.004 A 
ATOM     37  C   UNL     1      -8.430  -4.617   4.302  0.00  0.00    +0.000 A 
ATOM     38  C   UNL     1      -9.110  -5.375   3.366  0.00  0.00    +0.004 A 
ATOM     39  C   UNL     1      -8.587  -5.539   2.098  0.00  0.00    +0.045 A 
ENDBRANCH  33  34
ENDBRANCH  29  33
ENDBRANCH  11  29
TORSDOF 8
