REMARK  Name = ZINC01925317
REMARK  13 active torsions:
REMARK  status: ('A' for Active; 'I' for Inactive)
REMARK    1  A    between atoms: C_1  and  C_2
REMARK    2  A    between atoms: C_2  and  C_3
REMARK    3  A    between atoms: C_2  and  C_4
REMARK    4  A    between atoms: C_2  and  C_5
REMARK    5  A    between atoms: C_8  and  C_11
REMARK    6  A    between atoms: C_12  and  O_23
REMARK    7  A    between atoms: O_23  and  C_24
REMARK    8  A    between atoms: C_24  and  C_25
REMARK    9  A    between atoms: N_27  and  C_28
REMARK   10  A    between atoms: C_31  and  O_36
REMARK   11  A    between atoms: C_32  and  O_34
REMARK   12  A    between atoms: O_34  and  C_35
REMARK   13  A    between atoms: O_36  and  C_37
REMARK                            x       y       z     vdW  Elec       q    Type
REMARK                         _______ _______ _______ _____ _____    ______ ____
ROOT
ATOM      1  C   UNL     1      -7.845   3.602  -1.548  0.00  0.00    +0.181 A 
ATOM      2  C   UNL     1      -7.207   3.596  -0.344  0.00  0.00    +0.211 A 
ATOM      3  C   UNL     1      -7.925   3.949   0.827  0.00  0.00    +0.235 A 
ATOM      4  O   UNL     1      -7.389   3.950   1.923  0.00  0.00    -0.283 OA
ATOM      5  C   UNL     1      -9.343   4.320   0.666  0.00  0.00    +0.069 A 
ATOM      6  C   UNL     1     -10.125   4.685   1.762  0.00  0.00    +0.035 A 
ATOM      7  C   UNL     1     -11.449   5.020   1.571  0.00  0.00    +0.042 A 
ATOM      8  C   UNL     1     -12.001   4.993   0.298  0.00  0.00    +0.023 A 
ATOM      9  C   UNL     1     -11.238   4.634  -0.792  0.00  0.00    +0.048 A 
ATOM     10  C   UNL     1      -9.901   4.293  -0.622  0.00  0.00    +0.140 A 
ATOM     11  O   UNL     1      -9.139   3.938  -1.677  0.00  0.00    -0.451 OA
ATOM     12 CL   UNL     1     -12.429   5.476   2.929  0.00  0.00    -0.084 Cl
ENDROOT
BRANCH   1  16
ATOM     13  C   UNL     1      -5.660   2.522  -5.024  0.00  0.00    -0.042 A 
ATOM     14  C   UNL     1      -5.595   1.725  -3.895  0.00  0.00    +0.005 A 
ATOM     15  C   UNL     1      -6.302   2.070  -2.762  0.00  0.00    +0.012 A 
ATOM     16  C   UNL     1      -7.085   3.227  -2.757  0.00  0.00    +0.021 A 
ATOM     17  C   UNL     1      -7.151   4.023  -3.903  0.00  0.00    +0.012 A 
ATOM     18  C   UNL     1      -6.434   3.669  -5.027  0.00  0.00    +0.005 A 
BRANCH  13  20
ATOM     19  C   UNL     1      -5.347   0.764  -6.745  0.00  0.00    +0.015 C 
ATOM     20  C   UNL     1      -4.884   2.139  -6.258  0.00  0.00    -0.013 C 
ATOM     21  C   UNL     1      -5.125   3.177  -7.355  0.00  0.00    +0.015 C 
ATOM     22  C   UNL     1      -3.391   2.085  -5.926  0.00  0.00    +0.015 C 
ENDBRANCH  13  20
ENDBRANCH   1  16
BRANCH   2  23
ATOM     23  O   UNL     1      -5.893   3.248  -0.266  0.00  0.00    -0.476 OA
BRANCH  23  24
ATOM     24  C   UNL     1      -4.939   4.312  -0.282  0.00  0.00    +0.325 C 
BRANCH  24  25
ATOM     25  C   UNL     1      -3.548   3.740  -0.187  0.00  0.00    +0.255 C 
ATOM     26  O   UNL     1      -3.390   2.539  -0.113  0.00  0.00    -0.272 OA
ATOM     27  N   UNL     1      -2.480   4.562  -0.185  0.00  0.00    -0.283 N 
ATOM     28  H   UNL     1      -2.608   5.523  -0.171  0.00  0.00    +0.155 HD
BRANCH  27  29
ATOM     29  C   UNL     1      -1.185   4.028  -0.204  0.00  0.00    +0.037 A 
ATOM     30  C   UNL     1      -0.932   2.843  -0.882  0.00  0.00    +0.027 A 
ATOM     31  C   UNL     1       0.343   2.312  -0.896  0.00  0.00    +0.051 A 
ATOM     32  C   UNL     1       1.375   2.966  -0.243  0.00  0.00    +0.162 A 
ATOM     33  C   UNL     1       1.126   4.157   0.433  0.00  0.00    +0.163 A 
ATOM     34  C   UNL     1      -0.153   4.686   0.452  0.00  0.00    +0.072 A 
BRANCH  33  35
ATOM     35  O   UNL     1       2.138   4.799   1.075  0.00  0.00    -0.491 OA
ATOM     36  C   UNL     1       1.810   6.016   1.748  0.00  0.00    +0.277 C 
ENDBRANCH  33  35
BRANCH  32  37
ATOM     37  O   UNL     1       2.632   2.445  -0.263  0.00  0.00    -0.491 OA
ATOM     38  C   UNL     1       2.815   1.220  -0.977  0.00  0.00    +0.277 C 
ENDBRANCH  32  37
ENDBRANCH  27  29
ENDBRANCH  24  25
ENDBRANCH  23  24
ENDBRANCH   2  23
TORSDOF 8
