REMARK  Name = ZINC04035337
REMARK  10 active torsions:
REMARK  status: ('A' for Active; 'I' for Inactive)
REMARK    1  A    between atoms: C_1  and  C_2
REMARK    2  A    between atoms: C_5  and  C_33
REMARK    3  A    between atoms: C_6  and  C_8
REMARK    4  A    between atoms: C_8  and  N_9
REMARK    5  A    between atoms: N_18  and  C_21
REMARK    6  A    between atoms: C_21  and  C_22
REMARK    7  A    between atoms: C_22  and  C_23
REMARK    8  A    between atoms: C_23  and  C_24
REMARK    9  A    between atoms: N_26  and  C_27
REMARK   10  A    between atoms: C_27  and  C_28
REMARK                            x       y       z     vdW  Elec       q    Type
REMARK                         _______ _______ _______ _____ _____    ______ ____
ROOT
ATOM      1  N   UNL     1       1.120  -3.752   2.669  0.00  0.00    -0.289 N 
ATOM      2  C   UNL     1       1.607  -4.864   1.997  0.00  0.00    +0.059 A 
ATOM      3  C   UNL     1       0.878  -5.484   0.994  0.00  0.00    +0.027 A 
ATOM      4  C   UNL     1       1.399  -6.589   0.351  0.00  0.00    +0.002 A 
ATOM      5  C   UNL     1       2.647  -7.085   0.698  0.00  0.00    +0.001 A 
ATOM      6  C   UNL     1       3.387  -6.481   1.692  0.00  0.00    +0.015 A 
ATOM      7  C   UNL     1       2.872  -5.366   2.349  0.00  0.00    +0.063 A 
ATOM      8  C   UNL     1       3.621  -4.683   3.419  0.00  0.00    +0.264 A 
ATOM      9  O   UNL     1       4.719  -5.076   3.761  0.00  0.00    -0.267 OA
ATOM     10  N   UNL     1       3.055  -3.607   4.010  0.00  0.00    -0.260 N 
ATOM     11  C   UNL     1       1.845  -3.163   3.634  0.00  0.00    +0.333 A 
ATOM     12  O   UNL     1       1.385  -2.187   4.195  0.00  0.00    -0.246 OA
ENDROOT
BRANCH   1  13
ATOM     13  C   UNL     1      -0.196  -3.212   2.318  0.00  0.00    +0.162 C 
BRANCH  13  19
ATOM     14  C   UNL     1       2.703  -0.666  -0.870  0.00  0.00    +0.044 C 
ATOM     15  C   UNL     1       1.333  -1.035  -0.361  0.00  0.00    -0.050 A 
ATOM     16  C   UNL     1       0.207  -0.494  -0.953  0.00  0.00    +0.003 A 
ATOM     17  C   UNL     1      -1.049  -0.832  -0.486  0.00  0.00    +0.004 A 
ATOM     18  C   UNL     1      -1.179  -1.712   0.572  0.00  0.00    -0.046 A 
ATOM     19  C   UNL     1      -0.054  -2.253   1.163  0.00  0.00    -0.024 A 
ATOM     20  C   UNL     1       1.203  -1.918   0.694  0.00  0.00    +0.009 A 
ATOM     21  C   UNL     1      -2.549  -2.080   1.082  0.00  0.00    +0.044 C 
ENDBRANCH  13  19
ENDBRANCH   1  13
BRANCH  10  22
ATOM     22  C   UNL     1       3.778  -2.910   5.076  0.00  0.00    +0.130 C 
BRANCH  22  23
ATOM     23  C   UNL     1       4.644  -1.806   4.468  0.00  0.00    +0.031 C 
BRANCH  23  24
ATOM     24  C   UNL     1       5.399  -1.078   5.582  0.00  0.00    +0.097 C 
BRANCH  24  25
ATOM     25  C   UNL     1       6.253   0.010   4.983  0.00  0.00    +0.213 C 
ATOM     26  O   UNL     1       6.257   0.185   3.783  0.00  0.00    -0.276 OA
ATOM     27  N   UNL     1       7.012   0.787   5.781  0.00  0.00    -0.308 N 
ATOM     28  H   UNL     1       7.008   0.646   6.740  0.00  0.00    +0.149 HD
BRANCH  27  29
ATOM     29  C   UNL     1       7.842   1.845   5.198  0.00  0.00    +0.178 C 
BRANCH  29  30
ATOM     30  C   UNL     1       8.585   2.562   6.296  0.00  0.00    +0.122 A 
ATOM     31  C   UNL     1       9.803   2.235   6.765  0.00  0.00    +0.046 A 
ATOM     32  C   UNL     1      10.113   3.166   7.782  0.00  0.00    +0.041 A 
ATOM     33  C   UNL     1       9.067   4.006   7.874  0.00  0.00    +0.195 A 
ATOM     34  O   UNL     1       8.147   3.639   6.967  0.00  0.00    -0.466 OA
ENDBRANCH  29  30
ENDBRANCH  27  29
ENDBRANCH  24  25
ENDBRANCH  23  24
ENDBRANCH  22  23
ENDBRANCH  10  22
TORSDOF 8
