REMARK  Name = ZINC02132387
REMARK  11 active torsions:
REMARK  status: ('A' for Active; 'I' for Inactive)
REMARK    1  A    between atoms: C_1  and  O_2
REMARK    2  A    between atoms: O_2  and  C_3
REMARK    3  A    between atoms: C_3  and  C_5
REMARK    4  A    between atoms: C_5  and  C_7
REMARK    5  A    between atoms: C_5  and  N_55
REMARK    6  A    between atoms: C_7  and  C_8
REMARK    7  A    between atoms: C_14  and  C_15
REMARK    8  A    between atoms: C_14  and  N_55
REMARK    9  A    between atoms: C_16  and  O_35
REMARK   10  A    between atoms: C_22  and  C_33
REMARK   11  A    between atoms: C_23  and  C_26
REMARK                            x       y       z     vdW  Elec       q    Type
REMARK                         _______ _______ _______ _____ _____    ______ ____
ROOT
ATOM      1  C   UNL     1      -0.630   5.513  -1.291  0.00  0.00    +0.020 A 
ATOM      2  C   UNL     1       0.663   5.994  -1.172  0.00  0.00    +0.122 A 
ATOM      3  C   UNL     1       0.909   7.365  -1.128  0.00  0.00    +0.046 A 
ATOM      4  C   UNL     1      -0.125   8.253  -1.202  0.00  0.00    +0.019 A 
ATOM      5  C   UNL     1      -1.435   7.784  -1.323  0.00  0.00    +0.065 A 
ATOM      6  C   UNL     1      -1.694   6.402  -1.373  0.00  0.00    +0.144 A 
ATOM      7  O   UNL     1      -2.956   5.944  -1.484  0.00  0.00    -0.447 OA
ATOM      8  C   UNL     1      -4.029   6.748  -1.563  0.00  0.00    +0.227 A 
ATOM      9  C   UNL     1      -3.919   8.121  -1.531  0.00  0.00    +0.079 A 
ATOM     10  C   UNL     1      -2.571   8.718  -1.405  0.00  0.00    +0.201 A 
ATOM     11  O   UNL     1      -2.409   9.924  -1.371  0.00  0.00    -0.286 OA
ENDROOT
BRANCH   9  12
ATOM     12  C   UNL     1      -5.121   8.978  -1.620  0.00  0.00    -0.010 A 
ATOM     13  C   UNL     1      -5.493   9.778  -0.538  0.00  0.00    +0.011 A 
ATOM     14  C   UNL     1      -6.612  10.578  -0.629  0.00  0.00    +0.039 A 
ATOM     15  C   UNL     1      -7.373  10.582  -1.788  0.00  0.00    +0.123 A 
ATOM     16  C   UNL     1      -7.011   9.786  -2.863  0.00  0.00    +0.039 A 
ATOM     17  C   UNL     1      -5.891   8.985  -2.785  0.00  0.00    +0.011 A 
ATOM     18  F   UNL     1      -8.472  11.364  -1.869  0.00  0.00    -0.205 F 
ENDBRANCH   9  12
BRANCH   8  19
ATOM     19  C   UNL     1      -5.367   6.141  -1.688  0.00  0.00    +0.422 C 
ATOM     20  O   UNL     1      -6.351   6.850  -1.761  0.00  0.00    -0.237 OA
ATOM     21  O   UNL     1      -5.499   4.800  -1.722  0.00  0.00    -0.237 OA
ENDBRANCH   8  19
BRANCH   2  22
ATOM     22  O   UNL     1       1.700   5.122  -1.097  0.00  0.00    -0.506 OA
ATOM     23  H   UNL     1       2.077   4.883  -1.955  0.00  0.00    +0.292 HD
ENDBRANCH   2  22
BRANCH   1  24
ATOM     24  C   UNL     1      -0.882   4.027  -1.338  0.00  0.00    -0.038 C 
BRANCH  24  25
ATOM     25  N   UNL     1      -1.082   3.528   0.035  0.00  0.00    +0.391 N 
ATOM     26  H   UNL     1      -0.242   3.721   0.592  0.00  0.00    -0.084 HD
ATOM     27  H   UNL     1      -1.888   4.005   0.455  0.00  0.00    -0.084 HD
BRANCH  25  28
ATOM     28  C   UNL     1      -1.331   2.074   0.020  0.00  0.00    +0.044 C 
BRANCH  28  29
ATOM     29  C   UNL     1      -0.016   1.338   0.009  0.00  0.00    +0.293 C 
ATOM     30  O   UNL     1       1.022   1.956   0.003  0.00  0.00    -0.253 OA
BRANCH  29  32
ATOM     31  C   UNL     1       1.305  -0.646  -0.014  0.00  0.00    +0.280 C 
ATOM     32  O   UNL     1       0.002  -0.004   0.002  0.00  0.00    -0.469 OA
ENDBRANCH  29  32
ENDBRANCH  28  29
BRANCH  28  33
ATOM     33  C   UNL     1      -2.123   1.687   1.271  0.00  0.00    +0.030 C 
BRANCH  33  34
ATOM     34  C   UNL     1      -3.486   2.326   1.220  0.00  0.00    -0.048 A 
ATOM     35  C   UNL     1      -3.684   3.578   1.771  0.00  0.00    +0.003 A 
ATOM     36  C   UNL     1      -4.934   4.166   1.721  0.00  0.00    +0.000 A 
ATOM     37  C   UNL     1      -5.989   3.498   1.128  0.00  0.00    +0.000 A 
ATOM     38  C   UNL     1      -5.793   2.243   0.582  0.00  0.00    +0.000 A 
ATOM     39  C   UNL     1      -4.542   1.657   0.628  0.00  0.00    +0.003 A 
ENDBRANCH  33  34
ENDBRANCH  28  33
ENDBRANCH  25  28
ENDBRANCH  24  25
ENDBRANCH   1  24
TORSDOF 10
