REMARK  Name = ZINC21137361
REMARK  15 active torsions:
REMARK  status: ('A' for Active; 'I' for Inactive)
REMARK    1  A    between atoms: C_1  and  C_2
REMARK    2  A    between atoms: C_6  and  N_33
REMARK    3  A    between atoms: C_7  and  N_8
REMARK    4  A    between atoms: C_9  and  C_11
REMARK    5  A    between atoms: C_11  and  S_12
REMARK    6  A    between atoms: S_12  and  C_13
REMARK    7  A    between atoms: N_23  and  C_24
REMARK    8  A    between atoms: C_24  and  C_25
REMARK    9  A    between atoms: C_25  and  N_26
REMARK   10  A    between atoms: N_26  and  C_27
REMARK   11  A    between atoms: N_26  and  C_30
REMARK   12  A    between atoms: C_27  and  C_28
REMARK   13  A    between atoms: C_27  and  C_29
REMARK   14  A    between atoms: C_30  and  C_31
REMARK   15  A    between atoms: C_30  and  C_32
REMARK                            x       y       z     vdW  Elec       q    Type
REMARK                         _______ _______ _______ _____ _____    ______ ____
ROOT
ATOM      1  C   UNL     1      -0.814  -1.701   1.431  0.00  0.00    +0.173 A 
ATOM      2  N   UNL     1      -0.522  -1.065   0.323  0.00  0.00    -0.223 NA
ATOM      3  C   UNL     1       0.750  -0.756  -0.001  0.00  0.00    +0.079 A 
ATOM      4  C   UNL     1       1.061  -0.078  -1.183  0.00  0.00    +0.028 A 
ATOM      5  C   UNL     1       2.364   0.215  -1.472  0.00  0.00    +0.002 A 
ATOM      6  C   UNL     1       3.387  -0.151  -0.607  0.00  0.00    +0.001 A 
ATOM      7  C   UNL     1       3.114  -0.815   0.557  0.00  0.00    +0.015 A 
ATOM      8  C   UNL     1       1.794  -1.127   0.876  0.00  0.00    +0.065 A 
ATOM      9  C   UNL     1       1.441  -1.839   2.112  0.00  0.00    +0.262 A 
ATOM     10  O   UNL     1       2.296  -2.185   2.908  0.00  0.00    -0.267 OA
ATOM     11  N   UNL     1       0.131  -2.096   2.334  0.00  0.00    -0.289 N 
ENDROOT
BRANCH   1  12
ATOM     12  S   UNL     1      -2.505  -2.062   1.772  0.00  0.00    -0.078 S 
BRANCH  12  13
ATOM     13  C   UNL     1      -3.282  -1.341   0.305  0.00  0.00    +0.173 C 
BRANCH  13  15
ATOM     14  N   UNL     1      -5.565  -1.077  -0.610  0.00  0.00    -0.283 N 
ATOM     15  C   UNL     1      -4.774  -1.536   0.380  0.00  0.00    +0.228 C 
ATOM     16  O   UNL     1      -5.264  -2.107   1.331  0.00  0.00    -0.275 OA
ATOM     17  H   UNL     1      -5.117  -0.601  -1.495  0.00  0.00    +0.155 HD
BRANCH  14  24
ATOM     18  C   UNL     1      -6.653  -3.685  -0.277  0.00  0.00    +0.046 C 
ATOM     19  C   UNL     1      -7.527  -2.460  -0.349  0.00  0.00    -0.027 A 
ATOM     20  C   UNL     1      -8.900  -2.584  -0.253  0.00  0.00    +0.005 A 
ATOM     21  C   UNL     1      -9.703  -1.460  -0.320  0.00  0.00    +0.003 A 
ATOM     22  C   UNL     1      -9.136  -0.210  -0.483  0.00  0.00    +0.034 A 
ATOM     23  C   UNL     1      -7.764  -0.079  -0.574  0.00  0.00    +0.148 A 
ATOM     24  C   UNL     1      -6.955  -1.206  -0.513  0.00  0.00    +0.067 A 
BRANCH  23  25
ATOM     25  N   UNL     1      -7.157   1.261  -0.743  0.00  0.00    +0.058 N 
ATOM     26  O   UNL     1      -7.859   2.256  -0.705  0.00  0.00    -0.126 OA
ATOM     27  O   UNL     1      -5.957   1.368  -0.919  0.00  0.00    -0.126 OA
ENDBRANCH  23  25
ENDBRANCH  14  24
ENDBRANCH  13  15
ENDBRANCH  12  13
ENDBRANCH   1  12
BRANCH  11  28
ATOM     28  C   UNL     1      -0.276  -2.803   3.550  0.00  0.00    +0.109 C 
BRANCH  28  29
ATOM     29  C   UNL     1      -0.549  -1.789   4.663  0.00  0.00    -0.056 C 
BRANCH  29  30
ATOM     30  N   UNL     1      -0.957  -2.498   5.883  0.00  0.00    +0.384 N 
ATOM     31  H   UNL     1      -0.204  -3.272   6.092  0.00  0.00    -0.081 HD
BRANCH  30  32
ATOM     32  C   UNL     1      -0.998  -1.585   7.033  0.00  0.00    -0.074 C 
ATOM     33  C   UNL     1       0.399  -1.473   7.646  0.00  0.00    -0.014 C 
ATOM     34  C   UNL     1      -1.465  -0.203   6.571  0.00  0.00    -0.014 C 
ENDBRANCH  30  32
BRANCH  30  35
ATOM     35  C   UNL     1      -2.252  -3.167   5.695  0.00  0.00    -0.074 C 
ATOM     36  C   UNL     1      -2.497  -4.138   6.851  0.00  0.00    -0.014 C 
ATOM     37  C   UNL     1      -3.367  -2.120   5.663  0.00  0.00    -0.014 C 
ENDBRANCH  30  35
ENDBRANCH  29  30
ENDBRANCH  28  29
ENDBRANCH  11  28
TORSDOF 10
