REMARK  Name = ZINC23505990
REMARK  5 active torsions:
REMARK  status: ('A' for Active; 'I' for Inactive)
REMARK    1  A    between atoms: C_4  and  C_7
REMARK    2  A    between atoms: C_10  and  C_13
REMARK    3  A    between atoms: C_13  and  N_14
REMARK    4  A    between atoms: C_20  and  C_22
REMARK    5  A    between atoms: C_22  and  C_23
REMARK                            x       y       z     vdW  Elec       q    Type
REMARK                         _______ _______ _______ _____ _____    ______ ____
ROOT
ATOM      1  N   UNL     1      -0.099  10.262   1.855  0.00  0.00    +0.391 N 
ATOM      2  C   UNL     1       1.128  10.014   2.630  0.00  0.00    -0.058 C 
ATOM      3  C   UNL     1       0.957  10.617   4.025  0.00  0.00    +0.085 C 
ATOM      4  N   UNL     1       0.500  12.000   3.920  0.00  0.00    -0.318 N 
ATOM      5  C   UNL     1      -0.055  12.500   2.811  0.00  0.00    +0.200 C 
ATOM      6  O   UNL     1      -0.435  13.652   2.820  0.00  0.00    -0.278 OA
ATOM      7  C   UNL     1      -0.227  11.694   1.554  0.00  0.00    +0.028 C 
ATOM      8  H   UNL     1       0.606  12.681   4.778  0.00  0.00    +0.149 HD
ATOM      9  H   UNL     1      -0.964   9.955   2.460  0.00  0.00    -0.080 HD
ENDROOT
BRANCH   1  10
ATOM     10  C   UNL     1      -0.114   9.463   0.623  0.00  0.00    -0.042 C 
BRANCH  10  14
ATOM     11  C   UNL     1      -1.076   5.406   1.569  0.00  0.00    -0.018 A 
ATOM     12  C   UNL     1       0.252   5.826   1.564  0.00  0.00    +0.009 A 
ATOM     13  C   UNL     1       0.558   7.136   1.252  0.00  0.00    +0.002 A 
ATOM     14  C   UNL     1      -0.453   8.033   0.956  0.00  0.00    -0.064 A 
ATOM     15  C   UNL     1      -1.774   7.622   0.965  0.00  0.00    +0.002 A 
ATOM     16  C   UNL     1      -2.090   6.313   1.270  0.00  0.00    +0.009 A 
BRANCH  11  20
ATOM     17  C   UNL     1      -2.034   1.371   2.511  0.00  0.00    +0.000 A 
ATOM     18  C   UNL     1      -3.044   2.267   2.209  0.00  0.00    +0.001 A 
ATOM     19  C   UNL     1      -2.739   3.579   1.908  0.00  0.00    +0.008 A 
ATOM     20  C   UNL     1      -1.410   3.998   1.898  0.00  0.00    -0.018 A 
ATOM     21  C   UNL     1      -0.396   3.090   2.197  0.00  0.00    +0.008 A 
ATOM     22  C   UNL     1      -0.713   1.782   2.502  0.00  0.00    +0.001 A 
ENDBRANCH  11  20
ENDBRANCH  10  14
ENDBRANCH   1  10
BRANCH   7  23
ATOM     23  C   UNL     1      -1.611  11.967   0.962  0.00  0.00    +0.090 C 
BRANCH  23  24
ATOM     24  C   UNL     1      -2.671  11.560   1.954  0.00  0.00    +0.215 C 
ATOM     25  O   UNL     1      -2.351  11.072   3.017  0.00  0.00    -0.276 OA
ATOM     26  N   UNL     1      -3.974  11.738   1.659  0.00  0.00    -0.297 N 
ATOM     27  C   UNL     1      -5.022  11.348   2.613  0.00  0.00    +0.114 C 
ATOM     28  C   UNL     1      -5.776  12.601   3.075  0.00  0.00    +0.076 C 
ATOM     29  C   UNL     1      -6.085  13.454   1.870  0.00  0.00    +0.069 A 
ATOM     30  C   UNL     1      -5.466  13.340   0.668  0.00  0.00    +0.010 A 
ATOM     31  C   UNL     1      -6.009  14.291  -0.192  0.00  0.00    +0.110 A 
ATOM     32  N   UNL     1      -6.926  14.956   0.467  0.00  0.00    -0.284 N 
ATOM     33  N   UNL     1      -6.992  14.441   1.771  0.00  0.00    -0.179 NA
ATOM     34  H   UNL     1      -7.485  15.762  -0.030  0.00  0.00    +0.188 HD
ATOM     35  C   UNL     1      -4.382  12.336   0.375  0.00  0.00    +0.146 C 
ENDBRANCH  23  24
ENDBRANCH   7  23
TORSDOF 5
