REMARK  Name = ZINC21526057
REMARK  6 active torsions:
REMARK  status: ('A' for Active; 'I' for Inactive)
REMARK    1  A    between atoms: C_1  and  C_2
REMARK    2  A    between atoms: C_2  and  C_3
REMARK    3  A    between atoms: C_12  and  C_22
REMARK    4  A    between atoms: C_12  and  C_23
REMARK    5  A    between atoms: N_13  and  C_16
REMARK    6  A    between atoms: N_25  and  C_26
REMARK                            x       y       z     vdW  Elec       q    Type
REMARK                         _______ _______ _______ _____ _____    ______ ____
ROOT
ATOM      1  C   UNL     1      -8.051   3.013  -0.708  0.00  0.00    -0.008 A 
ATOM      2  C   UNL     1      -6.723   2.917  -0.487  0.00  0.00    +0.037 A 
ATOM      3  C   UNL     1      -6.035   1.742  -0.824  0.00  0.00    +0.057 A 
ATOM      4  C   UNL     1      -6.817   0.719  -1.382  0.00  0.00    +0.038 A 
ATOM      5  S   UNL     1      -8.445   1.424  -1.420  0.00  0.00    -0.092 S 
ATOM      6  C   UNL     1      -6.014  -0.380  -1.662  0.00  0.00    +0.048 A 
ATOM      7  C   UNL     1      -4.745  -0.057  -1.282  0.00  0.00    +0.106 A 
ATOM      8  N   UNL     1      -4.748   1.239  -0.778  0.00  0.00    -0.333 N 
ATOM      9  C   UNL     1      -3.523   1.888  -0.303  0.00  0.00    +0.157 C 
ATOM     10  C   UNL     1      -2.564   0.820   0.223  0.00  0.00    +0.129 C 
ATOM     11  N   UNL     1      -2.439  -0.316  -0.682  0.00  0.00    -0.278 N 
ATOM     12  C   UNL     1      -3.506  -0.843  -1.326  0.00  0.00    +0.264 C 
ATOM     13  O   UNL     1      -3.441  -1.908  -1.912  0.00  0.00    -0.268 OA
ATOM     14  C   UNL     1      -3.075   0.321   1.576  0.00  0.00    +0.043 C 
ENDROOT
BRANCH  11  15
ATOM     15  C   UNL     1      -1.117  -0.908  -0.898  0.00  0.00    +0.078 C 
ATOM     16  C   UNL     1      -0.811  -0.939  -2.397  0.00  0.00    +0.022 C 
ATOM     17  C   UNL     1       0.570  -1.558  -2.624  0.00  0.00    +0.002 C 
ATOM     18  C   UNL     1       0.587  -2.984  -2.071  0.00  0.00    +0.000 C 
ATOM     19  C   UNL     1       0.281  -2.954  -0.572  0.00  0.00    +0.002 C 
ATOM     20  C   UNL     1      -1.100  -2.335  -0.345  0.00  0.00    +0.022 C 
ENDBRANCH  11  15
BRANCH  10  21
ATOM     21  C   UNL     1      -1.204   1.440   0.417  0.00  0.00    +0.238 C 
ATOM     22  O   UNL     1      -0.827   1.740   1.530  0.00  0.00    -0.273 OA
ATOM     23  N   UNL     1      -0.407   1.662  -0.647  0.00  0.00    -0.311 N 
ATOM     24  H   UNL     1      -0.711   1.312  -1.645  0.00  0.00    +0.149 HD
BRANCH  23  25
ATOM     25  C   UNL     1       0.865   2.368  -0.475  0.00  0.00    +0.073 C 
ATOM     26  C   UNL     1       0.621   3.878  -0.522  0.00  0.00    +0.022 C 
ATOM     27  C   UNL     1       1.949   4.615  -0.343  0.00  0.00    +0.002 C 
ATOM     28  C   UNL     1       2.908   4.219  -1.466  0.00  0.00    +0.000 C 
ATOM     29  C   UNL     1       3.153   2.709  -1.419  0.00  0.00    +0.002 C 
ATOM     30  C   UNL     1       1.825   1.972  -1.599  0.00  0.00    +0.022 C 
ENDBRANCH  23  25
ENDBRANCH  10  21
BRANCH   1  32
ATOM     31  C   UNL     1      -9.026   5.091  -1.646  0.00  0.00    +0.009 C 
ATOM     32  C   UNL     1      -8.972   4.171  -0.424  0.00  0.00    +0.039 C 
ENDBRANCH   1  32
TORSDOF 4
