REMARK  Name = ZINC39011837
REMARK  5 active torsions:
REMARK  status: ('A' for Active; 'I' for Inactive)
REMARK    1  A    between atoms: C_1  and  C_2
REMARK    2  A    between atoms: C_7  and  N_8
REMARK    3  A    between atoms: C_9  and  O_33
REMARK    4  A    between atoms: C_12  and  O_32
REMARK    5  A    between atoms: C_13  and  C_17
REMARK                            x       y       z     vdW  Elec       q    Type
REMARK                         _______ _______ _______ _____ _____    ______ ____
ROOT
ATOM      1  N   UNL     1      -0.163   0.045   2.523  0.00  0.00    -0.225 N 
ATOM      2  C   UNL     1      -1.371   0.471   3.215  0.00  0.00    +0.338 C 
ATOM      3  N   UNL     1      -1.115   1.564   4.140  0.00  0.00    -0.204 NA
ATOM      4  C   UNL     1       0.035   1.850   4.611  0.00  0.00    +0.200 C 
ATOM      5  C   UNL     1       1.276   1.084   4.256  0.00  0.00    +0.183 C 
ATOM      6  C   UNL     1       1.066   0.302   2.990  0.00  0.00    +0.237 C 
ATOM      7  O   UNL     1       2.030  -0.100   2.375  0.00  0.00    -0.274 OA
ENDROOT
BRANCH   5   8
ATOM      8  C   UNL     1       1.612   0.113   5.390  0.00  0.00    +0.122 C 
ATOM      9  C   UNL     1       2.923  -0.578   5.095  0.00  0.00    +0.039 A 
ATOM     10  H   UNL     1       4.180   0.934   4.406  0.00  0.00    +0.166 HD
ATOM     11  C   UNL     1       3.115  -1.904   5.280  0.00  0.00    -0.016 A 
ATOM     12  C   UNL     1       4.477  -2.196   4.892  0.00  0.00    +0.003 A 
ATOM     13  C   UNL     1       5.225  -3.377   4.869  0.00  0.00    +0.010 A 
ATOM     14  C   UNL     1       6.523  -3.281   4.429  0.00  0.00    +0.001 A 
ATOM     15  C   UNL     1       7.076  -2.077   4.024  0.00  0.00    +0.002 A 
ATOM     16  C   UNL     1       6.358  -0.894   4.037  0.00  0.00    +0.026 A 
ATOM     17  C   UNL     1       5.038  -0.960   4.479  0.00  0.00    +0.047 A 
ATOM     18  N   UNL     1       4.070  -0.006   4.616  0.00  0.00    -0.356 N 
ATOM     19  C   UNL     1       2.050  -2.834   5.803  0.00  0.00    +0.052 C 
ATOM     20  C   UNL     1       0.940  -1.978   6.430  0.00  0.00    +0.086 C 
ATOM     21  N   UNL     1       0.557  -0.907   5.498  0.00  0.00    -0.307 NA
ATOM     22  H   UNL     1      -0.323  -0.490   5.763  0.00  0.00    +0.123 HD
ENDBRANCH   5   8
BRANCH   1  29
ATOM     23  C   UNL     1      -0.248   1.514   0.088  0.00  0.00    +0.045 C 
ATOM     24  C   UNL     1      -0.336   0.010   0.115  0.00  0.00    -0.029 A 
ATOM     25  C   UNL     1      -0.457  -0.696  -1.067  0.00  0.00    +0.006 A 
ATOM     26  C   UNL     1      -0.537  -2.076  -1.044  0.00  0.00    +0.020 A 
ATOM     27  C   UNL     1      -0.497  -2.754   0.162  0.00  0.00    +0.043 A 
ATOM     28  C   UNL     1      -0.377  -2.053   1.347  0.00  0.00    +0.044 A 
ATOM     29  C   UNL     1      -0.291  -0.667   1.326  0.00  0.00    +0.045 A 
ATOM     30 CL   UNL     1      -0.599  -4.487   0.185  0.00  0.00    -0.083 Cl
ENDBRANCH   1  29
BRANCH   4  31
ATOM     31  O   UNL     1       0.142   2.889   5.466  0.00  0.00    -0.495 OA
ATOM     32  H   UNL     1      -0.696   3.336   5.648  0.00  0.00    +0.293 HD
ENDBRANCH   4  31
BRANCH   2  33
ATOM     33  O   UNL     1      -2.332   0.899   2.248  0.00  0.00    -0.356 OA
ATOM     34  H   UNL     1      -3.168   1.200   2.631  0.00  0.00    +0.214 HD
ENDBRANCH   2  33
TORSDOF 4
