REMARK  Name = ZINC66981960
REMARK  8 active torsions:
REMARK  status: ('A' for Active; 'I' for Inactive)
REMARK    1  A    between atoms: C_1  and  C_2
REMARK    2  A    between atoms: N_4  and  C_5
REMARK    3  A    between atoms: C_7  and  N_13
REMARK    4  A    between atoms: N_16  and  C_17
REMARK    5  A    between atoms: C_17  and  C_18
REMARK    6  A    between atoms: C_18  and  C_19
REMARK    7  A    between atoms: C_19  and  C_20
REMARK    8  A    between atoms: C_20  and  N_21
REMARK                            x       y       z     vdW  Elec       q    Type
REMARK                         _______ _______ _______ _____ _____    ______ ____
ROOT
ATOM      1  N   UNL     1       1.114  -4.992  -0.090  0.00  0.00    -0.267 N 
ATOM      2  C   UNL     1       2.284  -4.356   0.115  0.00  0.00    +0.304 C 
ATOM      3  O   UNL     1       2.312  -3.143   0.188  0.00  0.00    -0.253 OA
ATOM      4  N   UNL     1       3.424  -5.065   0.238  0.00  0.00    -0.299 N 
ATOM      5  H   UNL     1       1.099  -5.954  -0.213  0.00  0.00    +0.156 HD
ATOM      6  H   UNL     1       3.402  -6.033   0.179  0.00  0.00    +0.150 HD
ENDROOT
BRANCH   1   9
ATOM      7  C   UNL     1      -1.287  -2.264  -0.690  0.00  0.00    +0.071 A 
ATOM      8  C   UNL     1      -0.101  -2.983  -0.656  0.00  0.00    +0.052 A 
ATOM      9  C   UNL     1      -0.083  -4.263  -0.124  0.00  0.00    +0.072 A 
ATOM     10  C   UNL     1      -1.254  -4.824   0.374  0.00  0.00    +0.147 A 
ATOM     11  C   UNL     1      -2.435  -4.106   0.340  0.00  0.00    +0.080 A 
ATOM     12  C   UNL     1      -2.454  -2.826  -0.186  0.00  0.00    +0.147 A 
ATOM     13  F   UNL     1      -3.608  -2.124  -0.213  0.00  0.00    -0.203 F 
ATOM     14  F   UNL     1      -1.238  -6.072   0.892  0.00  0.00    -0.203 F 
BRANCH   7  18
ATOM     15  C   UNL     1      -0.606   0.700  -2.912  0.00  0.00    +0.109 C 
ATOM     16  C   UNL     1      -0.512  -0.660  -2.270  0.00  0.00    +0.214 C 
ATOM     17  O   UNL     1       0.280  -1.476  -2.693  0.00  0.00    -0.276 OA
ATOM     18  N   UNL     1      -1.307  -0.969  -1.227  0.00  0.00    -0.283 N 
ATOM     19  H   UNL     1      -1.893  -0.296  -0.848  0.00  0.00    +0.155 HD
ENDBRANCH   7  18
ENDBRANCH   1   9
BRANCH   4  20
ATOM     20  C   UNL     1       4.696  -4.374   0.460  0.00  0.00    +0.106 C 
BRANCH  20  21
ATOM     21  C   UNL     1       5.824  -5.403   0.564  0.00  0.00    +0.020 C 
BRANCH  21  22
ATOM     22  C   UNL     1       7.153  -4.681   0.796  0.00  0.00    +0.023 C 
BRANCH  22  23
ATOM     23  C   UNL     1       8.281  -5.709   0.899  0.00  0.00    +0.123 C 
BRANCH  23  24
ATOM     24  N   UNL     1       9.553  -5.018   1.121  0.00  0.00    -0.338 N 
ATOM     25  C   UNL     1      10.412  -4.567   0.155  0.00  0.00    +0.104 A 
ATOM     26  C   UNL     1      11.451  -3.995   0.794  0.00  0.00    +0.101 A 
ATOM     27  N   UNL     1      11.232  -4.094   2.114  0.00  0.00    -0.352 N 
ATOM     28  C   UNL     1      10.095  -4.701   2.317  0.00  0.00    +0.173 A 
ATOM     29  H   UNL     1      11.824  -3.764   2.807  0.00  0.00    +0.166 HD
ENDBRANCH  23  24
ENDBRANCH  22  23
ENDBRANCH  21  22
ENDBRANCH  20  21
ENDBRANCH   4  20
TORSDOF 7
