REMARK  Name = ZINC40814486
REMARK  7 active torsions:
REMARK  status: ('A' for Active; 'I' for Inactive)
REMARK    1  A    between atoms: C_1  and  C_2
REMARK    2  A    between atoms: C_6  and  C_7
REMARK    3  A    between atoms: N_9  and  C_10
REMARK    4  A    between atoms: N_9  and  C_11
REMARK    5  A    between atoms: C_11  and  C_12
REMARK    6  A    between atoms: N_22  and  N_23
REMARK    7  A    between atoms: C_24  and  C_26
REMARK                            x       y       z     vdW  Elec       q    Type
REMARK                         _______ _______ _______ _____ _____    ______ ____
ROOT
ATOM      1  C   UNL     1       0.652   1.486   0.072  0.00  0.00    +0.048 C 
ATOM      2  C   UNL     1       0.698  -0.020   0.078  0.00  0.00    +0.009 A 
ATOM      3  C   UNL     1       0.934  -0.858  -1.018  0.00  0.00    +0.042 A 
ATOM      4  C   UNL     1       0.887  -2.155  -0.564  0.00  0.00    +0.115 A 
ATOM      5  O   UNL     1       0.638  -2.124   0.743  0.00  0.00    -0.454 OA
ATOM      6  C   UNL     1       0.523  -0.842   1.157  0.00  0.00    +0.193 A 
ATOM      7  C   UNL     1       1.090  -3.348  -1.464  0.00  0.00    +0.075 C 
ATOM      8  C   UNL     1       0.834  -2.938  -2.917  0.00  0.00    +0.014 C 
ATOM      9  C   UNL     1       1.671  -1.709  -3.288  0.00  0.00    +0.058 C 
ATOM     10  C   UNL     1       1.200  -0.538  -2.438  0.00  0.00    +0.070 C 
ATOM     11  N   UNL     1       1.041   0.655  -2.924  0.00  0.00    -0.184 NA
ENDROOT
BRANCH   6  12
ATOM     12  C   UNL     1       0.254  -0.406   2.531  0.00  0.00    +0.282 C 
ATOM     13  O   UNL     1       0.302   0.777   2.815  0.00  0.00    -0.267 OA
ATOM     14  N   UNL     1      -0.048  -1.314   3.480  0.00  0.00    -0.294 N 
ATOM     15  C   UNL     1      -0.031  -2.743   3.157  0.00  0.00    +0.133 C 
BRANCH  14  16
ATOM     16  C   UNL     1      -0.392  -0.873   4.834  0.00  0.00    +0.143 C 
BRANCH  16  17
ATOM     17  C   UNL     1      -1.879  -0.654   4.928  0.00  0.00    -0.030 A 
ATOM     18  C   UNL     1      -2.416   0.585   4.632  0.00  0.00    +0.005 A 
ATOM     19  C   UNL     1      -3.781   0.786   4.718  0.00  0.00    +0.000 A 
ATOM     20  C   UNL     1      -4.609  -0.252   5.100  0.00  0.00    +0.000 A 
ATOM     21  C   UNL     1      -4.073  -1.492   5.396  0.00  0.00    +0.000 A 
ATOM     22  C   UNL     1      -2.709  -1.694   5.305  0.00  0.00    +0.005 A 
ENDBRANCH  16  17
ENDBRANCH  14  16
ENDBRANCH   6  12
BRANCH  11  23
ATOM     23  N   UNL     1       1.307   0.901  -4.277  0.00  0.00    -0.200 N 
ATOM     24  C   UNL     1       1.142   2.140  -4.782  0.00  0.00    +0.299 C 
ATOM     25  O   UNL     1       0.762   3.045  -4.062  0.00  0.00    -0.265 OA
ATOM     26  H   UNL     1       1.610   0.180  -4.851  0.00  0.00    +0.178 HD
BRANCH  24  27
ATOM     27  C   UNL     1       1.421   2.398  -6.198  0.00  0.00    +0.191 A 
ATOM     28  C   UNL     1       1.302   3.601  -6.834  0.00  0.00    +0.054 A 
ATOM     29  C   UNL     1       1.668   3.389  -8.172  0.00  0.00    +0.042 A 
ATOM     30  C   UNL     1       1.991   2.082  -8.293  0.00  0.00    +0.196 A 
ATOM     31  O   UNL     1       1.846   1.490  -7.101  0.00  0.00    -0.458 OA
ENDBRANCH  24  27
ENDBRANCH  11  23
TORSDOF 5
