REMARK  Name = ZINC09089630
REMARK  6 active torsions:
REMARK  status: ('A' for Active; 'I' for Inactive)
REMARK    1  A    between atoms: C_1  and  C_2
REMARK    2  A    between atoms: C_2  and  C_3
REMARK    3  A    between atoms: C_3  and  N_20
REMARK    4  A    between atoms: N_10  and  C_13
REMARK    5  A    between atoms: C_16  and  C_19
REMARK    6  A    between atoms: N_20  and  C_21
REMARK                            x       y       z     vdW  Elec       q    Type
REMARK                         _______ _______ _______ _____ _____    ______ ____
ROOT
ATOM      1  C   UNL     1       0.904  -0.176  -1.312  0.00  0.00    +0.025 C 
ATOM      2  C   UNL     1       2.221  -0.597  -1.266  0.00  0.00    +0.117 C 
ATOM      3  C   UNL     1       2.897  -1.138  -2.458  0.00  0.00    +0.258 C 
ATOM      4  O   UNL     1       2.312  -1.230  -3.521  0.00  0.00    -0.270 OA
ATOM      5  N   UNL     1       4.183  -1.528  -2.339  0.00  0.00    -0.235 N 
ATOM      6  C   UNL     1       4.840  -1.432  -1.175  0.00  0.00    +0.320 C 
ATOM      7  O   UNL     1       5.997  -1.801  -1.134  0.00  0.00    -0.251 OA
ATOM      8  N   UNL     1       4.288  -0.950  -0.052  0.00  0.00    -0.190 N 
ATOM      9  C   UNL     1       3.011  -0.517  -0.024  0.00  0.00    +0.265 C 
ATOM     10  O   UNL     1       2.522  -0.078   1.000  0.00  0.00    -0.269 OA
ATOM     11  H   UNL     1       4.643  -1.887  -3.114  0.00  0.00    +0.159 HD
ENDROOT
BRANCH   8  12
ATOM     12  C   UNL     1       5.057  -0.889   1.118  0.00  0.00    +0.046 A 
ATOM     13  C   UNL     1       4.717  -1.669   2.215  0.00  0.00    +0.024 A 
ATOM     14  C   UNL     1       5.477  -1.607   3.367  0.00  0.00    +0.005 A 
ATOM     15  C   UNL     1       6.576  -0.769   3.427  0.00  0.00    -0.050 A 
ATOM     16  C   UNL     1       6.917   0.009   2.336  0.00  0.00    +0.005 A 
ATOM     17  C   UNL     1       6.164  -0.053   1.180  0.00  0.00    +0.024 A 
ATOM     18  C   UNL     1       7.403  -0.704   4.686  0.00  0.00    +0.044 C 
ENDBRANCH   8  12
BRANCH   1  20
ATOM     19  C   UNL     1      -0.290  -0.553   0.829  0.00  0.00    +0.010 C 
ATOM     20  C   UNL     1       0.288   0.503  -0.116  0.00  0.00    +0.048 C 
ENDBRANCH   1  20
BRANCH   1  21
ATOM     21  N   UNL     1       0.171  -0.374  -2.427  0.00  0.00    -0.317 N 
ATOM     22  H   UNL     1       0.048  -1.272  -2.773  0.00  0.00    +0.152 HD
BRANCH  21  23
ATOM     23  C   UNL     1      -0.410   0.714  -3.084  0.00  0.00    +0.031 A 
ATOM     24  C   UNL     1      -0.111   2.010  -2.683  0.00  0.00    +0.023 A 
ATOM     25  C   UNL     1      -0.688   3.080  -3.335  0.00  0.00    +0.006 A 
ATOM     26  C   UNL     1      -1.564   2.869  -4.388  0.00  0.00    -0.044 A 
ATOM     27  C   UNL     1      -1.864   1.580  -4.788  0.00  0.00    -0.042 A 
ATOM     28  C   UNL     1      -1.283   0.503  -4.142  0.00  0.00    +0.027 A 
ATOM     29  C   UNL     1      -2.837   1.617  -5.947  0.00  0.00    +0.036 C 
ATOM     30  C   UNL     1      -3.435   3.040  -5.926  0.00  0.00    +0.009 C 
ATOM     31  C   UNL     1      -2.316   3.860  -5.250  0.00  0.00    +0.036 C 
ENDBRANCH  21  23
ENDBRANCH   1  21
TORSDOF 4
