REMARK  Name = ZINC57791122
REMARK  6 active torsions:
REMARK  status: ('A' for Active; 'I' for Inactive)
REMARK    1  A    between atoms: C_1  and  C_2
REMARK    2  A    between atoms: C_2  and  O_3
REMARK    3  A    between atoms: O_3  and  C_4
REMARK    4  A    between atoms: N_12  and  C_13
REMARK    5  A    between atoms: C_18  and  C_23
REMARK    6  A    between atoms: C_20  and  C_22
REMARK                            x       y       z     vdW  Elec       q    Type
REMARK                         _______ _______ _______ _____ _____    ______ ____
ROOT
ATOM      1  C   UNL     1      -1.435  -1.922   0.008  0.00  0.00    +0.121 C 
ATOM      2  C   UNL     1      -1.453  -2.439   1.448  0.00  0.00    +0.050 C 
ATOM      3  C   UNL     1      -1.516  -3.970   1.435  0.00  0.00    +0.112 C 
ATOM      4  N   UNL     1      -2.672  -4.388   0.630  0.00  0.00    -0.285 N 
ATOM      5  C   UNL     1      -2.800  -3.875  -0.741  0.00  0.00    +0.112 C 
ATOM      6  C   UNL     1      -2.722  -2.346  -0.704  0.00  0.00    +0.050 C 
ATOM      7  C   UNL     1      -3.596  -5.228   1.138  0.00  0.00    +0.302 C 
ATOM      8  O   UNL     1      -3.432  -5.718   2.239  0.00  0.00    -0.253 OA
ATOM      9  N   UNL     1      -4.702  -5.523   0.427  0.00  0.00    -0.296 N 
ATOM     10  H   UNL     1      -4.798  -5.192  -0.480  0.00  0.00    +0.151 HD
ENDROOT
BRANCH   9  11
ATOM     11  C   UNL     1      -5.758  -6.346   1.022  0.00  0.00    +0.078 C 
ATOM     12  C   UNL     1      -6.698  -5.455   1.837  0.00  0.00    +0.022 C 
ATOM     13  C   UNL     1      -7.801  -6.314   2.459  0.00  0.00    +0.002 C 
ATOM     14  C   UNL     1      -8.592  -7.011   1.350  0.00  0.00    +0.003 C 
ATOM     15  C   UNL     1      -7.651  -7.901   0.535  0.00  0.00    -0.009 C 
ATOM     16  C   UNL     1      -6.548  -7.042  -0.087  0.00  0.00    +0.009 C 
ATOM     17  C   UNL     1      -5.608  -7.932  -0.902  0.00  0.00    +0.009 C 
ATOM     18  C   UNL     1      -8.442  -8.597  -0.574  0.00  0.00    +0.008 C 
ENDBRANCH   9  11
BRANCH   1  19
ATOM     19  O   UNL     1      -1.343  -0.496   0.016  0.00  0.00    -0.377 OA
BRANCH  19  21
ATOM     20  C   UNL     1      -0.025   1.530   0.015  0.00  0.00    +0.034 C 
ATOM     21  C   UNL     1      -0.003   0.000   0.006  0.00  0.00    +0.157 C 
ENDBRANCH  19  21
ENDBRANCH   1  19
TORSDOF 3
