REMARK  Name = ZINC36648019
REMARK  9 active torsions:
REMARK  status: ('A' for Active; 'I' for Inactive)
REMARK    1  A    between atoms: C_1  and  C_2
REMARK    2  A    between atoms: N_11  and  C_12
REMARK    3  A    between atoms: C_12  and  C_13
REMARK    4  A    between atoms: C_13  and  N_14
REMARK    5  A    between atoms: N_14  and  C_15
REMARK    6  A    between atoms: N_14  and  C_16
REMARK    7  A    between atoms: C_17  and  C_19
REMARK    8  A    between atoms: N_24  and  S_26
REMARK    9  A    between atoms: S_26  and  C_29
REMARK                            x       y       z     vdW  Elec       q    Type
REMARK                         _______ _______ _______ _____ _____    ______ ____
ROOT
ATOM      1  C   UNL     1       1.022   2.537   0.714  0.00  0.00    +0.046 C 
ATOM      2  C   UNL     1       0.787   1.084   0.390  0.00  0.00    -0.024 A 
ATOM      3  C   UNL     1       0.925   0.647  -0.901  0.00  0.00    +0.005 A 
ATOM      4  C   UNL     1       0.718  -0.682  -1.243  0.00  0.00    +0.001 A 
ATOM      5  C   UNL     1       0.364  -1.587  -0.259  0.00  0.00    +0.017 A 
ATOM      6  C   UNL     1       0.223  -1.158   1.037  0.00  0.00    +0.041 A 
ATOM      7  C   UNL     1       0.432   0.186   1.423  0.00  0.00    +0.083 A 
ATOM      8  N   UNL     1       0.261   0.451   2.736  0.00  0.00    -0.224 NA
ATOM      9  C   UNL     1      -0.073  -0.475   3.605  0.00  0.00    +0.168 A 
ATOM     10  S   UNL     1      -0.202  -1.932   2.579  0.00  0.00    -0.052 S 
ATOM     11  N   UNL     1      -0.281  -0.351   4.969  0.00  0.00    -0.252 N 
ATOM     12  C   UNL     1      -0.142   0.849   5.566  0.00  0.00    +0.226 C 
ATOM     13  O   UNL     1       0.114   1.830   4.902  0.00  0.00    -0.275 OA
ENDROOT
BRANCH  12  14
ATOM     14  C   UNL     1      -0.304   0.971   7.059  0.00  0.00    +0.091 C 
ATOM     15  C   UNL     1       0.919   0.373   7.757  0.00  0.00    +0.015 C 
ATOM     16  C   UNL     1       0.740   0.466   9.274  0.00  0.00    +0.018 C 
ATOM     17  C   UNL     1       0.624   1.939   9.681  0.00  0.00    +0.109 C 
ATOM     18  N   UNL     1      -0.460   2.559   8.906  0.00  0.00    -0.175 NA
ATOM     19  C   UNL     1      -0.434   2.449   7.441  0.00  0.00    +0.122 C 
BRANCH  18  20
ATOM     20  S   UNL     1      -1.688   3.366   9.669  0.00  0.00    +0.067 S 
ATOM     21  O   UNL     1      -2.799   3.347   8.783  0.00  0.00    -0.152 OA
ATOM     22  O   UNL     1      -1.758   2.845  10.989  0.00  0.00    -0.152 OA
BRANCH  20  23
ATOM     23  C   UNL     1      -1.191   5.050   9.818  0.00  0.00    +0.144 A 
ATOM     24  C   UNL     1      -1.395   6.079   8.960  0.00  0.00    +0.038 A 
ATOM     25  C   UNL     1      -0.909   7.332   9.287  0.00  0.00    +0.030 A 
ATOM     26  C   UNL     1      -0.243   7.493  10.457  0.00  0.00    +0.080 A 
ATOM     27  S   UNL     1      -0.295   5.845  11.142  0.00  0.00    -0.057 S 
ATOM     28 CL   UNL     1       0.469   8.930  11.121  0.00  0.00    -0.076 Cl
ENDBRANCH  20  23
ENDBRANCH  18  20
ENDBRANCH  12  14
BRANCH  11  29
ATOM     29  C   UNL     1      -0.651  -1.526   5.763  0.00  0.00    +0.097 C 
BRANCH  29  30
ATOM     30  C   UNL     1       0.567  -2.438   5.923  0.00  0.00    -0.060 C 
BRANCH  30  31
ATOM     31  N   UNL     1       0.236  -3.540   6.836  0.00  0.00    +0.377 N 
ATOM     32  C   UNL     1      -0.804  -4.383   6.230  0.00  0.00    -0.097 C 
ATOM     33  C   UNL     1       1.438  -4.348   7.085  0.00  0.00    -0.097 C 
ATOM     34  H   UNL     1      -0.103  -3.164   7.709  0.00  0.00    -0.083 HD
ENDBRANCH  30  31
ENDBRANCH  29  30
ENDBRANCH  11  29
TORSDOF 6
