REMARK  Name = ZINC11841634
REMARK  10 active torsions:
REMARK  status: ('A' for Active; 'I' for Inactive)
REMARK    1  A    between atoms: C_1  and  O_2
REMARK    2  A    between atoms: O_2  and  C_3
REMARK    3  A    between atoms: C_7  and  C_11
REMARK    4  A    between atoms: C_8  and  O_9
REMARK    5  A    between atoms: O_9  and  C_10
REMARK    6  A    between atoms: C_20  and  C_22
REMARK    7  A    between atoms: N_24  and  C_25
REMARK    8  A    between atoms: C_25  and  C_26
REMARK    9  A    between atoms: C_26  and  C_27
REMARK   10  A    between atoms: C_27  and  C_28
REMARK                            x       y       z     vdW  Elec       q    Type
REMARK                         _______ _______ _______ _____ _____    ______ ____
ROOT
ATOM      1  C   UNL     1       2.537   5.571   0.035  0.00  0.00    +0.250 C 
ATOM      2  O   UNL     1       1.517   6.231  -0.020  0.00  0.00    -0.270 OA
ATOM      3  N   UNL     1       3.733   6.186   0.121  0.00  0.00    -0.297 N 
ATOM      4  C   UNL     1       4.974   5.400   0.110  0.00  0.00    +0.108 C 
ATOM      5  C   UNL     1       5.775   5.712   1.374  0.00  0.00    +0.026 C 
ATOM      6  C   UNL     1       5.911   7.232   1.510  0.00  0.00    -0.015 C 
ATOM      7  C   UNL     1       4.588   8.005   1.506  0.00  0.00    +0.026 C 
ATOM      8  C   UNL     1       3.811   7.648   0.234  0.00  0.00    +0.108 C 
ATOM      9  C   UNL     1       7.123   7.897   0.859  0.00  0.00    +0.021 C 
ATOM     10  C   UNL     1       7.045   7.769   2.382  0.00  0.00    +0.082 C 
ENDROOT
BRANCH   1  15
ATOM     11  C   UNL     1       1.605   2.026   0.898  0.00  0.00    +0.162 A 
ATOM     12  C   UNL     1       2.332   1.325  -0.050  0.00  0.00    +0.049 A 
ATOM     13  C   UNL     1       3.121   2.001  -0.966  0.00  0.00    +0.005 A 
ATOM     14  C   UNL     1       3.192   3.377  -0.943  0.00  0.00    +0.017 A 
ATOM     15  C   UNL     1       2.464   4.098   0.007  0.00  0.00    +0.082 A 
ATOM     16  C   UNL     1       1.661   3.416   0.930  0.00  0.00    +0.174 A 
BRANCH  11  18
ATOM     17  C   UNL     1       0.817  -0.070   1.699  0.00  0.00    +0.277 C 
ATOM     18  O   UNL     1       0.832   1.356   1.794  0.00  0.00    -0.491 OA
ENDBRANCH  11  18
BRANCH  16  19
ATOM     19  O   UNL     1       0.946   4.106   1.854  0.00  0.00    -0.491 OA
ATOM     20  C   UNL     1       1.589   4.378   3.101  0.00  0.00    +0.277 C 
ENDBRANCH  16  19
ENDBRANCH   1  15
BRANCH  10  21
ATOM     21  C   UNL     1       7.951   6.762   3.043  0.00  0.00    +0.217 C 
ATOM     22  O   UNL     1       8.998   6.450   2.516  0.00  0.00    -0.275 OA
ATOM     23  N   UNL     1       7.598   6.208   4.220  0.00  0.00    -0.315 N 
ATOM     24  H   UNL     1       6.761   6.457   4.641  0.00  0.00    +0.149 HD
BRANCH  23  25
ATOM     25  C   UNL     1       8.479   5.229   4.862  0.00  0.00    +0.104 C 
BRANCH  25  26
ATOM     26  C   UNL     1       7.848   4.760   6.175  0.00  0.00    +0.023 C 
BRANCH  26  27
ATOM     27  C   UNL     1       8.768   3.738   6.846  0.00  0.00    +0.036 C 
BRANCH  27  28
ATOM     28  C   UNL     1       8.147   3.276   8.139  0.00  0.00    -0.047 A 
ATOM     29  C   UNL     1       8.424   3.945   9.316  0.00  0.00    +0.003 A 
ATOM     30  C   UNL     1       7.850   3.524  10.502  0.00  0.00    +0.000 A 
ATOM     31  C   UNL     1       7.008   2.429  10.511  0.00  0.00    +0.000 A 
ATOM     32  C   UNL     1       6.735   1.756   9.334  0.00  0.00    +0.000 A 
ATOM     33  C   UNL     1       7.305   2.180   8.148  0.00  0.00    +0.003 A 
ENDBRANCH  27  28
ENDBRANCH  26  27
ENDBRANCH  25  26
ENDBRANCH  23  25
ENDBRANCH  10  21
TORSDOF 8
