REMARK  Name = ZINC59269010
REMARK  5 active torsions:
REMARK  status: ('A' for Active; 'I' for Inactive)
REMARK    1  A    between atoms: C_1  and  C_2
REMARK    2  A    between atoms: C_2  and  C_4
REMARK    3  A    between atoms: C_2  and  N_14
REMARK    4  A    between atoms: N_17  and  C_18
REMARK    5  A    between atoms: C_18  and  C_19
REMARK                            x       y       z     vdW  Elec       q    Type
REMARK                         _______ _______ _______ _____ _____    ______ ____
ROOT
ATOM      1  N   UNL     1       0.720  -0.429   1.206  0.00  0.00    -0.293 N 
ATOM      2  C   UNL     1       0.055  -0.600   2.366  0.00  0.00    +0.300 C 
ATOM      3  O   UNL     1      -1.132  -0.346   2.429  0.00  0.00    -0.253 OA
ATOM      4  N   UNL     1       0.707  -1.051   3.456  0.00  0.00    -0.295 N 
ATOM      5  H   UNL     1       1.667  -0.631   1.155  0.00  0.00    +0.151 HD
ATOM      6  H   UNL     1       1.654  -1.253   3.405  0.00  0.00    +0.151 HD
ENDROOT
BRANCH   1   8
ATOM      7  C   UNL     1      -0.033   1.591   0.051  0.00  0.00    +0.033 C 
ATOM      8  C   UNL     1       0.011   0.062   0.021  0.00  0.00    +0.102 C 
BRANCH   8   9
ATOM      9  C   UNL     1       0.732  -0.395  -1.220  0.00  0.00    -0.024 A 
ATOM     10  C   UNL     1       2.114  -0.394  -1.256  0.00  0.00    +0.009 A 
ATOM     11  C   UNL     1       2.779  -0.811  -2.394  0.00  0.00    +0.050 A 
ATOM     12  C   UNL     1       2.061  -1.234  -3.503  0.00  0.00    +0.162 A 
ATOM     13  C   UNL     1       0.671  -1.238  -3.466  0.00  0.00    +0.162 A 
ATOM     14  C   UNL     1       0.011  -0.821  -2.320  0.00  0.00    +0.055 A 
ATOM     15  O   UNL     1      -0.052  -1.656  -4.540  0.00  0.00    -0.485 OA
ATOM     16  C   UNL     1       0.634  -1.717  -5.795  0.00  0.00    +0.270 C 
ATOM     17  C   UNL     1       1.986  -2.408  -5.569  0.00  0.00    +0.270 C 
ATOM     18  O   UNL     1       2.729  -1.638  -4.617  0.00  0.00    -0.485 OA
ENDBRANCH   8   9
ENDBRANCH   1   8
BRANCH   4  19
ATOM     19  C   UNL     1      -0.015  -1.237   4.717  0.00  0.00    +0.142 C 
BRANCH  19  20
ATOM     20  C   UNL     1       0.935  -1.746   5.770  0.00  0.00    -0.014 A 
ATOM     21  C   UNL     1       1.124  -3.111   5.943  0.00  0.00    +0.010 A 
ATOM     22  C   UNL     1       2.005  -3.537   6.920  0.00  0.00    +0.042 A 
ATOM     23  C   UNL     1       2.668  -2.589   7.693  0.00  0.00    +0.099 A 
ATOM     24  N   UNL     1       2.460  -1.296   7.497  0.00  0.00    -0.349 N 
ATOM     25  C   UNL     1       1.630  -0.861   6.568  0.00  0.00    +0.089 A 
ATOM     26  N   UNL     1       3.555  -3.002   8.679  0.00  0.00    -0.312 N 
ATOM     27  C   UNL     1       3.716  -4.427   9.016  0.00  0.00    +0.111 C 
ATOM     28  C   UNL     1       5.146  -4.834   8.664  0.00  0.00    +0.054 C 
ATOM     29  C   UNL     1       6.136  -3.832   9.196  0.00  0.00    -0.041 A 
ATOM     30  C   UNL     1       7.454  -4.245   9.344  0.00  0.00    +0.004 A 
ATOM     31  C   UNL     1       8.413  -3.374   9.817  0.00  0.00    +0.000 A 
ATOM     32  C   UNL     1       8.063  -2.078  10.146  0.00  0.00    +0.000 A 
ATOM     33  C   UNL     1       6.754  -1.666  10.004  0.00  0.00    +0.005 A 
ATOM     34  C   UNL     1       5.786  -2.544   9.533  0.00  0.00    -0.027 A 
ATOM     35  C   UNL     1       4.374  -2.038   9.422  0.00  0.00    +0.141 C 
ATOM     36  H   UNL     1       2.933  -0.652   8.048  0.00  0.00    +0.167 HD
ENDBRANCH  19  20
ENDBRANCH   4  19
TORSDOF 4
