REMARK  Name = ZINC38776616
REMARK  11 active torsions:
REMARK  status: ('A' for Active; 'I' for Inactive)
REMARK    1  A    between atoms: C_1  and  C_2
REMARK    2  A    between atoms: C_3  and  O_24
REMARK    3  A    between atoms: C_4  and  C_8
REMARK    4  A    between atoms: C_11  and  O_15
REMARK    5  A    between atoms: C_13  and  O_14
REMARK    6  A    between atoms: O_15  and  C_16
REMARK    7  A    between atoms: C_16  and  C_17
REMARK    8  A    between atoms: O_24  and  C_25
REMARK    9  A    between atoms: C_28  and  C_31
REMARK   10  A    between atoms: C_31  and  O_33
REMARK   11  A    between atoms: O_33  and  C_34
REMARK                            x       y       z     vdW  Elec       q    Type
REMARK                         _______ _______ _______ _____ _____    ______ ____
ROOT
ATOM      1  C   UNL     1       0.210   1.106  -0.297  0.00  0.00    +0.071 C 
ATOM      2  C   UNL     1       0.035  -0.360   0.005  0.00  0.00    +0.098 C 
ATOM      3  C   UNL     1      -1.151  -0.961   0.224  0.00  0.00    +0.156 C 
ATOM      4  C   UNL     1      -0.777  -2.412   0.476  0.00  0.00    +0.200 C 
ATOM      5  N   UNL     1       0.690  -2.398   0.348  0.00  0.00    -0.294 N 
ATOM      6  N   UNL     1       1.037  -1.244   0.087  0.00  0.00    -0.179 NA
ATOM      7  H   UNL     1       1.279  -3.162   0.447  0.00  0.00    +0.184 HD
ENDROOT
BRANCH   4   8
ATOM      8  C   UNL     1      -1.192  -2.837   1.861  0.00  0.00    +0.025 A 
ATOM      9  C   UNL     1      -0.286  -2.775   2.903  0.00  0.00    +0.013 A 
ATOM     10  C   UNL     1      -0.663  -3.164   4.173  0.00  0.00    +0.046 A 
ATOM     11  C   UNL     1      -1.953  -3.618   4.407  0.00  0.00    +0.124 A 
ATOM     12  C   UNL     1      -2.864  -3.681   3.364  0.00  0.00    +0.091 A 
ATOM     13  C   UNL     1      -2.485  -3.285   2.091  0.00  0.00    +0.126 A 
BRANCH  13  14
ATOM     14  O   UNL     1      -3.377  -3.340   1.067  0.00  0.00    -0.506 OA
ATOM     15  H   UNL     1      -3.381  -4.182   0.593  0.00  0.00    +0.292 HD
ENDBRANCH  13  14
BRANCH  11  16
ATOM     16  O   UNL     1      -2.324  -4.002   5.657  0.00  0.00    -0.487 OA
BRANCH  16  17
ATOM     17  C   UNL     1      -1.333  -3.911   6.684  0.00  0.00    +0.264 C 
BRANCH  17  18
ATOM     18  C   UNL     1      -1.921  -4.374   7.991  0.00  0.00    -0.010 A 
ATOM     19  C   UNL     1      -2.547  -3.468   8.828  0.00  0.00    +0.008 A 
ATOM     20  C   UNL     1      -3.087  -3.893  10.027  0.00  0.00    +0.015 A 
ATOM     21  C   UNL     1      -3.001  -5.225  10.390  0.00  0.00    +0.018 A 
ATOM     22  C   UNL     1      -2.375  -6.131   9.553  0.00  0.00    +0.015 A 
ATOM     23  C   UNL     1      -1.840  -5.706   8.352  0.00  0.00    +0.008 A 
ATOM     24 BR   UNL     1      -3.739  -5.807  12.031  0.00  0.00    -0.050 Br
ENDBRANCH  17  18
ENDBRANCH  16  17
ENDBRANCH  11  16
ENDBRANCH   4   8
BRANCH   3  25
ATOM     25  O   UNL     1      -2.382  -0.405   0.221  0.00  0.00    -0.456 OA
BRANCH  25  26
ATOM     26  C   UNL     1      -3.255  -0.794  -0.742  0.00  0.00    +0.128 A 
ATOM     27  C   UNL     1      -2.835  -1.653  -1.752  0.00  0.00    +0.047 A 
ATOM     28  C   UNL     1      -3.717  -2.050  -2.731  0.00  0.00    +0.018 A 
ATOM     29  C   UNL     1      -5.037  -1.590  -2.708  0.00  0.00    +0.059 A 
ATOM     30  C   UNL     1      -5.455  -0.728  -1.691  0.00  0.00    +0.018 A 
ATOM     31  C   UNL     1      -4.568  -0.339  -0.713  0.00  0.00    +0.047 A 
BRANCH  29  32
ATOM     32  C   UNL     1      -5.986  -2.013  -3.756  0.00  0.00    +0.339 C 
ATOM     33  O   UNL     1      -5.620  -2.762  -4.640  0.00  0.00    -0.245 OA
BRANCH  32  34
ATOM     34  O   UNL     1      -7.258  -1.568  -3.732  0.00  0.00    -0.464 OA
ATOM     35  C   UNL     1      -8.121  -2.018  -4.778  0.00  0.00    +0.280 C 
ENDBRANCH  32  34
ENDBRANCH  29  32
ENDBRANCH  25  26
ENDBRANCH   3  25
TORSDOF 9
