REMARK  Name = ZINC13246555
REMARK  8 active torsions:
REMARK  status: ('A' for Active; 'I' for Inactive)
REMARK    1  A    between atoms: C_1  and  C_2
REMARK    2  A    between atoms: C_13  and  S_15
REMARK    3  A    between atoms: S_15  and  C_16
REMARK    4  A    between atoms: C_16  and  C_17
REMARK    5  A    between atoms: N_19  and  C_20
REMARK    6  A    between atoms: C_22  and  O_29
REMARK    7  A    between atoms: C_23  and  C_27
REMARK    8  A    between atoms: O_29  and  C_30
REMARK                            x       y       z     vdW  Elec       q    Type
REMARK                         _______ _______ _______ _____ _____    ______ ____
ROOT
ATOM      1  C   UNL     1      -1.385   5.808  -1.491  0.00  0.00    +0.171 C 
ENDROOT
BRANCH   1   2
ATOM      2  C   UNL     1      -2.885   5.833  -1.641  0.00  0.00    +0.227 C 
ATOM      3  O   UNL     1      -3.536   4.842  -1.389  0.00  0.00    -0.275 OA
ATOM      4  N   UNL     1      -3.501   6.957  -2.057  0.00  0.00    -0.284 N 
ATOM      5  H   UNL     1      -2.991   7.772  -2.182  0.00  0.00    +0.155 HD
BRANCH   4   6
ATOM      6  C   UNL     1      -4.873   6.948  -2.307  0.00  0.00    +0.055 A 
ATOM      7  C   UNL     1      -5.508   5.758  -2.638  0.00  0.00    +0.071 A 
ATOM      8  C   UNL     1      -6.869   5.745  -2.886  0.00  0.00    +0.136 A 
ATOM      9  C   UNL     1      -7.605   6.938  -2.803  0.00  0.00    +0.106 A 
ATOM     10  C   UNL     1      -6.956   8.132  -2.470  0.00  0.00    +0.040 A 
ATOM     11  C   UNL     1      -5.603   8.132  -2.219  0.00  0.00    +0.063 A 
ATOM     12 CL   UNL     1      -4.801   9.613  -1.799  0.00  0.00    -0.082 Cl
BRANCH   9  13
ATOM     13  C   UNL     1      -9.053   6.933  -3.066  0.00  0.00    +0.390 C 
ATOM     14  O   UNL     1      -9.614   5.894  -3.355  0.00  0.00    -0.240 OA
ATOM     15  O   UNL     1      -9.756   8.079  -2.985  0.00  0.00    -0.240 OA
ENDBRANCH   9  13
BRANCH   8  16
ATOM     16  O   UNL     1      -7.491   4.584  -3.209  0.00  0.00    -0.494 OA
ATOM     17  C   UNL     1      -6.679   3.410  -3.276  0.00  0.00    +0.277 C 
ENDBRANCH   8  16
ENDBRANCH   4   6
ENDBRANCH   1   2
BRANCH   1  18
ATOM     18  S   UNL     1      -0.864   4.171  -0.921  0.00  0.00    -0.096 S 
BRANCH  18  31
ATOM     19  C   UNL     1       3.248   7.174  -1.484  0.00  0.00    +0.088 C 
ATOM     20  C   UNL     1       2.742   5.808  -1.097  0.00  0.00    +0.128 A 
ATOM     21  N   UNL     1       3.627   4.891  -0.722  0.00  0.00    -0.225 NA
ATOM     22  C   UNL     1       3.151   3.707  -0.391  0.00  0.00    +0.113 A 
ATOM     23  C   UNL     1       1.770   3.386  -0.421  0.00  0.00    +0.043 A 
ATOM     24  C   UNL     1       1.422   2.032  -0.025  0.00  0.00    -0.025 A 
ATOM     25  C   UNL     1       2.444   1.221   0.330  0.00  0.00    -0.004 A 
ATOM     26  S   UNL     1       3.908   2.211   0.156  0.00  0.00    -0.073 S 
ATOM     27  C   UNL     1       2.358  -0.207   0.773  0.00  0.00    +0.043 C 
ATOM     28  C   UNL     1       0.897  -0.520   1.124  0.00  0.00    +0.005 C 
ATOM     29  C   UNL     1       0.000  -0.008  -0.007  0.00  0.00    +0.005 C 
ATOM     30  C   UNL     1      -0.017   1.521  -0.002  0.00  0.00    +0.037 C 
ATOM     31  C   UNL     1       0.879   4.418  -0.834  0.00  0.00    +0.109 A 
ATOM     32  N   UNL     1       1.445   5.582  -1.149  0.00  0.00    -0.225 NA
ENDBRANCH  18  31
ENDBRANCH   1  18
TORSDOF 6
