REMARK  Name = ZINC35139634
REMARK  11 active torsions:
REMARK  status: ('A' for Active; 'I' for Inactive)
REMARK    1  A    between atoms: C_1  and  C_2
REMARK    2  A    between atoms: N_8  and  C_9
REMARK    3  A    between atoms: C_9  and  C_10
REMARK    4  A    between atoms: C_10  and  C_11
REMARK    5  A    between atoms: C_11  and  N_12
REMARK    6  A    between atoms: C_13  and  C_15
REMARK    7  A    between atoms: C_15  and  C_16
REMARK    8  A    between atoms: C_16  and  C_17
REMARK    9  A    between atoms: C_17  and  S_18
REMARK   10  A    between atoms: S_18  and  C_19
REMARK   11  A    between atoms: N_29  and  C_30
REMARK                            x       y       z     vdW  Elec       q    Type
REMARK                         _______ _______ _______ _____ _____    ______ ____
ROOT
ATOM      1  S   UNL     1       1.643   1.907  12.831  0.00  0.00    -0.087 S 
ENDROOT
BRANCH   1   2
ATOM      2  C   UNL     1       2.167   0.657  13.956  0.00  0.00    +0.177 A 
ATOM      3  N   UNL     1       3.253  -0.021  13.676  0.00  0.00    -0.223 NA
ATOM      4  C   UNL     1       3.712  -0.994  14.496  0.00  0.00    +0.079 A 
ATOM      5  C   UNL     1       4.870  -1.718  14.200  0.00  0.00    +0.028 A 
ATOM      6  C   UNL     1       5.297  -2.692  15.057  0.00  0.00    +0.002 A 
ATOM      7  C   UNL     1       4.597  -2.976  16.223  0.00  0.00    +0.001 A 
ATOM      8  C   UNL     1       3.460  -2.286  16.540  0.00  0.00    +0.015 A 
ATOM      9  C   UNL     1       3.002  -1.286  15.684  0.00  0.00    +0.065 A 
ATOM     10  C   UNL     1       1.788  -0.511  15.974  0.00  0.00    +0.267 A 
ATOM     11  O   UNL     1       1.135  -0.716  16.981  0.00  0.00    -0.267 OA
ATOM     12  N   UNL     1       1.425   0.442  15.085  0.00  0.00    -0.255 N 
BRANCH  12  13
ATOM     13  C   UNL     1       0.278   1.211  15.319  0.00  0.00    +0.053 A 
ATOM     14  C   UNL     1      -0.956   0.782  14.846  0.00  0.00    +0.026 A 
ATOM     15  C   UNL     1      -2.085   1.542  15.078  0.00  0.00    +0.003 A 
ATOM     16  C   UNL     1      -1.990   2.729  15.781  0.00  0.00    +0.020 A 
ATOM     17  C   UNL     1      -0.762   3.159  16.254  0.00  0.00    +0.043 A 
ATOM     18  C   UNL     1       0.371   2.400  16.030  0.00  0.00    +0.046 A 
ATOM     19 CL   UNL     1      -0.647   4.650  17.136  0.00  0.00    -0.083 Cl
ENDBRANCH  12  13
ENDBRANCH   1   2
BRANCH   1  20
ATOM     20  C   UNL     1       2.882   1.855  11.508  0.00  0.00    +0.078 C 
BRANCH  20  21
ATOM     21  C   UNL     1       2.543   2.906  10.449  0.00  0.00    +0.020 C 
BRANCH  21  22
ATOM     22  C   UNL     1       3.589   2.862   9.333  0.00  0.00    +0.096 C 
BRANCH  22  24
ATOM     23  N   UNL     1       4.042   4.041   7.207  0.00  0.00    -0.315 N 
ATOM     24  C   UNL     1       3.254   3.897   8.290  0.00  0.00    +0.213 C 
ATOM     25  O   UNL     1       2.275   4.600   8.426  0.00  0.00    -0.276 OA
ATOM     26  H   UNL     1       4.825   3.479   7.098  0.00  0.00    +0.149 HD
BRANCH  23  27
ATOM     27  C   UNL     1       3.717   5.047   6.193  0.00  0.00    +0.102 C 
BRANCH  27  28
ATOM     28  C   UNL     1       4.763   5.003   5.077  0.00  0.00    +0.000 C 
BRANCH  28  29
ATOM     29  C   UNL     1       4.423   6.054   4.018  0.00  0.00    -0.077 C 
BRANCH  29  36
ATOM     30  C   UNL     1       5.170   8.437   2.734  0.00  0.00    -0.013 C 
ATOM     31  C   UNL     1       5.169   7.098   1.993  0.00  0.00    -0.072 C 
ATOM     32  C   UNL     1       6.260   7.109   0.920  0.00  0.00    -0.016 C 
ATOM     33  C   UNL     1       6.255   5.767   0.181  0.00  0.00    -0.003 C 
ATOM     34  C   UNL     1       6.450   4.637   1.196  0.00  0.00    -0.019 C 
ATOM     35  C   UNL     1       5.352   4.718   2.259  0.00  0.00    -0.078 C 
ATOM     36  N   UNL     1       5.427   6.012   2.946  0.00  0.00    +0.381 N 
ATOM     37  H   UNL     1       6.346   6.128   3.345  0.00  0.00    -0.081 HD
ENDBRANCH  29  36
ENDBRANCH  28  29
ENDBRANCH  27  28
ENDBRANCH  23  27
ENDBRANCH  22  24
ENDBRANCH  21  22
ENDBRANCH  20  21
ENDBRANCH   1  20
TORSDOF 10
