REMARK  Name = ZINC14275600
REMARK  5 active torsions:
REMARK  status: ('A' for Active; 'I' for Inactive)
REMARK    1  A    between atoms: C_4  and  N_25
REMARK    2  A    between atoms: C_5  and  C_7
REMARK    3  A    between atoms: C_10  and  C_12
REMARK    4  A    between atoms: N_14  and  C_15
REMARK    5  A    between atoms: C_15  and  N_17
REMARK                            x       y       z     vdW  Elec       q    Type
REMARK                         _______ _______ _______ _____ _____    ______ ____
ROOT
ATOM      1  C   UNL     1       2.201   6.801   1.242  0.00  0.00    +0.285 C 
ATOM      2  O   UNL     1       1.891   7.926   0.898  0.00  0.00    -0.266 OA
ATOM      3  N   UNL     1       3.067   6.622   2.259  0.00  0.00    -0.261 N 
ATOM      4  H   UNL     1       3.314   5.725   2.533  0.00  0.00    +0.157 HD
ENDROOT
BRANCH   1   8
ATOM      5  C   UNL     1       1.192   3.562  -0.005  0.00  0.00    +0.138 A 
ATOM      6  C   UNL     1       0.465   4.356  -0.846  0.00  0.00    +0.051 A 
ATOM      7  C   UNL     1       0.740   5.683  -0.498  0.00  0.00    +0.055 A 
ATOM      8  C   UNL     1       1.632   5.642   0.552  0.00  0.00    +0.190 A 
ATOM      9  O   UNL     1       1.886   4.347   0.836  0.00  0.00    -0.450 OA
BRANCH   5  14
ATOM     10  C   UNL     1       0.026  -0.007  -0.020  0.00  0.00    +0.001 A 
ATOM     11  C   UNL     1       1.233  -0.684  -0.032  0.00  0.00    +0.002 A 
ATOM     12  C   UNL     1       2.426   0.017  -0.035  0.00  0.00    +0.033 A 
ATOM     13  C   UNL     1       2.420   1.396  -0.026  0.00  0.00    +0.137 A 
ATOM     14  C   UNL     1       1.206   2.085  -0.014  0.00  0.00    +0.047 A 
ATOM     15  C   UNL     1       0.005   1.372  -0.011  0.00  0.00    +0.014 A 
BRANCH  13  16
ATOM     16  N   UNL     1       3.698   2.144  -0.028  0.00  0.00    +0.057 N 
ATOM     17  O   UNL     1       4.756   1.541  -0.038  0.00  0.00    -0.126 OA
ATOM     18  O   UNL     1       3.691   3.362  -0.020  0.00  0.00    -0.126 OA
ENDBRANCH  13  16
ENDBRANCH   5  14
ENDBRANCH   1   8
BRANCH   3  19
ATOM     19  C   UNL     1       3.590   7.689   2.894  0.00  0.00    +0.142 C 
ATOM     20  S   UNL     1       3.155   9.272   2.410  0.00  0.00    -0.018 S 
BRANCH  19  21
ATOM     21  N   UNL     1       4.457   7.509   3.911  0.00  0.00    -0.282 N 
ATOM     22  C   UNL     1       5.081   8.609   4.497  0.00  0.00    +0.124 A 
ATOM     23  C   UNL     1       6.054   8.411   5.471  0.00  0.00    +0.045 A 
ATOM     24  C   UNL     1       6.669   9.511   6.040  0.00  0.00    +0.019 A 
ATOM     25  C   UNL     1       6.282  10.778   5.622  0.00  0.00    +0.032 A 
ATOM     26  C   UNL     1       5.305  10.900   4.653  0.00  0.00    +0.127 A 
ATOM     27  N   UNL     1       4.739   9.832   4.124  0.00  0.00    -0.239 NA
ATOM     28  I   UNL     1       7.171  12.484   6.450  0.00  0.00    -0.042 I 
ATOM     29  H   UNL     1       4.645   6.615   4.235  0.00  0.00    +0.155 HD
ENDBRANCH  19  21
ENDBRANCH   3  19
TORSDOF 5
