REMARK  Name = ZINC13786279
REMARK  6 active torsions:
REMARK  status: ('A' for Active; 'I' for Inactive)
REMARK    1  A    between atoms: C_3  and  N_32
REMARK    2  A    between atoms: C_6  and  N_7
REMARK    3  A    between atoms: C_8  and  C_10
REMARK    4  A    between atoms: C_10  and  N_60
REMARK    5  A    between atoms: C_13  and  O_31
REMARK    6  A    between atoms: C_20  and  C_22
REMARK                            x       y       z     vdW  Elec       q    Type
REMARK                         _______ _______ _______ _____ _____    ______ ____
ROOT
ATOM      1  C   UNL     1       2.439   5.553   0.977  0.00  0.00    -0.075 C 
ATOM      2  C   UNL     1       2.694   6.112  -0.425  0.00  0.00    +0.016 C 
ATOM      3  C   UNL     1       1.481   5.814  -1.312  0.00  0.00    +0.066 C 
ATOM      4  C   UNL     1       0.248   6.506  -0.725  0.00  0.00    +0.035 C 
ATOM      5  C   UNL     1      -0.976   6.191  -1.586  0.00  0.00    +0.003 C 
ATOM      6  C   UNL     1      -1.208   4.679  -1.607  0.00  0.00    +0.000 C 
ATOM      7  C   UNL     1       0.021   3.985  -2.198  0.00  0.00    +0.005 C 
ATOM      8  C   UNL     1       1.249   4.302  -1.345  0.00  0.00    +0.011 C 
ATOM      9  C   UNL     1       1.033   3.792   0.081  0.00  0.00    -0.031 C 
ATOM     10  N   UNL     1       2.239   4.091   0.883  0.00  0.00    +0.390 N 
ATOM     11  H   UNL     1       3.056   3.671   0.424  0.00  0.00    -0.080 HD
ENDROOT
BRANCH   9  12
ATOM     12  C   UNL     1       0.819   2.301   0.055  0.00  0.00    -0.057 A 
ATOM     13  C   UNL     1       1.904   1.450  -0.050  0.00  0.00    +0.006 A 
ATOM     14  C   UNL     1       1.714   0.082  -0.074  0.00  0.00    +0.050 A 
ATOM     15  C   UNL     1       0.433  -0.442   0.006  0.00  0.00    +0.166 A 
ATOM     16  C   UNL     1      -0.660   0.415   0.111  0.00  0.00    +0.166 A 
ATOM     17  C   UNL     1      -0.461   1.786   0.135  0.00  0.00    +0.051 A 
ATOM     18  O   UNL     1      -1.798  -0.336   0.173  0.00  0.00    -0.453 OA
ATOM     19  C   UNL     1      -1.424  -1.641  -0.304  0.00  0.00    +0.466 C 
ATOM     20  O   UNL     1      -0.020  -1.729   0.004  0.00  0.00    -0.453 OA
ENDBRANCH   9  12
BRANCH   3  21
ATOM     21  O   UNL     1       1.727   6.291  -2.637  0.00  0.00    -0.388 OA
ATOM     22  H   UNL     1       1.890   7.243  -2.689  0.00  0.00    +0.210 HD
ENDBRANCH   3  21
BRANCH  10  23
ATOM     23  C   UNL     1       2.101   3.513   2.236  0.00  0.00    +0.020 C 
BRANCH  23  25
ATOM     24  N   UNL     1       0.724   3.848   4.264  0.00  0.00    -0.287 N 
ATOM     25  C   UNL     1       0.951   4.154   2.971  0.00  0.00    +0.201 C 
ATOM     26  O   UNL     1       0.231   4.944   2.399  0.00  0.00    -0.278 OA
ATOM     27  H   UNL     1       1.339   3.269   4.741  0.00  0.00    +0.155 HD
BRANCH  24  33
ATOM     28  C   UNL     1      -0.848   5.646   4.622  0.00  0.00    +0.025 A 
ATOM     29  C   UNL     1      -1.960   6.152   5.265  0.00  0.00    +0.034 A 
ATOM     30  C   UNL     1      -2.619   5.391   6.213  0.00  0.00    +0.126 A 
ATOM     31  C   UNL     1      -2.170   4.118   6.516  0.00  0.00    +0.034 A 
ATOM     32  C   UNL     1      -1.062   3.604   5.872  0.00  0.00    +0.025 A 
ATOM     33  C   UNL     1      -0.399   4.366   4.919  0.00  0.00    +0.033 A 
BRANCH  30  34
ATOM     34  N   UNL     1      -3.807   5.938   6.905  0.00  0.00    +0.056 N 
ATOM     35  O   UNL     1      -4.388   5.269   7.740  0.00  0.00    -0.126 OA
ATOM     36  O   UNL     1      -4.204   7.059   6.640  0.00  0.00    -0.126 OA
ENDBRANCH  30  34
ENDBRANCH  24  33
ENDBRANCH  23  25
ENDBRANCH  10  23
TORSDOF 6
