REMARK  Name = ZINC36709509
REMARK  5 active torsions:
REMARK  status: ('A' for Active; 'I' for Inactive)
REMARK    1  A    between atoms: C_1  and  C_2
REMARK    2  A    between atoms: N_11  and  C_15
REMARK    3  A    between atoms: C_15  and  C_16
REMARK    4  A    between atoms: N_18  and  C_19
REMARK    5  A    between atoms: C_19  and  C_20
REMARK                            x       y       z     vdW  Elec       q    Type
REMARK                         _______ _______ _______ _____ _____    ______ ____
ROOT
ATOM      1  C   UNL     1       0.777   1.438   4.394  0.00  0.00    +0.213 C 
ENDROOT
BRANCH   1  11
ATOM      2  C   UNL     1      -0.019   1.526   0.010  0.00  0.00    +0.010 C 
ATOM      3  C   UNL     1       0.002  -0.004   0.002  0.00  0.00    +0.018 C 
ATOM      4  C   UNL     1       0.718  -0.498  -1.258  0.00  0.00    +0.006 C 
ATOM      5  C   UNL     1       0.756  -2.027  -1.255  0.00  0.00    +0.000 C 
ATOM      6  C   UNL     1       1.516  -2.519  -0.021  0.00  0.00    +0.003 C 
ATOM      7  C   UNL     1       0.803  -2.032   1.243  0.00  0.00    +0.035 C 
ATOM      8  C   UNL     1       0.739  -0.509   1.238  0.00  0.00    +0.115 C 
ATOM      9  C   UNL     1       0.069  -0.004   2.495  0.00  0.00    +0.247 C 
ATOM     10  O   UNL     1      -1.064  -0.228   2.863  0.00  0.00    -0.273 OA
ATOM     11  N   UNL     1       0.998   0.746   3.122  0.00  0.00    -0.215 N 
ATOM     12  C   UNL     1       2.148   0.781   2.437  0.00  0.00    +0.310 C 
ATOM     13  O   UNL     1       3.133   1.393   2.801  0.00  0.00    -0.252 OA
ATOM     14  N   UNL     1       2.091   0.063   1.300  0.00  0.00    -0.285 N 
ATOM     15  H   UNL     1       2.801  -0.054   0.650  0.00  0.00    +0.151 HD
ENDBRANCH   1  11
BRANCH   1  16
ATOM     16  C   UNL     1       1.154   0.526   5.534  0.00  0.00    +0.231 C 
ATOM     17  O   UNL     1       1.567  -0.591   5.305  0.00  0.00    -0.274 OA
ATOM     18  N   UNL     1       1.032   0.953   6.806  0.00  0.00    -0.308 N 
ATOM     19  H   UNL     1       0.701   1.846   6.989  0.00  0.00    +0.149 HD
BRANCH  18  20
ATOM     20  C   UNL     1       1.399   0.067   7.914  0.00  0.00    +0.167 C 
BRANCH  20  21
ATOM     21  C   UNL     1       1.171   0.778   9.223  0.00  0.00    +0.097 A 
ATOM     22  N   UNL     1       0.090   0.788   9.947  0.00  0.00    -0.242 NA
ATOM     23  C   UNL     1       0.010   1.468  11.110  0.00  0.00    +0.079 A 
ATOM     24  C   UNL     1      -1.065   1.591  12.014  0.00  0.00    +0.029 A 
ATOM     25  C   UNL     1      -0.936   2.337  13.146  0.00  0.00    +0.002 A 
ATOM     26  C   UNL     1       0.246   2.998  13.450  0.00  0.00    +0.001 A 
ATOM     27  C   UNL     1       1.322   2.901  12.587  0.00  0.00    +0.017 A 
ATOM     28  C   UNL     1       1.202   2.151  11.443  0.00  0.00    +0.039 A 
ATOM     29  S   UNL     1       2.259   1.733  10.081  0.00  0.00    -0.071 S 
ENDBRANCH  20  21
ENDBRANCH  18  20
ENDBRANCH   1  16
TORSDOF 4
