REMARK  Name = ZINC38672520
REMARK  10 active torsions:
REMARK  status: ('A' for Active; 'I' for Inactive)
REMARK    1  A    between atoms: C_1  and  C_2
REMARK    2  A    between atoms: C_5  and  N_9
REMARK    3  A    between atoms: C_7  and  C_8
REMARK    4  A    between atoms: C_11  and  C_16
REMARK    5  A    between atoms: N_18  and  C_19
REMARK    6  A    between atoms: C_19  and  C_20
REMARK    7  A    between atoms: C_20  and  C_22
REMARK    8  A    between atoms: C_20  and  N_32
REMARK    9  A    between atoms: N_30  and  C_31
REMARK   10  A    between atoms: N_35  and  C_38
REMARK                            x       y       z     vdW  Elec       q    Type
REMARK                         _______ _______ _______ _____ _____    ______ ____
ROOT
ATOM      1  C   UNL     1       4.332  -7.621  -0.636  0.00  0.00    +0.127 C 
ENDROOT
BRANCH   1   4
ATOM      2  C   UNL     1       4.508  -6.287  -2.667  0.00  0.00    +0.218 C 
ATOM      3  O   UNL     1       3.923  -5.392  -2.095  0.00  0.00    -0.275 OA
ATOM      4  N   UNL     1       4.763  -7.444  -2.025  0.00  0.00    -0.313 N 
ATOM      5  H   UNL     1       5.231  -8.159  -2.482  0.00  0.00    +0.149 HD
BRANCH   2   8
ATOM      6  N   UNL     1       3.248  -4.889  -5.267  0.00  0.00    -0.271 N 
ATOM      7  C   UNL     1       4.555  -4.708  -4.624  0.00  0.00    +0.127 C 
ATOM      8  C   UNL     1       4.952  -6.104  -4.096  0.00  0.00    +0.101 C 
ATOM      9  C   UNL     1       4.162  -7.036  -5.044  0.00  0.00    +0.110 C 
ATOM     10  C   UNL     1       3.002  -6.187  -5.514  0.00  0.00    +0.221 C 
ATOM     11  O   UNL     1       1.996  -6.615  -6.040  0.00  0.00    -0.275 OA
BRANCH   6  16
ATOM     12  C   UNL     1      -0.316  -0.658  -6.523  0.00  0.00    +0.044 C 
ATOM     13  C   UNL     1       0.631  -1.782  -6.189  0.00  0.00    -0.047 A 
ATOM     14  C   UNL     1       0.338  -3.073  -6.590  0.00  0.00    +0.005 A 
ATOM     15  C   UNL     1       1.204  -4.105  -6.286  0.00  0.00    +0.024 A 
ATOM     16  C   UNL     1       2.369  -3.845  -5.577  0.00  0.00    +0.037 A 
ATOM     17  C   UNL     1       2.660  -2.548  -5.176  0.00  0.00    +0.027 A 
ATOM     18  C   UNL     1       1.793  -1.520  -5.488  0.00  0.00    -0.046 A 
ATOM     19  C   UNL     1       2.111  -0.111  -5.058  0.00  0.00    +0.044 C 
ENDBRANCH   6  16
ENDBRANCH   2   8
ENDBRANCH   1   4
BRANCH   1  20
ATOM     20  C   UNL     1       4.850  -8.960  -0.108  0.00  0.00    +0.104 C 
BRANCH  20  21
ATOM     21  C   UNL     1       6.357  -8.946  -0.096  0.00  0.00    -0.028 A 
ATOM     22  C   UNL     1       7.036  -8.323   0.935  0.00  0.00    +0.007 A 
ATOM     23  C   UNL     1       8.415  -8.308   0.949  0.00  0.00    +0.024 A 
ATOM     24  C   UNL     1       9.136  -8.922  -0.077  0.00  0.00    +0.033 A 
ATOM     25  C   UNL     1       8.446  -9.544  -1.106  0.00  0.00    -0.025 A 
ATOM     26  C   UNL     1       7.064  -9.561  -1.113  0.00  0.00    +0.010 A 
ATOM     27  C   UNL     1       9.450 -10.124  -2.077  0.00  0.00    +0.056 C 
ATOM     28  C   UNL     1      10.819  -9.759  -1.480  0.00  0.00    +0.109 C 
ATOM     29  N   UNL     1      10.517  -9.020  -0.251  0.00  0.00    -0.332 N 
ATOM     30  C   UNL     1      11.520  -8.465   0.662  0.00  0.00    +0.129 C 
ENDBRANCH  20  21
BRANCH  20  31
ATOM     31  N   UNL     1       4.352  -9.175   1.257  0.00  0.00    -0.297 NA
ATOM     32  C   UNL     1       4.819 -10.461   1.792  0.00  0.00    +0.066 C 
ATOM     33  C   UNL     1       4.329 -10.619   3.233  0.00  0.00    -0.064 C 
ATOM     34  N   UNL     1       2.861 -10.562   3.260  0.00  0.00    +0.379 N 
ATOM     35  C   UNL     1       2.410  -9.262   2.746  0.00  0.00    -0.064 C 
ATOM     36  C   UNL     1       2.885  -9.093   1.301  0.00  0.00    +0.066 C 
ATOM     37  C   UNL     1       2.390 -10.732   4.641  0.00  0.00    -0.096 C 
ATOM     38  H   UNL     1       2.486 -11.300   2.684  0.00  0.00    -0.082 HD
ENDBRANCH  20  31
ENDBRANCH   1  20
TORSDOF 6
