REMARK  Name = ZINC64151985
REMARK  6 active torsions:
REMARK  status: ('A' for Active; 'I' for Inactive)
REMARK    1  A    between atoms: C_4  and  O_7
REMARK    2  A    between atoms: O_7  and  C_8
REMARK    3  A    between atoms: C_8  and  C_9
REMARK    4  A    between atoms: N_18  and  C_19
REMARK    5  A    between atoms: C_25  and  C_27
REMARK    6  A    between atoms: C_27  and  C_28
REMARK                            x       y       z     vdW  Elec       q    Type
REMARK                         _______ _______ _______ _____ _____    ______ ____
ROOT
ATOM      1  C   UNL     1       5.306  -2.383  -2.643  0.00  0.00    +0.078 C 
ATOM      2  C   UNL     1       6.440  -3.130  -3.349  0.00  0.00    +0.041 C 
ATOM      3  C   UNL     1       6.037  -3.410  -4.800  0.00  0.00    +0.109 C 
ATOM      4  N   UNL     1       5.660  -2.141  -5.439  0.00  0.00    -0.301 N 
ATOM      5  C   UNL     1       4.642  -1.300  -4.795  0.00  0.00    +0.109 C 
ATOM      6  C   UNL     1       5.061  -1.044  -3.343  0.00  0.00    +0.041 C 
ATOM      7  C   UNL     1       6.237  -1.756  -6.595  0.00  0.00    +0.220 C 
ATOM      8  O   UNL     1       7.077  -2.459  -7.117  0.00  0.00    -0.275 OA
ENDROOT
BRANCH   1  17
ATOM      9  C   UNL     1       4.954  -2.624  -0.061  0.00  0.00    +0.197 C 
ATOM     10  N   UNL     1       5.709  -2.129   1.095  0.00  0.00    -0.322 N 
ATOM     11  C   UNL     1       6.802  -1.404   0.601  0.00  0.00    +0.050 A 
ATOM     12  C   UNL     1       7.819  -0.734   1.272  0.00  0.00    +0.025 A 
ATOM     13  C   UNL     1       8.805  -0.079   0.560  0.00  0.00    +0.002 A 
ATOM     14  C   UNL     1       8.785  -0.087  -0.822  0.00  0.00    +0.002 A 
ATOM     15  C   UNL     1       7.779  -0.750  -1.498  0.00  0.00    +0.025 A 
ATOM     16  C   UNL     1       6.782  -1.412  -0.790  0.00  0.00    +0.053 A 
ATOM     17  N   UNL     1       5.675  -2.143  -1.246  0.00  0.00    -0.304 N 
ATOM     18  H   UNL     1       5.492  -2.276   2.029  0.00  0.00    +0.148 HD
BRANCH   9  19
ATOM     19  C   UNL     1       3.531  -2.060  -0.044  0.00  0.00    +0.271 C 
BRANCH  19  20
ATOM     20  O   UNL     1       3.586  -0.632  -0.037  0.00  0.00    -0.488 OA
BRANCH  20  24
ATOM     21  C   UNL     1      -0.017   1.378   0.010  0.00  0.00    +0.000 A 
ATOM     22  C   UNL     1       1.170   2.088   0.002  0.00  0.00    +0.004 A 
ATOM     23  C   UNL     1       2.377   1.417  -0.013  0.00  0.00    +0.045 A 
ATOM     24  C   UNL     1       2.399   0.030  -0.021  0.00  0.00    +0.121 A 
ATOM     25  C   UNL     1       1.207  -0.680  -0.013  0.00  0.00    +0.045 A 
ATOM     26  C   UNL     1       0.002  -0.004   0.002  0.00  0.00    +0.004 A 
ENDBRANCH  20  24
ENDBRANCH  19  20
ENDBRANCH   9  19
ENDBRANCH   1  17
BRANCH   7  27
ATOM     27  C   UNL     1       5.840  -0.453  -7.238  0.00  0.00    +0.129 C 
BRANCH  27  28
ATOM     28  C   UNL     1       6.627  -0.259  -8.508  0.00  0.00    -0.033 C 
ATOM     29  C   UNL     1       6.235  -0.576  -9.764  0.00  0.00    -0.001 A 
ATOM     30  C   UNL     1       5.007  -1.173 -10.301  0.00  0.00    +0.010 A 
ATOM     31  C   UNL     1       4.904  -1.374 -11.634  0.00  0.00    +0.001 A 
ATOM     32  C   UNL     1       5.939  -1.027 -12.514  0.00  0.00    +0.002 A 
ATOM     33  C   UNL     1       7.097  -0.474 -12.096  0.00  0.00    +0.026 A 
ATOM     34  C   UNL     1       7.313  -0.218 -10.713  0.00  0.00    +0.043 A 
ATOM     35  N   UNL     1       8.331   0.300 -10.070  0.00  0.00    -0.380 N 
ATOM     36  C   UNL     1       8.012   0.334  -8.639  0.00  0.00    +0.145 C 
ATOM     37  H   UNL     1       9.156   0.611 -10.474  0.00  0.00    +0.160 HD
ENDBRANCH  27  28
ENDBRANCH   7  27
TORSDOF 6
