REMARK  Name = ZINC00861231
REMARK  11 active torsions:
REMARK  status: ('A' for Active; 'I' for Inactive)
REMARK    1  A    between atoms: C_1  and  C_2
REMARK    2  A    between atoms: C_3  and  C_23
REMARK    3  A    between atoms: C_4  and  C_14
REMARK    4  A    between atoms: C_17  and  O_21
REMARK    5  A    between atoms: C_18  and  O_20
REMARK    6  A    between atoms: O_21  and  C_22
REMARK    7  A    between atoms: C_23  and  O_25
REMARK    8  A    between atoms: O_25  and  C_26
REMARK    9  A    between atoms: C_26  and  C_27
REMARK   10  A    between atoms: C_30  and  O_33
REMARK   11  A    between atoms: O_33  and  C_34
REMARK                            x       y       z     vdW  Elec       q    Type
REMARK                         _______ _______ _______ _____ _____    ______ ____
ROOT
ATOM      1  C   UNL     1       0.578   3.134  -4.252  0.00  0.00    +0.061 C 
ATOM      2  C   UNL     1      -0.442   2.577  -3.291  0.00  0.00    +0.016 C 
ATOM      3  C   UNL     1      -1.739   2.897  -3.436  0.00  0.00    +0.065 C 
ATOM      4  C   UNL     1      -2.783   2.356  -2.503  0.00  0.00    +0.092 C 
ATOM      5  C   UNL     1      -2.156   1.834  -1.235  0.00  0.00    +0.024 C 
ATOM      6  C   UNL     1      -0.838   1.551  -1.184  0.00  0.00    +0.015 C 
ATOM      7  N   UNL     1      -0.041   1.752  -2.279  0.00  0.00    -0.321 N 
ATOM      8  C   UNL     1      -0.207   1.010   0.076  0.00  0.00    +0.051 C 
ATOM      9  C   UNL     1      -0.955   1.552   1.296  0.00  0.00    +0.014 C 
ATOM     10  C   UNL     1      -2.426   1.139   1.189  0.00  0.00    +0.080 C 
ATOM     11  C   UNL     1      -2.983   1.647  -0.113  0.00  0.00    +0.162 C 
ATOM     12  O   UNL     1      -4.168   1.900  -0.197  0.00  0.00    -0.292 OA
ATOM     13  H   UNL     1       0.932   1.241  -2.338  0.00  0.00    +0.152 HD
ENDROOT
BRANCH   4  14
ATOM     14  C   UNL     1      -3.524   1.236  -3.187  0.00  0.00    -0.032 A 
ATOM     15  C   UNL     1      -2.842   0.102  -3.588  0.00  0.00    +0.008 A 
ATOM     16  C   UNL     1      -3.518  -0.929  -4.215  0.00  0.00    +0.050 A 
ATOM     17  C   UNL     1      -4.881  -0.826  -4.443  0.00  0.00    +0.161 A 
ATOM     18  C   UNL     1      -5.566   0.316  -4.041  0.00  0.00    +0.159 A 
ATOM     19  C   UNL     1      -4.885   1.343  -3.408  0.00  0.00    +0.053 A 
BRANCH  18  20
ATOM     20  O   UNL     1      -6.904   0.421  -4.263  0.00  0.00    -0.503 OA
ATOM     21  H   UNL     1      -7.445   1.324  -3.944  0.00  0.00    +0.292 HD
ENDBRANCH  18  20
BRANCH  17  22
ATOM     22  O   UNL     1      -5.546  -1.839  -5.060  0.00  0.00    -0.491 OA
ATOM     23  C   UNL     1      -4.778  -2.980  -5.447  0.00  0.00    +0.277 C 
ENDBRANCH  17  22
ENDBRANCH   4  14
BRANCH   3  24
ATOM     24  C   UNL     1      -2.128   3.759  -4.488  0.00  0.00    +0.338 C 
ATOM     25  O   UNL     1      -1.283   4.287  -5.186  0.00  0.00    -0.245 OA
BRANCH  24  26
ATOM     26  O   UNL     1      -3.437   3.995  -4.718  0.00  0.00    -0.457 OA
BRANCH  26  27
ATOM     27  C   UNL     1      -3.758   4.876  -5.796  0.00  0.00    +0.268 C 
BRANCH  27  28
ATOM     28  C   UNL     1      -5.254   5.019  -5.900  0.00  0.00    -0.010 A 
ATOM     29  C   UNL     1      -5.976   4.155  -6.703  0.00  0.00    +0.010 A 
ATOM     30  C   UNL     1      -7.349   4.281  -6.795  0.00  0.00    +0.046 A 
ATOM     31  C   UNL     1      -8.002   5.282  -6.090  0.00  0.00    +0.120 A 
ATOM     32  C   UNL     1      -7.274   6.151  -5.290  0.00  0.00    +0.046 A 
ATOM     33  C   UNL     1      -5.902   6.018  -5.197  0.00  0.00    +0.010 A 
BRANCH  31  34
ATOM     34  O   UNL     1      -9.351   5.411  -6.184  0.00  0.00    -0.495 OA
ATOM     35  C   UNL     1     -10.035   4.481  -7.026  0.00  0.00    +0.277 C 
ENDBRANCH  31  34
ENDBRANCH  27  28
ENDBRANCH  26  27
ENDBRANCH  24  26
ENDBRANCH   3  24
TORSDOF 8
