REMARK  Name = ZINC39237428
REMARK  5 active torsions:
REMARK  status: ('A' for Active; 'I' for Inactive)
REMARK    1  A    between atoms: C_3  and  C_6
REMARK    2  A    between atoms: C_9  and  C_34
REMARK    3  A    between atoms: C_15  and  C_19
REMARK    4  A    between atoms: N_21  and  C_22
REMARK    5  A    between atoms: C_22  and  C_23
REMARK                            x       y       z     vdW  Elec       q    Type
REMARK                         _______ _______ _______ _____ _____    ______ ____
ROOT
ATOM      1  C   UNL     1       3.598   0.675   0.009  0.00  0.00    -0.000 C 
ATOM      2  C   UNL     1       4.114   0.512   1.438  0.00  0.00    +0.021 C 
ATOM      3  C   UNL     1       3.736  -0.872   1.992  0.00  0.00    +0.174 C 
ATOM      4  N   UNL     1       4.232  -1.867   1.050  0.00  0.00    -0.245 NA
ATOM      5  C   UNL     1       3.542  -1.680  -0.256  0.00  0.00    +0.030 C 
ATOM      6  N   UNL     1       4.045  -0.443  -0.844  0.00  0.00    +0.397 N 
ATOM      7  C   UNL     1       3.932  -2.949  -1.025  0.00  0.00    +0.091 C 
ATOM      8  C   UNL     1       4.190  -3.990   0.094  0.00  0.00    +0.111 C 
ATOM      9  N   UNL     1       3.979  -3.261   1.376  0.00  0.00    -0.254 NA
ATOM     10  H   UNL     1       3.672  -0.333  -1.775  0.00  0.00    -0.082 HD
ATOM     11  H   UNL     1       3.036  -3.388   1.713  0.00  0.00    +0.141 HD
ATOM     12  H   UNL     1       5.053  -0.466  -0.878  0.00  0.00    -0.082 HD
ENDROOT
BRANCH   1  15
ATOM     13  C   UNL     1      -0.045   0.496  -0.518  0.00  0.00    +0.041 A 
ATOM     14  C   UNL     1       1.282   0.267  -0.950  0.00  0.00    +0.043 A 
ATOM     15  C   UNL     1       2.092   0.712   0.027  0.00  0.00    +0.091 A 
ATOM     16  O   UNL     1       1.331   1.196   1.022  0.00  0.00    -0.469 OA
ATOM     17  C   UNL     1       0.034   1.067   0.697  0.00  0.00    +0.195 A 
ENDBRANCH   1  15
BRANCH   7  18
ATOM     18  C   UNL     1       2.802  -3.395  -1.918  0.00  0.00    +0.217 C 
ATOM     19  O   UNL     1       1.768  -2.763  -1.948  0.00  0.00    -0.275 OA
ATOM     20  N   UNL     1       2.942  -4.496  -2.682  0.00  0.00    -0.310 N 
ATOM     21  H   UNL     1       3.770  -5.002  -2.657  0.00  0.00    +0.149 HD
BRANCH  20  22
ATOM     22  C   UNL     1       1.845  -4.930  -3.550  0.00  0.00    +0.157 C 
BRANCH  22  23
ATOM     23  C   UNL     1       2.253  -6.176  -4.292  0.00  0.00    +0.034 A 
ATOM     24  H   UNL     1       3.264  -5.411  -5.944  0.00  0.00    +0.166 HD
ATOM     25  C   UNL     1       1.977  -7.431  -3.901  0.00  0.00    +0.032 A 
ATOM     26  C   UNL     1       2.555  -8.328  -4.905  0.00  0.00    +0.001 A 
ATOM     27  C   UNL     1       2.600  -9.716  -5.053  0.00  0.00    +0.030 A 
ATOM     28  C   UNL     1       3.241 -10.264  -6.142  0.00  0.00    +0.042 A 
ATOM     29  C   UNL     1       3.840  -9.444  -7.090  0.00  0.00    +0.022 A 
ATOM     30  C   UNL     1       3.804  -8.073  -6.957  0.00  0.00    +0.027 A 
ATOM     31  C   UNL     1       3.162  -7.499  -5.865  0.00  0.00    +0.047 A 
ATOM     32  N   UNL     1       2.956  -6.197  -5.466  0.00  0.00    -0.357 N 
ATOM     33 CL   UNL     1       3.300 -11.988  -6.331  0.00  0.00    -0.084 Cl
ENDBRANCH  22  23
ENDBRANCH  20  22
ENDBRANCH   7  18
BRANCH   3  34
ATOM     34  C   UNL     1       2.215  -0.984   2.118  0.00  0.00    +0.406 C 
ATOM     35  F   UNL     1       1.639  -0.963   0.844  0.00  0.00    -0.169 F 
ATOM     36  F   UNL     1       1.887  -2.184   2.758  0.00  0.00    -0.169 F 
ATOM     37  F   UNL     1       1.728   0.092   2.868  0.00  0.00    -0.169 F 
ENDBRANCH   3  34
TORSDOF 5
