REMARK  Name = ZINC12412577
REMARK  12 active torsions:
REMARK  status: ('A' for Active; 'I' for Inactive)
REMARK    1  A    between atoms: C_1  and  C_2
REMARK    2  A    between atoms: C_2  and  O_3
REMARK    3  A    between atoms: O_3  and  C_4
REMARK    4  A    between atoms: C_4  and  C_6
REMARK    5  A    between atoms: C_7  and  C_23
REMARK    6  A    between atoms: C_12  and  C_14
REMARK    7  A    between atoms: C_23  and  N_24
REMARK    8  A    between atoms: N_24  and  C_25
REMARK    9  A    between atoms: C_27  and  C_33
REMARK   10  A    between atoms: C_27  and  C_34
REMARK   11  A    between atoms: C_29  and  C_31
REMARK   12  A    between atoms: C_29  and  C_32
REMARK                            x       y       z     vdW  Elec       q    Type
REMARK                         _______ _______ _______ _____ _____    ______ ____
ROOT
ATOM      1  C   UNL     1       4.199   1.762   1.859  0.00  0.00    +0.076 C 
ATOM      2  C   UNL     1       3.730   1.089   0.785  0.00  0.00    +0.007 C 
ATOM      3  N   UNL     1       4.439   1.042  -0.381  0.00  0.00    -0.274 N 
ATOM      4  C   UNL     1       5.627   1.636  -0.552  0.00  0.00    +0.304 C 
ATOM      5  O   UNL     1       6.184   1.538  -1.628  0.00  0.00    -0.252 OA
ATOM      6  N   UNL     1       6.226   2.339   0.430  0.00  0.00    -0.288 N 
ATOM      7  C   UNL     1       5.542   2.451   1.729  0.00  0.00    +0.144 C 
ATOM      8  H   UNL     1       4.039   0.494  -1.246  0.00  0.00    +0.156 HD
ATOM      9  H   UNL     1       7.202   2.823   0.279  0.00  0.00    +0.151 HD
ENDROOT
BRANCH   7  10
ATOM     10  C   UNL     1       6.459   1.893   2.787  0.00  0.00    -0.019 A 
ATOM     11  C   UNL     1       7.201   0.756   2.526  0.00  0.00    +0.009 A 
ATOM     12  C   UNL     1       8.044   0.241   3.493  0.00  0.00    +0.050 A 
ATOM     13  C   UNL     1       8.148   0.865   4.726  0.00  0.00    +0.166 A 
ATOM     14  C   UNL     1       7.401   2.010   4.988  0.00  0.00    +0.167 A 
ATOM     15  C   UNL     1       6.561   2.523   4.013  0.00  0.00    +0.055 A 
ATOM     16  O   UNL     1       7.677   2.430   6.257  0.00  0.00    -0.453 OA
ATOM     17  C   UNL     1       8.287   1.302   6.911  0.00  0.00    +0.466 C 
ATOM     18  O   UNL     1       8.892   0.567   5.831  0.00  0.00    -0.453 OA
ENDBRANCH   7  10
BRANCH   1  19
ATOM     19  C   UNL     1       3.462   1.816   3.066  0.00  0.00    +0.339 C 
ATOM     20  O   UNL     1       2.848   2.825   3.359  0.00  0.00    -0.245 OA
BRANCH  19  21
ATOM     21  O   UNL     1       3.441   0.749   3.892  0.00  0.00    -0.462 OA
BRANCH  21  23
ATOM     22  C   UNL     1       2.772  -0.425   5.895  0.00  0.00    +0.048 C 
ATOM     23  C   UNL     1       2.678   0.874   5.093  0.00  0.00    +0.229 C 
ENDBRANCH  21  23
ENDBRANCH  19  21
ENDBRANCH   1  19
BRANCH   2  24
ATOM     24  C   UNL     1       2.401   0.385   0.874  0.00  0.00    -0.030 C 
BRANCH  24  25
ATOM     25  N   UNL     1       1.449   1.019  -0.048  0.00  0.00    +0.384 N 
ATOM     26  H   UNL     1       1.322   2.077   0.226  0.00  0.00    -0.085 HD
ATOM     27  H   UNL     1       1.833   0.950  -1.077  0.00  0.00    -0.085 HD
BRANCH  25  28
ATOM     28  C   UNL     1       0.136   0.355   0.011  0.00  0.00    -0.068 C 
ATOM     29  C   UNL     1      -0.684   0.963   1.149  0.00  0.00    +0.006 C 
ATOM     30  C   UNL     1      -2.061   0.306   1.220  0.00  0.00    +0.013 C 
ATOM     31  N   UNL     1      -2.729   0.256  -0.063  0.00  0.00    -0.306 NA
ATOM     32  C   UNL     1      -1.984  -0.066  -1.262  0.00  0.00    +0.013 C 
ATOM     33  C   UNL     1      -0.607   0.592  -1.304  0.00  0.00    +0.006 C 
ATOM     34  C   UNL     1      -2.783   0.452  -2.479  0.00  0.00    +0.027 C 
ATOM     35  C   UNL     1      -1.834  -1.582  -1.430  0.00  0.00    +0.027 C 
ATOM     36  C   UNL     1      -2.928   1.147   2.184  0.00  0.00    +0.027 C 
ATOM     37  C   UNL     1      -1.929  -1.093   1.833  0.00  0.00    +0.027 C 
ATOM     38  H   UNL     1      -3.522  -0.507  -0.033  0.00  0.00    +0.123 HD
ENDBRANCH  25  28
ENDBRANCH  24  25
ENDBRANCH   2  24
TORSDOF 7
