REMARK  Name = ZINC09272122
REMARK  14 active torsions:
REMARK  status: ('A' for Active; 'I' for Inactive)
REMARK    1  A    between atoms: C_1  and  C_2
REMARK    2  A    between atoms: C_2  and  N_61
REMARK    3  A    between atoms: C_3  and  C_4
REMARK    4  A    between atoms: C_3  and  N_61
REMARK    5  A    between atoms: C_5  and  C_6
REMARK    6  A    between atoms: C_5  and  N_61
REMARK    7  A    between atoms: C_6  and  N_7
REMARK    8  A    between atoms: C_8  and  C_26
REMARK    9  A    between atoms: C_10  and  C_15
REMARK   10  A    between atoms: C_11  and  O_14
REMARK   11  A    between atoms: C_15  and  C_17
REMARK   12  A    between atoms: C_20  and  O_24
REMARK   13  A    between atoms: C_21  and  C_23
REMARK   14  A    between atoms: O_24  and  C_25
REMARK                            x       y       z     vdW  Elec       q    Type
REMARK                         _______ _______ _______ _____ _____    ______ ____
ROOT
ATOM      1  N   UNL     1       2.369   0.665   0.152  0.00  0.00    -0.285 N 
ATOM      2  C   UNL     1       1.295  -0.320  -0.018  0.00  0.00    +0.144 C 
ATOM      3  C   UNL     1      -0.003   0.444   0.110  0.00  0.00    +0.071 C 
ATOM      4  C   UNL     1       0.326   1.738   0.332  0.00  0.00    +0.188 C 
ATOM      5  C   UNL     1       1.798   1.867   0.357  0.00  0.00    +0.282 C 
ATOM      6  O   UNL     1       2.404   2.905   0.535  0.00  0.00    -0.267 OA
ENDROOT
BRANCH   2   7
ATOM      7  C   UNL     1       1.388  -0.958  -1.380  0.00  0.00    -0.021 A 
ATOM      8  C   UNL     1       1.574  -0.170  -2.501  0.00  0.00    +0.006 A 
ATOM      9  C   UNL     1       1.665  -0.755  -3.750  0.00  0.00    +0.001 A 
ATOM     10  C   UNL     1       1.559  -2.127  -3.880  0.00  0.00    +0.015 A 
ATOM     11  C   UNL     1       1.367  -2.915  -2.760  0.00  0.00    +0.018 A 
ATOM     12  C   UNL     1       1.282  -2.330  -1.509  0.00  0.00    +0.021 A 
ATOM     13 BR   UNL     1       1.222  -4.792  -2.938  0.00  0.00    -0.050 Br
ENDBRANCH   2   7
BRANCH   4  14
ATOM     14  O   UNL     1      -0.553   2.752   0.498  0.00  0.00    -0.502 OA
ATOM     15  H   UNL     1      -0.053   3.606   0.646  0.00  0.00    +0.292 HD
ENDBRANCH   4  14
BRANCH   3  16
ATOM     16  C   UNL     1      -1.357  -0.110   0.013  0.00  0.00    +0.195 C 
ATOM     17  O   UNL     1      -2.121   0.299  -0.842  0.00  0.00    -0.287 OA
BRANCH  16  18
ATOM     18  C   UNL     1      -1.793  -1.163   0.950  0.00  0.00    +0.023 A 
ATOM     19  C   UNL     1      -0.958  -1.557   2.000  0.00  0.00    +0.015 A 
ATOM     20  C   UNL     1      -1.371  -2.536   2.875  0.00  0.00    +0.046 A 
ATOM     21  C   UNL     1      -2.612  -3.141   2.710  0.00  0.00    +0.123 A 
ATOM     22  C   UNL     1      -3.443  -2.755   1.665  0.00  0.00    -0.008 A 
ATOM     23  C   UNL     1      -3.041  -1.773   0.788  0.00  0.00    +0.018 A 
ATOM     24  C   UNL     1      -4.788  -3.414   1.491  0.00  0.00    +0.047 C 
BRANCH  21  25
ATOM     25  O   UNL     1      -3.013  -4.109   3.572  0.00  0.00    -0.495 OA
ATOM     26  C   UNL     1      -2.163  -4.375   4.690  0.00  0.00    +0.277 C 
ENDBRANCH  21  25
ENDBRANCH  16  18
ENDBRANCH   3  16
BRANCH   1  27
ATOM     27  C   UNL     1       3.807   0.390   0.108  0.00  0.00    +0.090 C 
BRANCH  27  28
ATOM     28  C   UNL     1       4.310   0.536  -1.329  0.00  0.00    -0.060 C 
BRANCH  28  29
ATOM     29  N   UNL     1       5.765   0.276  -1.353  0.00  0.00    +0.380 N 
ATOM     30  H   UNL     1       6.220   0.861  -0.642  0.00  0.00    -0.082 HD
BRANCH  29  32
ATOM     31  C   UNL     1       5.439  -2.047  -2.134  0.00  0.00    -0.017 C 
ATOM     32  C   UNL     1       6.029  -1.145  -1.047  0.00  0.00    -0.082 C 
ENDBRANCH  29  32
BRANCH  29  33
ATOM     33  C   UNL     1       6.317   0.619  -2.681  0.00  0.00    -0.082 C 
ATOM     34  C   UNL     1       7.840   0.472  -2.636  0.00  0.00    -0.017 C 
ENDBRANCH  29  33
ENDBRANCH  28  29
ENDBRANCH  27  28
ENDBRANCH   1  27
TORSDOF 10
