REMARK  Name = ZINC04625783
REMARK  9 active torsions:
REMARK  status: ('A' for Active; 'I' for Inactive)
REMARK    1  A    between atoms: C_1  and  C_2
REMARK    2  A    between atoms: C_2  and  C_3
REMARK    3  A    between atoms: C_3  and  O_4
REMARK    4  A    between atoms: O_4  and  C_5
REMARK    5  A    between atoms: C_6  and  C_13
REMARK    6  A    between atoms: C_10  and  O_11
REMARK    7  A    between atoms: O_11  and  C_12
REMARK    8  A    between atoms: C_18  and  C_22
REMARK    9  A    between atoms: C_18  and  C_23
REMARK                            x       y       z     vdW  Elec       q    Type
REMARK                         _______ _______ _______ _____ _____    ______ ____
ROOT
ATOM      1  C   UNL     1      -0.653   3.246   1.854  0.00  0.00    +0.140 C 
ATOM      2  C   UNL     1      -1.502   2.573   0.803  0.00  0.00    +0.037 C 
ATOM      3  C   UNL     1      -1.122   1.549   0.013  0.00  0.00    +0.017 C 
ATOM      4  C   UNL     1      -2.080   0.955  -1.005  0.00  0.00    +0.058 C 
ATOM      5  C   UNL     1      -3.018   2.038  -1.534  0.00  0.00    -0.023 C 
ATOM      6  C   UNL     1      -3.792   2.609  -0.340  0.00  0.00    +0.086 C 
ATOM      7  C   UNL     1      -2.802   3.118   0.681  0.00  0.00    +0.163 C 
ATOM      8  O   UNL     1      -3.126   4.031   1.415  0.00  0.00    -0.292 OA
ATOM      9  C   UNL     1      -2.204   3.148  -2.203  0.00  0.00    +0.011 C 
ATOM     10  C   UNL     1      -3.995   1.431  -2.543  0.00  0.00    +0.011 C 
ATOM     11  N   UNL     1       0.099   0.957   0.061  0.00  0.00    -0.316 N 
ATOM     12  C   UNL     1       1.312   1.633   0.097  0.00  0.00    +0.052 A 
ATOM     13  C   UNL     1       2.233   1.559  -0.934  0.00  0.00    +0.025 A 
ATOM     14  C   UNL     1       3.443   2.220  -0.811  0.00  0.00    +0.002 A 
ATOM     15  C   UNL     1       3.730   2.944   0.332  0.00  0.00    +0.002 A 
ATOM     16  C   UNL     1       2.802   3.034   1.355  0.00  0.00    +0.025 A 
ATOM     17  C   UNL     1       1.581   2.393   1.225  0.00  0.00    +0.049 A 
ATOM     18  N   UNL     1       0.573   2.547   2.176  0.00  0.00    -0.331 N 
ATOM     19  H   UNL     1       0.126  -0.013   0.067  0.00  0.00    +0.152 HD
ATOM     20  H   UNL     1       0.696   2.182   3.066  0.00  0.00    +0.147 HD
ENDROOT
BRANCH   1  22
ATOM     21  C   UNL     1      -0.821   5.741   2.013  0.00  0.00    +0.167 A 
ATOM     22  C   UNL     1      -0.301   4.629   1.370  0.00  0.00    +0.023 A 
ATOM     23  C   UNL     1       0.535   4.788   0.281  0.00  0.00    +0.009 A 
ATOM     24  C   UNL     1       0.859   6.056  -0.166  0.00  0.00    +0.004 A 
ATOM     25  C   UNL     1       0.348   7.170   0.474  0.00  0.00    +0.049 A 
ATOM     26  C   UNL     1      -0.491   7.017   1.567  0.00  0.00    +0.162 A 
BRANCH  26  27
ATOM     27  O   UNL     1      -0.994   8.111   2.197  0.00  0.00    -0.491 OA
ATOM     28  C   UNL     1      -0.617   9.389   1.680  0.00  0.00    +0.277 C 
ENDBRANCH  26  27
BRANCH  21  29
ATOM     29  O   UNL     1      -1.648   5.586   3.082  0.00  0.00    -0.488 OA
BRANCH  29  30
ATOM     30  C   UNL     1      -1.037   5.530   4.372  0.00  0.00    +0.229 C 
BRANCH  30  32
ATOM     31  C   UNL     1      -1.463   5.294   6.823  0.00  0.00    +0.007 C 
ATOM     32  C   UNL     1      -2.117   5.354   5.441  0.00  0.00    +0.038 C 
ENDBRANCH  30  32
ENDBRANCH  29  30
ENDBRANCH  21  29
ENDBRANCH   1  22
TORSDOF 5
