REMARK  Name = ZINC12566041
REMARK  9 active torsions:
REMARK  status: ('A' for Active; 'I' for Inactive)
REMARK    1  A    between atoms: C_1  and  C_2
REMARK    2  A    between atoms: C_2  and  C_3
REMARK    3  A    between atoms: C_2  and  C_4
REMARK    4  A    between atoms: C_2  and  C_5
REMARK    5  A    between atoms: C_5  and  C_7
REMARK    6  A    between atoms: N_9  and  C_20
REMARK    7  A    between atoms: C_13  and  C_14
REMARK    8  A    between atoms: C_20  and  C_21
REMARK    9  A    between atoms: N_23  and  C_24
REMARK                            x       y       z     vdW  Elec       q    Type
REMARK                         _______ _______ _______ _____ _____    ______ ____
ROOT
ATOM      1  C   UNL     1       0.979   3.718   2.498  0.00  0.00    +0.080 C 
ATOM      2  C   UNL     1       0.868   4.218   1.210  0.00  0.00    +0.087 A 
ATOM      3  N   UNL     1       0.991   3.551   0.012  0.00  0.00    -0.293 N 
ATOM      4  C   UNL     1       0.857   4.204  -1.129  0.00  0.00    +0.266 A 
ATOM      5  O   UNL     1       0.968   3.627  -2.196  0.00  0.00    -0.266 OA
ATOM      6  C   UNL     1       0.572   5.601  -1.080  0.00  0.00    +0.080 A 
ATOM      7  C   UNL     1       0.387   6.482  -2.105  0.00  0.00    +0.035 C 
ATOM      8  S   UNL     1       0.529   5.890   0.683  0.00  0.00    -0.066 S 
ENDROOT
BRANCH   7   9
ATOM      9  C   UNL     1       0.117   7.842  -1.828  0.00  0.00    +0.013 A 
ATOM     10  C   UNL     1      -0.101   8.891  -2.715  0.00  0.00    +0.015 A 
ATOM     11  C   UNL     1      -0.344  10.127  -2.170  0.00  0.00    +0.008 A 
ATOM     12  C   UNL     1      -0.360  10.265  -0.818  0.00  0.00    +0.046 A 
ATOM     13  S   UNL     1      -0.041   8.659  -0.250  0.00  0.00    -0.097 S 
ENDBRANCH   7   9
BRANCH   1  14
ATOM     14  C   UNL     1       0.819   4.564   3.587  0.00  0.00    +0.164 C 
ATOM     15  O   UNL     1       0.582   5.745   3.410  0.00  0.00    -0.292 OA
BRANCH  14  17
ATOM     16  C   UNL     1       0.722   5.152   5.994  0.00  0.00    +0.019 C 
ATOM     17  C   UNL     1       0.940   4.020   4.987  0.00  0.00    +0.025 C 
ATOM     18  C   UNL     1      -0.115   2.934   5.205  0.00  0.00    +0.019 C 
ATOM     19  C   UNL     1       2.335   3.424   5.184  0.00  0.00    +0.019 C 
ENDBRANCH  14  17
ENDBRANCH   1  14
BRANCH   3  20
ATOM     20  C   UNL     1       1.278   2.115   0.001  0.00  0.00    +0.221 C 
BRANCH  20  21
ATOM     21  C   UNL     1      -0.016   1.344   0.009  0.00  0.00    +0.233 C 
ATOM     22  O   UNL     1      -1.075   1.936   0.018  0.00  0.00    -0.274 OA
ATOM     23  N   UNL     1       0.002  -0.004   0.002  0.00  0.00    -0.308 N 
ATOM     24  H   UNL     1       0.849  -0.478  -0.009  0.00  0.00    +0.149 HD
BRANCH  23  25
ATOM     25  C   UNL     1      -1.256  -0.754   0.010  0.00  0.00    +0.035 C 
ATOM     26  C   UNL     1      -2.052  -0.402   1.269  0.00  0.00    +0.029 C 
ATOM     27  C   UNL     1      -3.366  -1.185   1.277  0.00  0.00    -0.008 C 
ATOM     28  C   UNL     1      -3.066  -2.685   1.266  0.00  0.00    +0.007 C 
ATOM     29  C   UNL     1      -2.271  -3.037   0.007  0.00  0.00    -0.008 C 
ATOM     30  C   UNL     1      -0.957  -2.254  -0.001  0.00  0.00    +0.029 C 
ATOM     31  C   UNL     1      -3.090  -2.672  -1.232  0.00  0.00    +0.007 C 
ATOM     32  C   UNL     1      -3.390  -1.171  -1.221  0.00  0.00    -0.008 C 
ATOM     33  C   UNL     1      -4.185  -0.819   0.038  0.00  0.00    +0.007 C 
ATOM     34  C   UNL     1      -2.076  -0.388  -1.230  0.00  0.00    +0.029 C 
ENDBRANCH  23  25
ENDBRANCH  20  21
ENDBRANCH   3  20
TORSDOF 6
