REMARK  Name = ZINC13033363
REMARK  13 active torsions:
REMARK  status: ('A' for Active; 'I' for Inactive)
REMARK    1  A    between atoms: C_1  and  C_2
REMARK    2  A    between atoms: C_5  and  C_8
REMARK    3  A    between atoms: C_8  and  N_70
REMARK    4  A    between atoms: C_9  and  C_10
REMARK    5  A    between atoms: C_9  and  N_70
REMARK    6  A    between atoms: C_13  and  C_23
REMARK    7  A    between atoms: C_15  and  C_22
REMARK    8  A    between atoms: C_24  and  C_25
REMARK    9  A    between atoms: C_24  and  N_70
REMARK   10  A    between atoms: N_29  and  C_30
REMARK   11  A    between atoms: C_30  and  C_31
REMARK   12  A    between atoms: C_34  and  O_37
REMARK   13  A    between atoms: O_37  and  C_38
REMARK                            x       y       z     vdW  Elec       q    Type
REMARK                         _______ _______ _______ _____ _____    ______ ____
ROOT
ATOM      1  N   UNL     1       1.708  -1.843  -0.978  0.00  0.00    +0.390 N 
ATOM      2  H   UNL     1       0.991  -1.679  -1.694  0.00  0.00    -0.080 HD
ENDROOT
BRANCH   1   3
ATOM      3  C   UNL     1       3.040  -1.588  -1.566  0.00  0.00    -0.042 C 
BRANCH   3   8
ATOM      4  C   UNL     1       3.317  -4.174  -6.726  0.00  0.00    +0.044 C 
ATOM      5  C   UNL     1       3.245  -3.499  -5.380  0.00  0.00    -0.050 A 
ATOM      6  C   UNL     1       2.673  -2.246  -5.265  0.00  0.00    +0.003 A 
ATOM      7  C   UNL     1       2.607  -1.627  -4.031  0.00  0.00    +0.002 A 
ATOM      8  C   UNL     1       3.112  -2.262  -2.912  0.00  0.00    -0.064 A 
ATOM      9  C   UNL     1       3.688  -3.513  -3.028  0.00  0.00    +0.002 A 
ATOM     10  C   UNL     1       3.751  -4.134  -4.261  0.00  0.00    +0.003 A 
ENDBRANCH   3   8
ENDBRANCH   1   3
BRANCH   1  11
ATOM     11  C   UNL     1       1.619  -3.245  -0.520  0.00  0.00    -0.036 C 
BRANCH  11  12
ATOM     12  C   UNL     1       0.165  -3.611  -0.368  0.00  0.00    +0.001 A 
ATOM     13  C   UNL     1      -0.495  -4.199  -1.397  0.00  0.00    +0.017 A 
ATOM     14  C   UNL     1      -1.906  -4.546  -1.216  0.00  0.00    +0.002 A 
ATOM     15  C   UNL     1      -2.637  -5.159  -2.239  0.00  0.00    -0.041 A 
ATOM     16  C   UNL     1      -3.953  -5.466  -2.040  0.00  0.00    +0.007 A 
ATOM     17  C   UNL     1      -4.572  -5.175  -0.832  0.00  0.00    -0.048 A 
ATOM     18  C   UNL     1      -3.871  -4.571   0.190  0.00  0.00    +0.029 A 
ATOM     19  C   UNL     1      -2.529  -4.250   0.010  0.00  0.00    +0.050 A 
ATOM     20  N   UNL     1      -1.804  -3.646   1.016  0.00  0.00    -0.322 N 
ATOM     21  H   UNL     1      -2.236  -3.442   1.860  0.00  0.00    +0.169 HD
ATOM     22  C   UNL     1      -0.508  -3.335   0.842  0.00  0.00    +0.251 A 
ATOM     23  O   UNL     1       0.103  -2.802   1.752  0.00  0.00    -0.268 OA
ATOM     24  C   UNL     1      -6.025  -5.523  -0.635  0.00  0.00    +0.044 C 
ATOM     25  C   UNL     1      -1.976  -5.478  -3.555  0.00  0.00    +0.044 C 
ENDBRANCH  11  12
ENDBRANCH   1  11
BRANCH   1  26
ATOM     26  C   UNL     1       1.473  -0.925   0.157  0.00  0.00    +0.001 C 
BRANCH  26  27
ATOM     27  C   UNL     1       1.423   0.489  -0.363  0.00  0.00    +0.135 A 
ATOM     28  N   UNL     1       2.444   1.285  -0.565  0.00  0.00    -0.115 NA
ATOM     29  N   UNL     1       1.993   2.406  -1.012  0.00  0.00    -0.023 NA
ATOM     30  N   UNL     1       0.710   2.345  -1.102  0.00  0.00    -0.044 NA
ATOM     31  N   UNL     1       0.321   1.179  -0.711  0.00  0.00    -0.227 N 
BRANCH  31  32
ATOM     32  C   UNL     1      -1.061   0.697  -0.655  0.00  0.00    +0.182 C 
BRANCH  32  33
ATOM     33  C   UNL     1      -1.478   0.209  -2.018  0.00  0.00    -0.026 A 
ATOM     34  C   UNL     1      -1.979   1.102  -2.948  0.00  0.00    +0.009 A 
ATOM     35  C   UNL     1      -2.357   0.658  -4.200  0.00  0.00    +0.046 A 
ATOM     36  C   UNL     1      -2.244  -0.687  -4.521  0.00  0.00    +0.120 A 
ATOM     37  C   UNL     1      -1.747  -1.582  -3.585  0.00  0.00    +0.046 A 
ATOM     38  C   UNL     1      -1.365  -1.132  -2.336  0.00  0.00    +0.009 A 
BRANCH  36  39
ATOM     39  O   UNL     1      -2.620  -1.127  -5.751  0.00  0.00    -0.495 OA
ATOM     40  C   UNL     1      -3.123  -0.149  -6.664  0.00  0.00    +0.277 C 
ENDBRANCH  36  39
ENDBRANCH  32  33
ENDBRANCH  31  32
ENDBRANCH  26  27
ENDBRANCH   1  26
TORSDOF 9
