REMARK  Name = ZINC12922522
REMARK  9 active torsions:
REMARK  status: ('A' for Active; 'I' for Inactive)
REMARK    1  A    between atoms: C_1  and  C_2
REMARK    2  A    between atoms: C_2  and  C_3
REMARK    3  A    between atoms: C_6  and  C_9
REMARK    4  A    between atoms: C_11  and  C_14
REMARK    5  A    between atoms: C_14  and  C_15
REMARK    6  A    between atoms: N_17  and  C_18
REMARK    7  A    between atoms: C_18  and  C_24
REMARK    8  A    between atoms: C_24  and  O_26
REMARK    9  A    between atoms: O_26  and  C_27
REMARK                            x       y       z     vdW  Elec       q    Type
REMARK                         _______ _______ _______ _____ _____    ______ ____
ROOT
ATOM      1  C   UNL     1      -1.352   5.211   2.303  0.00  0.00    +0.151 C 
ENDROOT
BRANCH   1   4
ATOM      2  C   UNL     1      -3.916   5.695   4.896  0.00  0.00    +0.109 A 
ATOM      3  N   UNL     1      -3.273   5.284   3.812  0.00  0.00    -0.243 NA
ATOM      4  C   UNL     1      -2.058   5.697   3.543  0.00  0.00    +0.058 A 
ATOM      5  C   UNL     1      -1.433   6.561   4.388  0.00  0.00    +0.071 A 
ATOM      6  S   UNL     1      -2.700   6.781   5.631  0.00  0.00    -0.075 S 
BRANCH   2  10
ATOM      7  C   UNL     1      -7.816   4.703   6.257  0.00  0.00    -0.048 A 
ATOM      8  C   UNL     1      -7.032   5.576   6.990  0.00  0.00    +0.004 A 
ATOM      9  C   UNL     1      -5.765   5.902   6.553  0.00  0.00    +0.011 A 
ATOM     10  C   UNL     1      -5.274   5.350   5.370  0.00  0.00    +0.007 A 
ATOM     11  C   UNL     1      -6.072   4.475   4.632  0.00  0.00    +0.011 A 
ATOM     12  C   UNL     1      -7.335   4.152   5.082  0.00  0.00    +0.004 A 
BRANCH   7  14
ATOM     13  C   UNL     1     -10.210   5.344   6.159  0.00  0.00    +0.009 C 
ATOM     14  C   UNL     1      -9.200   4.352   6.739  0.00  0.00    +0.032 C 
ENDBRANCH   7  14
ENDBRANCH   2  10
ENDBRANCH   1   4
BRANCH   1  15
ATOM     15  C   UNL     1      -1.332   3.704   2.295  0.00  0.00    +0.220 C 
ATOM     16  O   UNL     1      -1.840   3.086   3.206  0.00  0.00    -0.275 OA
ATOM     17  N   UNL     1      -0.749   3.044   1.275  0.00  0.00    -0.300 N 
ATOM     18  H   UNL     1      -0.342   3.539   0.546  0.00  0.00    +0.150 HD
BRANCH  17  19
ATOM     19  C   UNL     1      -0.729   1.579   1.267  0.00  0.00    +0.132 C 
ATOM     20  C   UNL     1      -0.013   1.086   0.008  0.00  0.00    +0.037 C 
ATOM     21  C   UNL     1      -0.753   1.593  -1.232  0.00  0.00    +0.003 C 
ATOM     22  C   UNL     1      -2.188   1.063  -1.221  0.00  0.00    +0.000 C 
ATOM     23  C   UNL     1      -2.904   1.556   0.038  0.00  0.00    +0.003 C 
ATOM     24  C   UNL     1      -2.164   1.050   1.278  0.00  0.00    +0.037 C 
BRANCH  19  25
ATOM     25  C   UNL     1       0.000   1.080   2.488  0.00  0.00    +0.331 C 
ATOM     26  O   UNL     1       0.675   0.080   2.422  0.00  0.00    -0.248 OA
BRANCH  25  27
ATOM     27  O   UNL     1      -0.100   1.746   3.649  0.00  0.00    -0.466 OA
ATOM     28  C   UNL     1       0.629   1.208   4.783  0.00  0.00    +0.280 C 
ENDBRANCH  25  27
ENDBRANCH  19  25
ENDBRANCH  17  19
ENDBRANCH   1  15
TORSDOF 7
