REMARK  Name = ZINC04100228
REMARK  7 active torsions:
REMARK  status: ('A' for Active; 'I' for Inactive)
REMARK    1  A    between atoms: C_1  and  C_2
REMARK    2  A    between atoms: C_2  and  C_17
REMARK    3  A    between atoms: N_3  and  N_4
REMARK    4  A    between atoms: C_5  and  S_7
REMARK    5  A    between atoms: S_7  and  C_8
REMARK    6  A    between atoms: C_10  and  O_16
REMARK    7  A    between atoms: C_13  and  O_14
REMARK                            x       y       z     vdW  Elec       q    Type
REMARK                         _______ _______ _______ _____ _____    ______ ____
ROOT
ATOM      1  C   UNL     1      -3.854   2.481   0.185  0.00  0.00    +0.062 A 
ATOM      2  C   UNL     1      -4.405   2.773   1.424  0.00  0.00    +0.065 A 
ATOM      3  C   UNL     1      -5.304   3.821   1.551  0.00  0.00    +0.136 A 
ATOM      4  C   UNL     1      -5.659   4.571   0.438  0.00  0.00    +0.086 A 
ATOM      5  C   UNL     1      -5.114   4.278  -0.799  0.00  0.00    +0.070 A 
ATOM      6  C   UNL     1      -4.212   3.235  -0.930  0.00  0.00    +0.132 A 
ATOM      7 CL   UNL     1      -6.789   5.879   0.599  0.00  0.00    -0.080 Cl
ENDROOT
BRANCH   6   8
ATOM      8  O   UNL     1      -3.676   2.947  -2.147  0.00  0.00    -0.506 OA
ATOM      9  H   UNL     1      -4.188   2.307  -2.661  0.00  0.00    +0.292 HD
ENDBRANCH   6   8
BRANCH   3  10
ATOM     10  O   UNL     1      -5.841   4.112   2.766  0.00  0.00    -0.505 OA
ATOM     11  H   UNL     1      -6.664   3.639   2.955  0.00  0.00    +0.292 HD
ENDBRANCH   3  10
BRANCH   1  12
ATOM     12  S   UNL     1      -2.707   1.153   0.021  0.00  0.00    -0.026 S 
BRANCH  12  14
ATOM     13  N   UNL     1      -0.044   1.418  -0.349  0.00  0.00    -0.198 N 
ATOM     14  C   UNL     1      -1.202   2.062  -0.102  0.00  0.00    +0.296 C 
ATOM     15  O   UNL     1      -1.209   3.270   0.036  0.00  0.00    -0.261 OA
ATOM     16  H   UNL     1       0.783   1.918  -0.421  0.00  0.00    +0.178 HD
BRANCH  13  19
ATOM     17  C   UNL     1       2.348   0.192  -0.859  0.00  0.00    +0.062 C 
ATOM     18  C   UNL     1       1.062  -0.585  -0.748  0.00  0.00    +0.031 C 
ATOM     19  N   UNL     1      -0.037   0.026  -0.508  0.00  0.00    -0.189 NA
ATOM     20  C   UNL     1       1.069  -2.083  -0.918  0.00  0.00    +0.062 C 
ENDBRANCH  13  19
ENDBRANCH  12  14
ENDBRANCH   1  12
TORSDOF 5
