REMARK  Name = ZINC36221585
REMARK  3 active torsions:
REMARK  status: ('A' for Active; 'I' for Inactive)
REMARK    1  A    between atoms: C_1  and  C_2
REMARK    2  A    between atoms: C_15  and  N_18
REMARK    3  A    between atoms: N_18  and  N_19
REMARK                            x       y       z     vdW  Elec       q    Type
REMARK                         _______ _______ _______ _____ _____    ______ ____
ROOT
ATOM      1  C   UNL     1      -0.019   1.526   0.010  0.00  0.00    +0.029 C 
ATOM      2  C   UNL     1       0.002  -0.004   0.002  0.00  0.00    +0.082 C 
ATOM      3  C   UNL     1       0.778  -0.520  -1.221  0.00  0.00    +0.059 C 
ATOM      4  C   UNL     1       1.931  -1.304  -0.636  0.00  0.00    -0.024 A 
ATOM      5  C   UNL     1       2.960  -1.995  -1.247  0.00  0.00    +0.005 A 
ATOM      6  C   UNL     1       3.912  -2.643  -0.482  0.00  0.00    +0.000 A 
ATOM      7  C   UNL     1       3.832  -2.599   0.898  0.00  0.00    +0.002 A 
ATOM      8  C   UNL     1       2.808  -1.911   1.512  0.00  0.00    +0.024 A 
ATOM      9  C   UNL     1       1.843  -1.253   0.747  0.00  0.00    +0.039 A 
ATOM     10  N   UNL     1       0.735  -0.509   1.166  0.00  0.00    -0.282 N 
ATOM     11  C   UNL     1       0.381  -0.280   2.494  0.00  0.00    +0.126 A 
ATOM     12  C   UNL     1      -0.806   0.385   2.784  0.00  0.00    +0.046 A 
ATOM     13  C   UNL     1      -1.149   0.607   4.105  0.00  0.00    +0.029 A 
ATOM     14  C   UNL     1      -0.286   0.151   5.101  0.00  0.00    +0.059 A 
ATOM     15  C   UNL     1       0.880  -0.504   4.737  0.00  0.00    +0.137 A 
ATOM     16  N   UNL     1       1.174  -0.703   3.465  0.00  0.00    -0.238 NA
ENDROOT
BRANCH  14  17
ATOM     17  N   UNL     1      -0.592   0.354   6.452  0.00  0.00    -0.282 N 
ATOM     18  H   UNL     1      -1.410   0.814   6.700  0.00  0.00    +0.166 HD
BRANCH  17  19
ATOM     19  N   UNL     1       0.259  -0.095   7.420  0.00  0.00    -0.256 NA
ATOM     20  H   UNL     1       1.187   0.281   7.290  0.00  0.00    +0.140 HD
ATOM     21  H   UNL     1      -0.092   0.122   8.341  0.00  0.00    +0.140 HD
ENDBRANCH  17  19
ENDBRANCH  14  17
TORSDOF 2
