REMARK  Name = ZINC63514869
REMARK  7 active torsions:
REMARK  status: ('A' for Active; 'I' for Inactive)
REMARK    1  A    between atoms: C_1  and  C_2
REMARK    2  A    between atoms: C_4  and  C_13
REMARK    3  A    between atoms: C_13  and  C_14
REMARK    4  A    between atoms: C_14  and  N_15
REMARK    5  A    between atoms: C_16  and  C_18
REMARK    6  A    between atoms: C_25  and  O_30
REMARK    7  A    between atoms: O_30  and  C_31
REMARK                            x       y       z     vdW  Elec       q    Type
REMARK                         _______ _______ _______ _____ _____    ______ ____
ROOT
ATOM      1  N   UNL     1      -4.819  -0.826  -1.544  0.00  0.00    -0.314 N 
ATOM      2  C   UNL     1      -6.036  -1.379  -1.371  0.00  0.00    +0.227 C 
ATOM      3  O   UNL     1      -6.258  -2.061  -0.393  0.00  0.00    -0.275 OA
ATOM      4  H   UNL     1      -4.641  -0.280  -2.326  0.00  0.00    +0.149 HD
ENDROOT
BRANCH   2   5
ATOM      5  C   UNL     1      -7.120  -1.149  -2.392  0.00  0.00    +0.188 C 
ATOM      6  C   UNL     1      -8.391  -1.898  -1.979  0.00  0.00    +0.063 C 
ATOM      7  C   UNL     1      -8.226  -3.373  -2.247  0.00  0.00    -0.000 A 
ATOM      8  C   UNL     1      -9.051  -4.263  -1.574  0.00  0.00    +0.007 A 
ATOM      9  C   UNL     1      -8.942  -5.621  -1.792  0.00  0.00    +0.004 A 
ATOM     10  C   UNL     1      -8.007  -6.106  -2.689  0.00  0.00    +0.049 A 
ATOM     11  C   UNL     1      -7.178  -5.225  -3.363  0.00  0.00    +0.162 A 
ATOM     12  C   UNL     1      -7.285  -3.852  -3.138  0.00  0.00    +0.176 A 
ATOM     13  O   UNL     1      -6.439  -3.020  -3.805  0.00  0.00    -0.421 OA
ATOM     14  C   UNL     1      -6.683  -1.695  -3.737  0.00  0.00    +0.325 C 
ATOM     15  O   UNL     1      -6.562  -0.977  -4.702  0.00  0.00    -0.250 OA
BRANCH  11  16
ATOM     16  O   UNL     1      -6.258  -5.699  -4.245  0.00  0.00    -0.491 OA
ATOM     17  C   UNL     1      -6.203  -7.115  -4.426  0.00  0.00    +0.277 C 
ENDBRANCH  11  16
ENDBRANCH   2   5
BRANCH   1  18
ATOM     18  C   UNL     1      -3.765  -1.048  -0.551  0.00  0.00    +0.108 C 
BRANCH  18  19
ATOM     19  C   UNL     1      -2.494  -0.316  -0.984  0.00  0.00    +0.052 C 
BRANCH  19  22
ATOM     20  C   UNL     1      -0.019   1.526   0.010  0.00  0.00    +0.035 C 
ATOM     21  C   UNL     1       0.002  -0.004   0.002  0.00  0.00    +0.103 C 
ATOM     22  C   UNL     1      -1.410  -0.545   0.038  0.00  0.00    -0.037 C 
ATOM     23  C   UNL     1      -1.503  -1.275   1.172  0.00  0.00    +0.002 A 
ATOM     24  C   UNL     1      -2.599  -2.045   1.771  0.00  0.00    +0.048 A 
ATOM     25  C   UNL     1      -2.387  -2.687   2.945  0.00  0.00    +0.124 A 
ATOM     26  C   UNL     1      -1.146  -2.633   3.600  0.00  0.00    +0.040 A 
ATOM     27  C   UNL     1      -0.093  -1.946   3.110  0.00  0.00    +0.029 A 
ATOM     28  C   UNL     1      -0.205  -1.235   1.884  0.00  0.00    +0.043 A 
ATOM     29  N   UNL     1       0.658  -0.508   1.214  0.00  0.00    -0.378 N 
ATOM     30  F   UNL     1      -3.394  -3.396   3.499  0.00  0.00    -0.205 F 
ATOM     31  H   UNL     1       1.576  -0.333   1.475  0.00  0.00    +0.160 HD
ENDBRANCH  19  22
ENDBRANCH  18  19
ENDBRANCH   1  18
TORSDOF 5
