REMARK  Name = ZINC45667482
REMARK  3 active torsions:
REMARK  status: ('A' for Active; 'I' for Inactive)
REMARK    1  A    between atoms: C_7  and  N_10
REMARK    2  A    between atoms: N_13  and  C_14
REMARK    3  A    between atoms: C_14  and  C_15
REMARK                            x       y       z     vdW  Elec       q    Type
REMARK                         _______ _______ _______ _____ _____    ______ ____
ROOT
ATOM      1  N   UNL     1       0.055  -1.884  -1.568  0.00  0.00    -0.288 N 
ATOM      2  C   UNL     1      -0.008  -2.360  -2.828  0.00  0.00    +0.300 C 
ATOM      3  O   UNL     1       0.356  -1.667  -3.758  0.00  0.00    -0.253 OA
ATOM      4  N   UNL     1      -0.473  -3.604  -3.055  0.00  0.00    -0.299 N 
ATOM      5  H   UNL     1      -0.235  -2.437  -0.826  0.00  0.00    +0.151 HD
ATOM      6  H   UNL     1      -0.763  -4.157  -2.313  0.00  0.00    +0.150 HD
ENDROOT
BRANCH   1  13
ATOM      7  C   UNL     1      -0.018   1.514   0.010  0.00  0.00    +0.004 C 
ATOM      8  C   UNL     1       1.362   2.145   0.001  0.00  0.00    +0.019 C 
ATOM      9  C   UNL     1       2.077   1.871  -1.324  0.00  0.00    +0.104 C 
ATOM     10  N   UNL     1       2.768   0.575  -1.227  0.00  0.00    -0.314 N 
ATOM     11  C   UNL     1       2.071  -0.562  -1.227  0.00  0.00    +0.233 C 
ATOM     12  O   UNL     1       2.651  -1.625  -1.152  0.00  0.00    -0.274 OA
ATOM     13  C   UNL     1       0.560  -0.531  -1.321  0.00  0.00    +0.160 C 
ATOM     14  C   UNL     1       0.002  -0.004   0.002  0.00  0.00    +0.032 C 
ATOM     15  H   UNL     1       3.735   0.548  -1.162  0.00  0.00    +0.149 HD
ENDBRANCH   1  13
BRANCH   4  16
ATOM     16  C   UNL     1      -0.541  -4.122  -4.424  0.00  0.00    +0.109 C 
BRANCH  16  17
ATOM     17  C   UNL     1      -1.101  -5.546  -4.404  0.00  0.00    +0.006 C 
ATOM     18  C   UNL     1      -0.094  -6.500  -3.729  0.00  0.00    +0.005 C 
ATOM     19  C   UNL     1      -0.214  -7.814  -4.541  0.00  0.00    +0.000 C 
ATOM     20  C   UNL     1      -0.400  -7.303  -5.992  0.00  0.00    +0.000 C 
ATOM     21  C   UNL     1      -1.296  -6.056  -5.842  0.00  0.00    +0.005 C 
ENDBRANCH  16  17
ENDBRANCH   4  16
TORSDOF 3
