REMARK  Name = ZINC13124046
REMARK  7 active torsions:
REMARK  status: ('A' for Active; 'I' for Inactive)
REMARK    1  A    between atoms: C_1  and  C_2
REMARK    2  A    between atoms: C_3  and  C_8
REMARK    3  A    between atoms: N_5  and  C_7
REMARK    4  A    between atoms: C_8  and  N_9
REMARK    5  A    between atoms: C_10  and  C_12
REMARK    6  A    between atoms: C_18  and  C_27
REMARK    7  A    between atoms: C_21  and  C_23
REMARK                            x       y       z     vdW  Elec       q    Type
REMARK                         _______ _______ _______ _____ _____    ______ ____
ROOT
ATOM      1  C   UNL     1       2.931   0.922  -4.601  0.00  0.00    +0.096 A 
ATOM      2  C   UNL     1       4.096   0.877  -3.794  0.00  0.00    +0.149 A 
ATOM      3  N   UNL     1       5.101   1.316  -4.503  0.00  0.00    -0.177 NA
ATOM      4  N   UNL     1       4.650   1.658  -5.776  0.00  0.00    -0.238 N 
ATOM      5  C   UNL     1       3.320   1.411  -5.834  0.00  0.00    +0.130 A 
ATOM      6  N   UNL     1       2.561   1.642  -6.968  0.00  0.00    -0.322 N 
ATOM      7  C   UNL     1       3.204   2.437  -8.032  0.00  0.00    +0.104 C 
ATOM      8  C   UNL     1       4.647   1.947  -8.199  0.00  0.00    +0.063 C 
ATOM      9  C   UNL     1       5.427   2.190  -6.900  0.00  0.00    +0.215 C 
ATOM     10  H   UNL     1       1.657   1.301  -7.058  0.00  0.00    +0.148 HD
ENDROOT
BRANCH   7  11
ATOM     11  C   UNL     1       3.201   3.894  -7.648  0.00  0.00    -0.027 A 
ATOM     12  C   UNL     1       3.462   4.265  -6.342  0.00  0.00    +0.006 A 
ATOM     13  C   UNL     1       3.460   5.602  -5.990  0.00  0.00    +0.015 A 
ATOM     14  C   UNL     1       3.197   6.568  -6.944  0.00  0.00    +0.018 A 
ATOM     15  C   UNL     1       2.935   6.196  -8.250  0.00  0.00    +0.015 A 
ATOM     16  C   UNL     1       2.943   4.860  -8.603  0.00  0.00    +0.006 A 
ATOM     17 BR   UNL     1       3.193   8.396  -6.462  0.00  0.00    -0.050 Br
ENDBRANCH   7  11
BRANCH   1  19
ATOM     18  N   UNL     1       1.347   0.058  -2.960  0.00  0.00    -0.307 N 
ATOM     19  C   UNL     1       1.576   0.520  -4.206  0.00  0.00    +0.249 C 
ATOM     20  O   UNL     1       0.660   0.604  -5.002  0.00  0.00    -0.270 OA
ATOM     21  H   UNL     1       2.077  -0.009  -2.325  0.00  0.00    +0.149 HD
BRANCH  18  22
ATOM     22  C   UNL     1      -0.006  -0.343  -2.566  0.00  0.00    +0.143 C 
BRANCH  22  25
ATOM     23  C   UNL     1      -0.018   1.503   0.010  0.00  0.00    +0.068 C 
ATOM     24  C   UNL     1       0.002  -0.004   0.002  0.00  0.00    +0.065 A 
ATOM     25  C   UNL     1       0.008  -0.818  -1.135  0.00  0.00    +0.010 A 
ATOM     26  C   UNL     1       0.028  -2.107  -0.725  0.00  0.00    +0.113 A 
ATOM     27  N   UNL     1       0.034  -2.109   0.625  0.00  0.00    -0.274 N 
ATOM     28  N   UNL     1       0.023  -0.777   1.058  0.00  0.00    -0.176 NA
ATOM     29  C   UNL     1       0.055  -3.295   1.485  0.00  0.00    +0.172 C 
ENDBRANCH  22  25
ENDBRANCH  18  22
ENDBRANCH   1  19
BRANCH   9  30
ATOM     30  C   UNL     1       6.773   1.466  -6.980  0.00  0.00    +0.412 C 
ATOM     31  F   UNL     1       6.555   0.098  -7.172  0.00  0.00    -0.168 F 
ATOM     32  F   UNL     1       7.513   1.975  -8.053  0.00  0.00    -0.168 F 
ATOM     33  F   UNL     1       7.481   1.664  -5.790  0.00  0.00    -0.168 F 
ENDBRANCH   9  30
TORSDOF 5
