REMARK  Name = ZINC01774541
REMARK  11 active torsions:
REMARK  status: ('A' for Active; 'I' for Inactive)
REMARK    1  A    between atoms: C_1  and  C_2
REMARK    2  A    between atoms: C_2  and  C_4
REMARK    3  A    between atoms: C_2  and  N_12
REMARK    4  A    between atoms: C_4  and  C_5
REMARK    5  A    between atoms: C_5  and  C_6
REMARK    6  A    between atoms: C_13  and  C_15
REMARK    7  A    between atoms: C_15  and  S_16
REMARK    8  A    between atoms: S_16  and  C_17
REMARK    9  A    between atoms: N_33  and  C_34
REMARK   10  A    between atoms: C_34  and  C_35
REMARK   11  A    between atoms: C_35  and  C_36
REMARK                            x       y       z     vdW  Elec       q    Type
REMARK                         _______ _______ _______ _____ _____    ______ ____
ROOT
ATOM      1  C   UNL     1       5.268  -1.731   3.564  0.00  0.00    +0.198 A 
ATOM      2  N   UNL     1       4.604  -2.066   4.644  0.00  0.00    -0.120 NA
ATOM      3  N   UNL     1       5.529  -2.488   5.607  0.00  0.00    -0.109 NA
ATOM      4  C   UNL     1       6.730  -2.398   5.087  0.00  0.00    +0.240 A 
ATOM      5  N   UNL     1       6.601  -1.932   3.805  0.00  0.00    -0.249 N 
ATOM      6  C   UNL     1       7.718  -1.747   3.017  0.00  0.00    +0.102 A 
ATOM      7  C   UNL     1       8.996  -2.025   3.485  0.00  0.00    +0.074 A 
ATOM      8  C   UNL     1      10.083  -1.781   2.535  0.00  0.00    -0.023 A 
ATOM      9  C   UNL     1       9.690  -1.318   1.331  0.00  0.00    -0.004 A 
ATOM     10  S   UNL     1       7.929  -1.206   1.449  0.00  0.00    -0.074 S 
ATOM     11  C   UNL     1      10.568  -0.978   0.167  0.00  0.00    +0.043 C 
ATOM     12  C   UNL     1      12.016  -0.879   0.668  0.00  0.00    +0.005 C 
ATOM     13  C   UNL     1      12.327  -2.104   1.532  0.00  0.00    +0.005 C 
ATOM     14  C   UNL     1      11.552  -2.023   2.849  0.00  0.00    +0.037 C 
ATOM     15  C   UNL     1       9.096  -2.528   4.874  0.00  0.00    +0.264 A 
ATOM     16  O   UNL     1      10.184  -2.792   5.352  0.00  0.00    -0.267 OA
ATOM     17  N   UNL     1       7.981  -2.686   5.607  0.00  0.00    -0.276 N 
ENDROOT
BRANCH   1  18
ATOM     18  S   UNL     1       4.566  -1.134   2.062  0.00  0.00    -0.076 S 
BRANCH  18  19
ATOM     19  C   UNL     1       2.783  -1.099   2.395  0.00  0.00    +0.173 C 
BRANCH  19  21
ATOM     20  N   UNL     1       0.711  -0.489   1.189  0.00  0.00    -0.312 N 
ATOM     21  C   UNL     1       2.054  -0.600   1.174  0.00  0.00    +0.224 C 
ATOM     22  O   UNL     1       2.676  -0.297   0.177  0.00  0.00    -0.275 OA
ATOM     23  H   UNL     1       0.213  -0.731   1.986  0.00  0.00    +0.149 HD
BRANCH  20  25
ATOM     24  C   UNL     1      -0.019   1.526   0.010  0.00  0.00    +0.028 C 
ATOM     25  C   UNL     1       0.002  -0.004   0.002  0.00  0.00    +0.070 C 
BRANCH  25  26
ATOM     26  C   UNL     1      -1.433  -0.534   0.013  0.00  0.00    +0.026 C 
BRANCH  26  27
ATOM     27  C   UNL     1      -1.416  -2.058  -0.121  0.00  0.00    +0.037 C 
BRANCH  27  28
ATOM     28  C   UNL     1      -2.829  -2.579  -0.111  0.00  0.00    -0.047 A 
ATOM     29  C   UNL     1      -3.432  -2.917   1.087  0.00  0.00    +0.003 A 
ATOM     30  C   UNL     1      -4.729  -3.396   1.096  0.00  0.00    +0.000 A 
ATOM     31  C   UNL     1      -5.423  -3.536  -0.091  0.00  0.00    +0.000 A 
ATOM     32  C   UNL     1      -4.821  -3.197  -1.288  0.00  0.00    +0.000 A 
ATOM     33  C   UNL     1      -3.525  -2.714  -1.297  0.00  0.00    +0.003 A 
ENDBRANCH  27  28
ENDBRANCH  26  27
ENDBRANCH  25  26
ENDBRANCH  20  25
ENDBRANCH  19  21
ENDBRANCH  18  19
ENDBRANCH   1  18
BRANCH  17  34
ATOM     34  C   UNL     1       8.089  -3.187   6.979  0.00  0.00    +0.133 C 
BRANCH  34  35
ATOM     35  C   UNL     1       8.017  -4.715   6.971  0.00  0.00    +0.057 C 
BRANCH  35  36
ATOM     36  C   UNL     1       8.129  -5.230   8.383  0.00  0.00    -0.046 A 
ATOM     37  C   UNL     1       9.371  -5.517   8.918  0.00  0.00    +0.004 A 
ATOM     38  C   UNL     1       9.473  -5.990  10.213  0.00  0.00    +0.000 A 
ATOM     39  C   UNL     1       8.334  -6.175  10.973  0.00  0.00    +0.000 A 
ATOM     40  C   UNL     1       7.092  -5.888  10.439  0.00  0.00    +0.000 A 
ATOM     41  C   UNL     1       6.990  -5.411   9.145  0.00  0.00    +0.004 A 
ENDBRANCH  35  36
ENDBRANCH  34  35
ENDBRANCH  17  34
TORSDOF 10
