REMARK  Name = ZINC35144248
REMARK  10 active torsions:
REMARK  status: ('A' for Active; 'I' for Inactive)
REMARK    1  A    between atoms: C_1  and  C_2
REMARK    2  A    between atoms: N_8  and  C_9
REMARK    3  A    between atoms: C_9  and  C_10
REMARK    4  A    between atoms: C_10  and  C_11
REMARK    5  A    between atoms: C_11  and  N_12
REMARK    6  A    between atoms: C_13  and  C_15
REMARK    7  A    between atoms: C_15  and  C_17
REMARK    8  A    between atoms: C_15  and  S_18
REMARK    9  A    between atoms: S_18  and  C_19
REMARK   10  A    between atoms: N_29  and  C_30
REMARK                            x       y       z     vdW  Elec       q    Type
REMARK                         _______ _______ _______ _____ _____    ______ ____
ROOT
ATOM      1  S   UNL     1       0.774   1.104  10.765  0.00  0.00    -0.075 S 
ENDROOT
BRANCH   1   2
ATOM      2  C   UNL     1       1.535  -0.242  11.610  0.00  0.00    +0.177 A 
ATOM      3  N   UNL     1       2.791  -0.511  11.351  0.00  0.00    -0.223 NA
ATOM      4  C   UNL     1       3.437  -1.531  11.965  0.00  0.00    +0.079 A 
ATOM      5  C   UNL     1       4.777  -1.820  11.691  0.00  0.00    +0.028 A 
ATOM      6  C   UNL     1       5.389  -2.859  12.334  0.00  0.00    +0.002 A 
ATOM      7  C   UNL     1       4.699  -3.634  13.258  0.00  0.00    +0.001 A 
ATOM      8  C   UNL     1       3.388  -3.376  13.546  0.00  0.00    +0.015 A 
ATOM      9  C   UNL     1       2.738  -2.322  12.905  0.00  0.00    +0.065 A 
ATOM     10  C   UNL     1       1.331  -1.998  13.176  0.00  0.00    +0.267 A 
ATOM     11  O   UNL     1       0.678  -2.643  13.976  0.00  0.00    -0.267 OA
ATOM     12  N   UNL     1       0.789  -0.953  12.508  0.00  0.00    -0.255 N 
BRANCH  12  13
ATOM     13  C   UNL     1      -0.547  -0.601  12.736  0.00  0.00    +0.055 A 
ATOM     14  C   UNL     1      -0.865   0.321  13.725  0.00  0.00    +0.026 A 
ATOM     15  C   UNL     1      -2.184   0.667  13.948  0.00  0.00    +0.005 A 
ATOM     16  C   UNL     1      -3.188   0.097  13.187  0.00  0.00    +0.038 A 
ATOM     17  C   UNL     1      -2.875  -0.823  12.200  0.00  0.00    +0.125 A 
ATOM     18  C   UNL     1      -1.556  -1.168  11.969  0.00  0.00    +0.064 A 
ATOM     19  F   UNL     1      -3.858  -1.379  11.459  0.00  0.00    -0.205 F 
ENDBRANCH  12  13
ENDBRANCH   1   2
BRANCH   1  20
ATOM     20  C   UNL     1       2.089   1.752   9.696  0.00  0.00    +0.137 C 
ATOM     21  C   UNL     1       3.216   2.319  10.561  0.00  0.00    +0.029 C 
BRANCH  20  23
ATOM     22  N   UNL     1       2.120   3.125   7.639  0.00  0.00    -0.314 N 
ATOM     23  C   UNL     1       1.532   2.842   8.818  0.00  0.00    +0.226 C 
ATOM     24  O   UNL     1       0.554   3.466   9.173  0.00  0.00    -0.275 OA
ATOM     25  H   UNL     1       2.902   2.626   7.355  0.00  0.00    +0.149 HD
BRANCH  22  26
ATOM     26  C   UNL     1       1.578   4.185   6.786  0.00  0.00    +0.102 C 
BRANCH  26  27
ATOM     27  C   UNL     1       2.424   4.301   5.516  0.00  0.00    +0.000 C 
BRANCH  27  28
ATOM     28  C   UNL     1       1.858   5.408   4.625  0.00  0.00    -0.077 C 
BRANCH  28  35
ATOM     29  C   UNL     1       2.255   7.931   3.457  0.00  0.00    -0.013 C 
ATOM     30  C   UNL     1       2.201   6.659   2.609  0.00  0.00    -0.072 C 
ATOM     31  C   UNL     1       3.095   6.828   1.379  0.00  0.00    -0.016 C 
ATOM     32  C   UNL     1       3.038   5.553   0.533  0.00  0.00    -0.003 C 
ATOM     33  C   UNL     1       3.458   4.360   1.397  0.00  0.00    -0.019 C 
ATOM     34  C   UNL     1       2.550   4.282   2.626  0.00  0.00    -0.078 C 
ATOM     35  N   UNL     1       2.670   5.519   3.406  0.00  0.00    +0.381 N 
ATOM     36  H   UNL     1       3.636   5.663   3.660  0.00  0.00    -0.081 HD
ENDBRANCH  28  35
ENDBRANCH  27  28
ENDBRANCH  26  27
ENDBRANCH  22  26
ENDBRANCH  20  23
ENDBRANCH   1  20
TORSDOF 8
