REMARK  Name = ZINC50017610
REMARK  5 active torsions:
REMARK  status: ('A' for Active; 'I' for Inactive)
REMARK    1  A    between atoms: C_1  and  C_2
REMARK    2  A    between atoms: C_3  and  N_20
REMARK    3  A    between atoms: C_4  and  C_18
REMARK    4  A    between atoms: C_6  and  C_7
REMARK    5  A    between atoms: C_12  and  N_13
REMARK                            x       y       z     vdW  Elec       q    Type
REMARK                         _______ _______ _______ _____ _____    ______ ____
ROOT
ATOM      1  C   UNL     1      -1.719   0.835   0.428  0.00  0.00    +0.047 C 
ATOM      2  C   UNL     1      -0.743  -0.287   0.181  0.00  0.00    -0.014 A 
ATOM      3  C   UNL     1      -0.687  -0.909  -1.043  0.00  0.00    +0.053 A 
ATOM      4  C   UNL     1       0.234  -1.941  -1.219  0.00  0.00    +0.110 A 
ATOM      5  S   UNL     1       1.022  -2.018   0.381  0.00  0.00    -0.076 S 
ATOM      6  C   UNL     1       0.116  -0.705   1.180  0.00  0.00    +0.028 A 
ENDROOT
BRANCH   6   7
ATOM      7  C   UNL     1       0.248  -0.195   2.561  0.00  0.00    +0.022 A 
ATOM      8  C   UNL     1       1.033   0.930   2.820  0.00  0.00    +0.052 A 
ATOM      9  C   UNL     1       1.153   1.401   4.112  0.00  0.00    +0.159 A 
ATOM     10  C   UNL     1       0.495   0.758   5.152  0.00  0.00    +0.161 A 
ATOM     11  C   UNL     1      -0.284  -0.359   4.898  0.00  0.00    +0.074 A 
ATOM     12  C   UNL     1      -0.416  -0.834   3.610  0.00  0.00    +0.137 A 
ATOM     13  F   UNL     1       0.616   1.222   6.415  0.00  0.00    -0.202 F 
ATOM     14  F   UNL     1       1.912   2.490   4.366  0.00  0.00    -0.202 F 
BRANCH  12  15
ATOM     15  N   UNL     1      -1.255  -2.023   3.340  0.00  0.00    +0.057 N 
ATOM     16  O   UNL     1      -1.906  -2.518   4.231  0.00  0.00    -0.126 OA
ATOM     17  O   UNL     1      -1.290  -2.500   2.230  0.00  0.00    -0.126 OA
ENDBRANCH  12  15
ENDBRANCH   6   7
BRANCH   3  18
ATOM     18  N   UNL     1      -1.530  -0.518  -2.083  0.00  0.00    -0.356 N 
ATOM     19  H   UNL     1      -2.167   0.202  -1.947  0.00  0.00    +0.142 HD
ATOM     20  H   UNL     1      -1.480  -0.965  -2.942  0.00  0.00    +0.142 HD
ENDBRANCH   3  18
BRANCH   4  21
ATOM     21  C   UNL     1       0.484  -2.735  -2.384  0.00  0.00    +0.108 C 
ATOM     22  N   UNL     1       0.682  -3.365  -3.308  0.00  0.00    -0.190 NA
ENDBRANCH   4  21
TORSDOF 4
