REMARK  Name = ZINC13065282
REMARK  13 active torsions:
REMARK  status: ('A' for Active; 'I' for Inactive)
REMARK    1  A    between atoms: C_1  and  C_2
REMARK    2  A    between atoms: C_2  and  C_3
REMARK    3  A    between atoms: C_3  and  C_5
REMARK    4  A    between atoms: C_3  and  N_69
REMARK    5  A    between atoms: N_9  and  C_10
REMARK    6  A    between atoms: C_10  and  C_11
REMARK    7  A    between atoms: C_16  and  C_17
REMARK    8  A    between atoms: C_16  and  N_69
REMARK    9  A    between atoms: C_17  and  C_18
REMARK   10  A    between atoms: C_24  and  C_25
REMARK   11  A    between atoms: C_24  and  N_69
REMARK   12  A    between atoms: C_28  and  C_38
REMARK   13  A    between atoms: C_31  and  C_37
REMARK                            x       y       z     vdW  Elec       q    Type
REMARK                         _______ _______ _______ _____ _____    ______ ____
ROOT
ATOM      1  N   UNL     1      -1.933  -0.612   0.906  0.00  0.00    +0.389 N 
ATOM      2  H   UNL     1      -1.040  -1.096   0.759  0.00  0.00    -0.080 HD
ENDROOT
BRANCH   1   3
ATOM      3  C   UNL     1      -2.836  -1.492   1.677  0.00  0.00    +0.003 C 
BRANCH   3   4
ATOM      4  C   UNL     1      -4.172  -0.826   1.887  0.00  0.00    +0.139 A 
ATOM      5  N   UNL     1      -4.757   0.025   1.080  0.00  0.00    -0.115 NA
ATOM      6  N   UNL     1      -5.881   0.366   1.609  0.00  0.00    -0.023 NA
ATOM      7  N   UNL     1      -6.029  -0.246   2.732  0.00  0.00    -0.044 NA
ATOM      8  N   UNL     1      -4.998  -0.995   2.936  0.00  0.00    -0.223 N 
BRANCH   8   9
ATOM      9  C   UNL     1      -4.768  -1.862   4.094  0.00  0.00    +0.221 C 
BRANCH   9  10
ATOM     10  C   UNL     1      -4.152  -1.058   5.210  0.00  0.00    +0.126 A 
ATOM     11  C   UNL     1      -4.827  -0.382   6.156  0.00  0.00    +0.046 A 
ATOM     12  C   UNL     1      -3.862   0.222   6.995  0.00  0.00    +0.041 A 
ATOM     13  C   UNL     1      -2.655  -0.115   6.506  0.00  0.00    +0.195 A 
ATOM     14  O   UNL     1      -2.837  -0.891   5.424  0.00  0.00    -0.466 OA
ENDBRANCH   9  10
ENDBRANCH   8   9
ENDBRANCH   3   4
BRANCH   3  16
ATOM     15  C   UNL     1      -1.698  -3.537   0.802  0.00  0.00    +0.002 C 
ATOM     16  C   UNL     1      -3.034  -2.798   0.904  0.00  0.00    -0.011 C 
ENDBRANCH   3  16
ENDBRANCH   1   3
BRANCH   1  17
ATOM     17  C   UNL     1      -1.684   0.637   1.657  0.00  0.00    -0.073 C 
BRANCH  17  18
ATOM     18  C   UNL     1      -0.990   0.292   2.976  0.00  0.00    +0.016 C 
BRANCH  18  19
ATOM     19  C   UNL     1      -0.590   1.563   3.680  0.00  0.00    -0.049 A 
ATOM     20  C   UNL     1       0.652   2.122   3.446  0.00  0.00    +0.003 A 
ATOM     21  C   UNL     1       1.017   3.291   4.088  0.00  0.00    +0.000 A 
ATOM     22  C   UNL     1       0.143   3.895   4.973  0.00  0.00    +0.000 A 
ATOM     23  C   UNL     1      -1.097   3.333   5.212  0.00  0.00    +0.000 A 
ATOM     24  C   UNL     1      -1.464   2.167   4.565  0.00  0.00    +0.003 A 
ENDBRANCH  18  19
ENDBRANCH  17  18
ENDBRANCH   1  17
BRANCH   1  25
ATOM     25  C   UNL     1      -2.532  -0.300  -0.408  0.00  0.00    -0.037 C 
BRANCH  25  26
ATOM     26  C   UNL     1      -1.447   0.199  -1.327  0.00  0.00    +0.001 A 
ATOM     27  C   UNL     1      -0.814  -0.666  -2.158  0.00  0.00    +0.017 A 
ATOM     28  C   UNL     1       0.235  -0.149  -3.038  0.00  0.00    +0.002 A 
ATOM     29  C   UNL     1       0.923  -0.993  -3.916  0.00  0.00    -0.041 A 
ATOM     30  C   UNL     1       1.898  -0.480  -4.724  0.00  0.00    +0.004 A 
ATOM     31  C   UNL     1       2.211   0.872  -4.683  0.00  0.00    +0.005 A 
ATOM     32  C   UNL     1       1.546   1.722  -3.825  0.00  0.00    -0.026 A 
ATOM     33  C   UNL     1       0.550   1.222  -2.993  0.00  0.00    +0.052 A 
ATOM     34  N   UNL     1      -0.131   2.049  -2.126  0.00  0.00    -0.322 N 
ATOM     35  H   UNL     1       0.086   2.994  -2.096  0.00  0.00    +0.169 HD
ATOM     36  C   UNL     1      -1.094   1.566  -1.321  0.00  0.00    +0.251 A 
ATOM     37  O   UNL     1      -1.679   2.327  -0.571  0.00  0.00    -0.268 OA
ATOM     38  C   UNL     1       1.897   3.187  -3.790  0.00  0.00    +0.046 C 
ATOM     39  C   UNL     1       0.592  -2.462  -3.970  0.00  0.00    +0.044 C 
ENDBRANCH  25  26
ENDBRANCH   1  25
TORSDOF 10
