REMARK  Name = ZINC48234488
REMARK  4 active torsions:
REMARK  status: ('A' for Active; 'I' for Inactive)
REMARK    1  A    between atoms: C_2  and  N_10
REMARK    2  A    between atoms: C_5  and  N_8
REMARK    3  A    between atoms: C_11  and  C_13
REMARK    4  A    between atoms: C_16  and  N_18
REMARK                            x       y       z     vdW  Elec       q    Type
REMARK                         _______ _______ _______ _____ _____    ______ ____
ROOT
ATOM      1  C   UNL     1       0.154   1.373   0.602  0.00  0.00    +0.045 A 
ATOM      2  C   UNL     1       1.177   2.088  -0.006  0.00  0.00    +0.036 A 
ATOM      3  C   UNL     1       2.219   1.416  -0.630  0.00  0.00    +0.045 A 
ATOM      4  C   UNL     1       2.239   0.035  -0.646  0.00  0.00    +0.065 A 
ATOM      5  C   UNL     1       1.216  -0.682  -0.037  0.00  0.00    +0.062 A 
ATOM      6  C   UNL     1       0.173  -0.009   0.587  0.00  0.00    +0.065 A 
ATOM      7 CL   UNL     1      -1.105  -0.903   1.348  0.00  0.00    -0.082 Cl
ATOM      8 CL   UNL     1       3.542  -0.805  -1.428  0.00  0.00    -0.082 Cl
ENDROOT
BRANCH   2   9
ATOM      9  N   UNL     1       1.157   3.490   0.010  0.00  0.00    -0.285 N 
ATOM     10  C   UNL     1       2.311   4.179   0.104  0.00  0.00    +0.223 C 
ATOM     11  O   UNL     1       3.371   3.591   0.091  0.00  0.00    -0.275 OA
ATOM     12  H   UNL     1       0.312   3.963  -0.047  0.00  0.00    +0.155 HD
BRANCH  10  13
ATOM     13  C   UNL     1       2.283   5.681   0.226  0.00  0.00    +0.107 C 
ATOM     14  C   UNL     1       2.721   6.290   1.560  0.00  0.00    +0.047 C 
ATOM     15  C   UNL     1       3.627   6.406   0.332  0.00  0.00    +0.182 C 
BRANCH  15  16
ATOM     16  N   UNL     1       4.841   5.587   0.306  0.00  0.00    +0.026 N 
ATOM     17  O   UNL     1       5.665   5.754  -0.562  0.00  0.00    -0.131 OA
ATOM     18  O   UNL     1       5.019   4.743   1.154  0.00  0.00    -0.131 OA
ENDBRANCH  15  16
ENDBRANCH  10  13
ENDBRANCH   2   9
BRANCH   5  19
ATOM     19  N   UNL     1       1.236  -2.082  -0.054  0.00  0.00    -0.356 N 
ATOM     20  H   UNL     1       1.964  -2.552  -0.490  0.00  0.00    +0.142 HD
ATOM     21  H   UNL     1       0.522  -2.582   0.371  0.00  0.00    +0.142 HD
ENDBRANCH   5  19
TORSDOF 4
