REMARK  Name = ZINC03059717
REMARK  9 active torsions:
REMARK  status: ('A' for Active; 'I' for Inactive)
REMARK    1  A    between atoms: C_1  and  O_2
REMARK    2  A    between atoms: O_2  and  C_3
REMARK    3  A    between atoms: C_8  and  O_9
REMARK    4  A    between atoms: O_9  and  C_10
REMARK    5  A    between atoms: C_10  and  C_11
REMARK    6  A    between atoms: N_13  and  N_14
REMARK    7  A    between atoms: C_15  and  C_16
REMARK    8  A    between atoms: C_19  and  O_24
REMARK    9  A    between atoms: O_24  and  C_25
REMARK                            x       y       z     vdW  Elec       q    Type
REMARK                         _______ _______ _______ _____ _____    ______ ____
ROOT
ATOM      1  C   UNL     1       5.920   4.202  -0.030  0.00  0.00    +0.270 C 
ATOM      2  O   UNL     1       5.943   2.989  -0.037  0.00  0.00    -0.270 OA
ATOM      3  N   UNL     1       4.740   4.853  -0.016  0.00  0.00    -0.204 N 
ATOM      4  H   UNL     1       4.719   5.953  -0.010  0.00  0.00    +0.177 HD
ENDROOT
BRANCH   3   5
ATOM      5  N   UNL     1       3.541   4.130  -0.009  0.00  0.00    -0.188 NA
ATOM      6  C   UNL     1       2.404   4.757   0.005  0.00  0.00    +0.142 C 
BRANCH   6   7
ATOM      7  C   UNL     1       1.143   3.997   0.013  0.00  0.00    +0.044 A 
ATOM      8  C   UNL     1      -0.082   4.669   0.028  0.00  0.00    +0.032 A 
ATOM      9  C   UNL     1      -1.260   3.954   0.035  0.00  0.00    +0.061 A 
ATOM     10  C   UNL     1      -1.235   2.564   0.022  0.00  0.00    +0.152 A 
ATOM     11  C   UNL     1      -0.024   1.887   0.012  0.00  0.00    +0.108 A 
ATOM     12  C   UNL     1       1.166   2.595   0.005  0.00  0.00    +0.205 A 
ATOM     13  O   UNL     1       2.353   1.933  -0.010  0.00  0.00    -0.286 OA
ATOM     14 BR   UNL     1       0.002  -0.004   0.002  0.00  0.00    -0.042 Br
ATOM     15 BR   UNL     1      -2.917   4.866   0.056  0.00  0.00    -0.046 Br
BRANCH  10  16
ATOM     16  O   UNL     1      -2.400   1.865   0.023  0.00  0.00    -0.493 OA
ATOM     17  C   UNL     1      -2.951   1.525   1.297  0.00  0.00    +0.277 C 
ENDBRANCH  10  16
ENDBRANCH   6   7
ENDBRANCH   3   5
BRANCH   1  18
ATOM     18  C   UNL     1       7.210   4.980  -0.038  0.00  0.00    +0.326 C 
BRANCH  18  19
ATOM     19  O   UNL     1       8.314   4.073  -0.053  0.00  0.00    -0.479 OA
BRANCH  19  25
ATOM     20  C   UNL     1      10.681   3.792  -0.076  0.00  0.00    +0.162 A 
ATOM     21  C   UNL     1      11.949   4.350  -0.085  0.00  0.00    +0.049 A 
ATOM     22  C   UNL     1      12.099   5.725  -0.078  0.00  0.00    +0.004 A 
ATOM     23  C   UNL     1      10.985   6.544  -0.064  0.00  0.00    +0.004 A 
ATOM     24  C   UNL     1       9.717   5.993  -0.061  0.00  0.00    +0.049 A 
ATOM     25  C   UNL     1       9.560   4.616  -0.061  0.00  0.00    +0.163 A 
BRANCH  20  27
ATOM     26  C   UNL     1      11.726   1.655  -0.097  0.00  0.00    +0.277 C 
ATOM     27  O   UNL     1      10.532   2.440  -0.082  0.00  0.00    -0.491 OA
ENDBRANCH  20  27
ENDBRANCH  19  25
ENDBRANCH  18  19
ENDBRANCH   1  18
TORSDOF 7
