REMARK  Name = ZINC09532134
REMARK  9 active torsions:
REMARK  status: ('A' for Active; 'I' for Inactive)
REMARK    1  A    between atoms: C_1  and  C_2
REMARK    2  A    between atoms: C_2  and  C_4
REMARK    3  A    between atoms: C_2  and  S_20
REMARK    4  A    between atoms: N_6  and  C_7
REMARK    5  A    between atoms: C_10  and  N_17
REMARK    6  A    between atoms: C_12  and  C_13
REMARK    7  A    between atoms: S_20  and  C_21
REMARK    8  A    between atoms: C_24  and  C_27
REMARK    9  A    between atoms: N_25  and  C_26
REMARK                            x       y       z     vdW  Elec       q    Type
REMARK                         _______ _______ _______ _____ _____    ______ ____
ROOT
ATOM      1  C   UNL     1       2.543  -0.076   0.188  0.00  0.00    +0.230 C 
ATOM      2  O   UNL     1       1.476  -0.626   0.356  0.00  0.00    -0.274 OA
ATOM      3  N   UNL     1       2.591   1.254  -0.022  0.00  0.00    -0.284 N 
ATOM      4  H   UNL     1       3.436   1.683  -0.224  0.00  0.00    +0.155 HD
ENDROOT
BRANCH   3   5
ATOM      5  C   UNL     1       1.419   2.016   0.053  0.00  0.00    +0.045 A 
ATOM      6  C   UNL     1       0.209   1.475  -0.361  0.00  0.00    +0.026 A 
ATOM      7  C   UNL     1      -0.944   2.231  -0.292  0.00  0.00    +0.034 A 
ATOM      8  C   UNL     1      -0.896   3.523   0.199  0.00  0.00    +0.127 A 
ATOM      9  C   UNL     1       0.306   4.065   0.613  0.00  0.00    +0.047 A 
ATOM     10  C   UNL     1       1.464   3.315   0.541  0.00  0.00    +0.078 A 
BRANCH  10  11
ATOM     11  C   UNL     1       2.775   3.906   0.992  0.00  0.00    +0.419 C 
ATOM     12  F   UNL     1       2.567   5.216   1.439  0.00  0.00    -0.166 F 
ATOM     13  F   UNL     1       3.300   3.136   2.035  0.00  0.00    -0.166 F 
ATOM     14  F   UNL     1       3.675   3.917  -0.079  0.00  0.00    -0.166 F 
ENDBRANCH  10  11
BRANCH   8  15
ATOM     15  N   UNL     1      -2.135   4.330   0.277  0.00  0.00    +0.056 N 
ATOM     16  O   UNL     1      -2.094   5.469   0.705  0.00  0.00    -0.126 OA
ATOM     17  O   UNL     1      -3.196   3.854  -0.087  0.00  0.00    -0.126 OA
ENDBRANCH   8  15
ENDBRANCH   3   5
BRANCH   1  19
ATOM     18  C   UNL     1       4.272  -1.161  -1.220  0.00  0.00    +0.029 C 
ATOM     19  C   UNL     1       3.817  -0.881   0.213  0.00  0.00    +0.137 C 
BRANCH  19  20
ATOM     20  S   UNL     1       3.525  -2.448   1.071  0.00  0.00    -0.074 S 
BRANCH  20  21
ATOM     21  C   UNL     1       5.162  -3.098   1.088  0.00  0.00    +0.192 A 
ATOM     22  N   UNL     1       6.233  -2.526   0.584  0.00  0.00    -0.122 NA
ATOM     23  N   UNL     1       7.262  -3.272   0.774  0.00  0.00    -0.128 NA
ATOM     24  C   UNL     1       6.910  -4.370   1.403  0.00  0.00    +0.165 A 
ATOM     25  N   UNL     1       5.554  -4.292   1.623  0.00  0.00    -0.305 N 
ATOM     26  C   UNL     1       4.708  -5.282   2.293  0.00  0.00    +0.153 C 
BRANCH  24  27
ATOM     27  C   UNL     1       7.802  -5.480   1.799  0.00  0.00    +0.019 A 
ATOM     28  C   UNL     1       9.183  -5.284   1.853  0.00  0.00    +0.013 A 
ATOM     29  C   UNL     1      10.010  -6.322   2.229  0.00  0.00    +0.021 A 
ATOM     30  C   UNL     1       9.474  -7.560   2.541  0.00  0.00    +0.041 A 
ATOM     31  C   UNL     1       8.105  -7.762   2.483  0.00  0.00    +0.021 A 
ATOM     32  C   UNL     1       7.268  -6.730   2.114  0.00  0.00    +0.013 A 
ATOM     33 CL   UNL     1      10.521  -8.864   3.006  0.00  0.00    -0.084 Cl
ENDBRANCH  24  27
ENDBRANCH  20  21
ENDBRANCH  19  20
ENDBRANCH   1  19
TORSDOF 7
