REMARK  Name = ZINC43526678
REMARK  15 active torsions:
REMARK  status: ('A' for Active; 'I' for Inactive)
REMARK    1  A    between atoms: C_1  and  C_2
REMARK    2  A    between atoms: C_2  and  C_3
REMARK    3  A    between atoms: C_2  and  C_4
REMARK    4  A    between atoms: C_4  and  N_5
REMARK    5  A    between atoms: N_5  and  C_6
REMARK    6  A    between atoms: C_6  and  N_8
REMARK    7  A    between atoms: N_8  and  C_9
REMARK    8  A    between atoms: C_9  and  C_10
REMARK    9  A    between atoms: C_19  and  C_21
REMARK   10  A    between atoms: C_23  and  C_27
REMARK   11  A    between atoms: N_25  and  C_26
REMARK   12  A    between atoms: C_30  and  O_35
REMARK   13  A    between atoms: C_31  and  O_33
REMARK   14  A    between atoms: O_33  and  C_34
REMARK   15  A    between atoms: O_35  and  C_36
REMARK                            x       y       z     vdW  Elec       q    Type
REMARK                         _______ _______ _______ _____ _____    ______ ____
ROOT
ATOM      1  C   UNL     1      -3.656  -6.259  -0.414  0.00  0.00    -0.051 C 
ATOM      2  C   UNL     1      -4.910  -7.133  -0.491  0.00  0.00    -0.010 C 
ATOM      3  C   UNL     1      -4.911  -7.882  -1.830  0.00  0.00    -0.007 C 
ATOM      4  C   UNL     1      -4.905  -6.848  -2.963  0.00  0.00    -0.015 C 
ATOM      5  C   UNL     1      -3.663  -5.964  -2.818  0.00  0.00    -0.078 C 
ATOM      6  N   UNL     1      -2.863  -6.416  -1.636  0.00  0.00    +0.383 N 
ATOM      7  C   UNL     1      -2.423  -7.804  -1.790  0.00  0.00    -0.068 C 
ATOM      8  C   UNL     1      -3.634  -8.728  -1.911  0.00  0.00    +0.024 C 
ATOM      9  H   UNL     1      -2.042  -5.834  -1.561  0.00  0.00    -0.081 HD
ENDROOT
BRANCH   8  10
ATOM     10  C   UNL     1      -3.589  -9.448  -3.234  0.00  0.00    +0.041 A 
ATOM     11  C   UNL     1      -3.113  -8.948  -4.395  0.00  0.00    +0.053 A 
ATOM     12  C   UNL     1      -3.255  -9.941  -5.384  0.00  0.00    +0.093 A 
ATOM     13  N   UNL     1      -3.800 -10.998  -4.820  0.00  0.00    -0.171 NA
ATOM     14  N   UNL     1      -4.012 -10.710  -3.466  0.00  0.00    -0.271 N 
ATOM     15  C   UNL     1      -4.596 -11.617  -2.475  0.00  0.00    +0.172 C 
BRANCH  12  16
ATOM     16  C   UNL     1      -2.860  -9.817  -6.809  0.00  0.00    +0.006 A 
ATOM     17  C   UNL     1      -2.285  -8.636  -7.274  0.00  0.00    +0.014 A 
ATOM     18  C   UNL     1      -1.919  -8.521  -8.599  0.00  0.00    +0.050 A 
ATOM     19  C   UNL     1      -2.120  -9.580  -9.471  0.00  0.00    +0.162 A 
ATOM     20  C   UNL     1      -2.693 -10.763  -9.012  0.00  0.00    +0.162 A 
ATOM     21  C   UNL     1      -3.058 -10.884  -7.683  0.00  0.00    +0.059 A 
BRANCH  20  22
ATOM     22  O   UNL     1      -2.890 -11.800  -9.869  0.00  0.00    -0.491 OA
ATOM     23  C   UNL     1      -3.483 -12.983  -9.330  0.00  0.00    +0.277 C 
ENDBRANCH  20  22
BRANCH  19  24
ATOM     24  O   UNL     1      -1.758  -9.463 -10.777  0.00  0.00    -0.491 OA
ATOM     25  C   UNL     1      -1.176  -8.221 -11.179  0.00  0.00    +0.277 C 
ENDBRANCH  19  24
ENDBRANCH  12  16
ENDBRANCH   8  10
BRANCH   1  26
ATOM     26  C   UNL     1      -4.067  -4.793  -0.260  0.00  0.00    +0.088 C 
BRANCH  26  27
ATOM     27  N   UNL     1      -2.873  -3.945  -0.302  0.00  0.00    -0.328 N 
ATOM     28  H   UNL     1      -1.997  -4.346  -0.413  0.00  0.00    +0.148 HD
BRANCH  27  29
ATOM     29  C   UNL     1      -2.993  -2.607  -0.184  0.00  0.00    +0.130 C 
ATOM     30  S   UNL     1      -4.539  -1.900   0.013  0.00  0.00    -0.019 S 
BRANCH  29  31
ATOM     31  N   UNL     1      -1.895  -1.827  -0.222  0.00  0.00    -0.326 N 
ATOM     32  H   UNL     1      -1.018  -2.228  -0.334  0.00  0.00    +0.148 HD
BRANCH  31  33
ATOM     33  C   UNL     1      -2.025  -0.373  -0.095  0.00  0.00    +0.106 C 
BRANCH  33  35
ATOM     34  C   UNL     1      -0.784   1.794  -0.162  0.00  0.00    +0.009 C 
ATOM     35  C   UNL     1      -0.639   0.271  -0.170  0.00  0.00    -0.000 C 
ATOM     36  C   UNL     1       0.194  -0.168   1.036  0.00  0.00    +0.009 C 
ENDBRANCH  33  35
ENDBRANCH  31  33
ENDBRANCH  29  31
ENDBRANCH  27  29
ENDBRANCH  26  27
ENDBRANCH   1  26
TORSDOF 10
