REMARK  Name = ZINC12872629
REMARK  11 active torsions:
REMARK  status: ('A' for Active; 'I' for Inactive)
REMARK    1  A    between atoms: C_1  and  S_2
REMARK    2  A    between atoms: S_2  and  C_3
REMARK    3  A    between atoms: C_3  and  C_4
REMARK    4  A    between atoms: C_4  and  C_5
REMARK    5  A    between atoms: C_5  and  C_7
REMARK    6  A    between atoms: C_5  and  N_24
REMARK    7  A    between atoms: N_9  and  C_10
REMARK    8  A    between atoms: C_10  and  C_11
REMARK    9  A    between atoms: C_11  and  C_13
REMARK   10  A    between atoms: C_11  and  N_18
REMARK   11  A    between atoms: C_25  and  C_27
REMARK                            x       y       z     vdW  Elec       q    Type
REMARK                         _______ _______ _______ _____ _____    ______ ____
ROOT
ATOM      1  C   UNL     1      -3.658  -3.659   0.503  0.00  0.00    +0.233 C 
ATOM      2  O   UNL     1      -4.192  -4.204  -0.439  0.00  0.00    -0.274 OA
ATOM      3  N   UNL     1      -3.097  -4.399   1.480  0.00  0.00    -0.315 N 
ATOM      4  H   UNL     1      -2.670  -3.963   2.234  0.00  0.00    +0.149 HD
ENDROOT
BRANCH   1   5
ATOM      5  C   UNL     1      -3.622  -2.154   0.583  0.00  0.00    +0.160 C 
BRANCH   5   6
ATOM      6  N   UNL     1      -4.294  -1.587  -0.589  0.00  0.00    -0.300 N 
ATOM      7  C   UNL     1      -4.833  -0.353  -0.526  0.00  0.00    +0.246 C 
ATOM      8  O   UNL     1      -4.762   0.289   0.504  0.00  0.00    -0.270 OA
ATOM      9  H   UNL     1      -4.351  -2.099  -1.411  0.00  0.00    +0.150 HD
BRANCH   7  10
ATOM     10  C   UNL     1      -5.511   0.218  -1.708  0.00  0.00    +0.051 A 
ATOM     11  C   UNL     1      -5.599  -0.518  -2.890  0.00  0.00    +0.014 A 
ATOM     12  C   UNL     1      -6.233   0.021  -3.990  0.00  0.00    +0.001 A 
ATOM     13  C   UNL     1      -6.781   1.290  -3.924  0.00  0.00    +0.001 A 
ATOM     14  C   UNL     1      -6.697   2.027  -2.756  0.00  0.00    +0.016 A 
ATOM     15  C   UNL     1      -6.071   1.497  -1.646  0.00  0.00    +0.030 A 
ATOM     16 BR   UNL     1      -5.964   2.502  -0.048  0.00  0.00    -0.050 Br
ENDBRANCH   7  10
ENDBRANCH   5   6
BRANCH   5  17
ATOM     17  C   UNL     1      -2.168  -1.680   0.616  0.00  0.00    +0.042 C 
BRANCH  17  18
ATOM     18  C   UNL     1      -2.131  -0.164   0.822  0.00  0.00    +0.071 C 
BRANCH  18  20
ATOM     19  C   UNL     1      -0.535   2.191   1.109  0.00  0.00    +0.084 C 
ATOM     20  S   UNL     1      -0.406   0.398   0.862  0.00  0.00    -0.164 S 
ENDBRANCH  18  20
ENDBRANCH  17  18
ENDBRANCH   5  17
ENDBRANCH   1   5
BRANCH   3  21
ATOM     21  C   UNL     1      -3.132  -5.861   1.403  0.00  0.00    +0.096 C 
BRANCH  21  22
ATOM     22  C   UNL     1      -2.319  -6.452   2.556  0.00  0.00    +0.016 C 
BRANCH  22  23
ATOM     23  N   UNL     1      -0.964  -5.885   2.541  0.00  0.00    +0.387 N 
ATOM     24  C   UNL     1      -0.310  -6.216   1.270  0.00  0.00    -0.078 C 
ATOM     25  C   UNL     1       1.071  -5.559   1.215  0.00  0.00    -0.019 C 
ATOM     26  C   UNL     1       1.922  -6.076   2.379  0.00  0.00    -0.004 C 
ATOM     27  C   UNL     1       1.195  -5.791   3.696  0.00  0.00    -0.019 C 
ATOM     28  C   UNL     1      -0.190  -6.439   3.659  0.00  0.00    -0.078 C 
ATOM     29  H   UNL     1      -1.019  -4.882   2.637  0.00  0.00    -0.081 HD
ENDBRANCH  22  23
BRANCH  22  30
ATOM     30  C   UNL     1      -2.988  -6.120   3.865  0.00  0.00    +0.093 A 
ATOM     31  C   UNL     1      -3.768  -6.949   4.582  0.00  0.00    +0.043 A 
ATOM     32  C   UNL     1      -4.181  -6.232   5.729  0.00  0.00    +0.041 A 
ATOM     33  C   UNL     1      -3.628  -5.009   5.644  0.00  0.00    +0.195 A 
ATOM     34  O   UNL     1      -2.902  -4.949   4.516  0.00  0.00    -0.469 OA
ENDBRANCH  22  30
ENDBRANCH  21  22
ENDBRANCH   3  21
TORSDOF 10
