REMARK  Name = ZINC09603541
REMARK  11 active torsions:
REMARK  status: ('A' for Active; 'I' for Inactive)
REMARK    1  A    between atoms: C_1  and  C_2
REMARK    2  A    between atoms: C_5  and  N_9
REMARK    3  A    between atoms: C_6  and  C_8
REMARK    4  A    between atoms: C_10  and  C_12
REMARK    5  A    between atoms: C_12  and  C_13
REMARK    6  A    between atoms: N_24  and  C_25
REMARK    7  A    between atoms: C_25  and  C_26
REMARK    8  A    between atoms: N_28  and  C_29
REMARK    9  A    between atoms: N_33  and  C_34
REMARK   10  A    between atoms: C_34  and  C_35
REMARK   11  A    between atoms: C_34  and  C_36
REMARK                            x       y       z     vdW  Elec       q    Type
REMARK                         _______ _______ _______ _____ _____    ______ ____
ROOT
ATOM      1  C   UNL     1      -0.811  -4.710  -0.022  0.00  0.00    +0.169 C 
ATOM      2  C   UNL     1      -0.580  -6.176   0.242  0.00  0.00    +0.238 C 
ATOM      3  O   UNL     1      -0.505  -6.587   1.381  0.00  0.00    -0.273 OA
ATOM      4  N   UNL     1      -0.456  -7.026  -0.799  0.00  0.00    -0.282 N 
ATOM      5  C   UNL     1      -0.660  -6.541  -2.098  0.00  0.00    +0.055 A 
ATOM      6  C   UNL     1      -0.257  -7.288  -3.193  0.00  0.00    +0.025 A 
ATOM      7  C   UNL     1      -0.424  -6.786  -4.470  0.00  0.00    +0.002 A 
ATOM      8  C   UNL     1      -0.993  -5.539  -4.657  0.00  0.00    +0.002 A 
ATOM      9  C   UNL     1      -1.405  -4.792  -3.571  0.00  0.00    +0.025 A 
ATOM     10  C   UNL     1      -1.248  -5.291  -2.285  0.00  0.00    +0.052 A 
ATOM     11  N   UNL     1      -1.682  -4.541  -1.189  0.00  0.00    -0.308 N 
ATOM     12  H   UNL     1      -0.229  -7.957  -0.650  0.00  0.00    +0.155 HD
ENDROOT
BRANCH   1  13
ATOM     13  C   UNL     1       0.530  -4.024  -0.287  0.00  0.00    +0.128 C 
BRANCH  13  15
ATOM     14  N   UNL     1       2.621  -3.560   0.952  0.00  0.00    -0.285 N 
ATOM     15  C   UNL     1       1.374  -4.073   0.961  0.00  0.00    +0.219 C 
ATOM     16  O   UNL     1       0.932  -4.573   1.973  0.00  0.00    -0.275 OA
ATOM     17  H   UNL     1       2.947  -3.092   0.167  0.00  0.00    +0.155 HD
BRANCH  14  22
ATOM     18  C   UNL     1       5.960  -4.140   5.501  0.00  0.00    +0.044 C 
ATOM     19  C   UNL     1       5.073  -3.987   4.292  0.00  0.00    -0.050 A 
ATOM     20  C   UNL     1       3.700  -3.930   4.447  0.00  0.00    +0.005 A 
ATOM     21  C   UNL     1       2.885  -3.789   3.342  0.00  0.00    +0.024 A 
ATOM     22  C   UNL     1       3.445  -3.704   2.074  0.00  0.00    +0.036 A 
ATOM     23  C   UNL     1       4.824  -3.761   1.921  0.00  0.00    -0.029 A 
ATOM     24  C   UNL     1       5.634  -3.902   3.031  0.00  0.00    +0.008 A 
ATOM     25  C   UNL     1       5.435  -3.669   0.547  0.00  0.00    +0.045 C 
ENDBRANCH  14  22
ENDBRANCH  13  15
ENDBRANCH   1  13
BRANCH  11  26
ATOM     26  C   UNL     1      -1.819  -3.122  -1.543  0.00  0.00    +0.202 C 
BRANCH  26  27
ATOM     27  C   UNL     1      -2.581  -2.405  -0.458  0.00  0.00    +0.236 C 
ATOM     28  O   UNL     1      -3.075  -3.034   0.453  0.00  0.00    -0.274 OA
ATOM     29  N   UNL     1      -2.713  -1.064  -0.501  0.00  0.00    -0.269 N 
ATOM     30  H   UNL     1      -2.318  -0.561  -1.230  0.00  0.00    +0.156 HD
BRANCH  29  31
ATOM     31  C   UNL     1      -3.418  -0.401   0.503  0.00  0.00    +0.123 A 
ATOM     32  C   UNL     1      -4.020  -0.977   1.578  0.00  0.00    +0.065 A 
ATOM     33  C   UNL     1      -4.612   0.039   2.333  0.00  0.00    +0.136 A 
ATOM     34  N   UNL     1      -4.378   1.181   1.740  0.00  0.00    -0.178 NA
ATOM     35  N   UNL     1      -3.623   0.934   0.587  0.00  0.00    -0.248 N 
BRANCH  35  36
ATOM     36  C   UNL     1      -3.142   1.941  -0.361  0.00  0.00    +0.103 C 
ATOM     37  C   UNL     1      -4.335   2.692  -0.957  0.00  0.00    +0.032 C 
ATOM     38  C   UNL     1      -2.228   2.931   0.365  0.00  0.00    +0.032 C 
ENDBRANCH  35  36
ENDBRANCH  29  31
ENDBRANCH  26  27
ENDBRANCH  11  26
TORSDOF 7
