REMARK  Name = ZINC43093015
REMARK  10 active torsions:
REMARK  status: ('A' for Active; 'I' for Inactive)
REMARK    1  A    between atoms: C_1  and  C_2
REMARK    2  A    between atoms: C_2  and  C_3
REMARK    3  A    between atoms: C_3  and  C_5
REMARK    4  A    between atoms: C_3  and  N_24
REMARK    5  A    between atoms: C_5  and  C_7
REMARK    6  A    between atoms: C_5  and  N_14
REMARK    7  A    between atoms: N_14  and  C_15
REMARK    8  A    between atoms: N_14  and  C_16
REMARK    9  A    between atoms: C_16  and  C_18
REMARK   10  A    between atoms: C_16  and  C_19
REMARK                            x       y       z     vdW  Elec       q    Type
REMARK                         _______ _______ _______ _____ _____    ______ ____
ROOT
ATOM      1  C   UNL     1       0.775  -1.897  -1.426  0.00  0.00    +0.074 C 
ENDROOT
BRANCH   1   2
ATOM      2  C   UNL     1       1.721  -2.328  -0.335  0.00  0.00    -0.018 A 
ATOM      3  C   UNL     1       1.223  -2.753   0.883  0.00  0.00    +0.006 A 
ATOM      4  C   UNL     1       2.091  -3.149   1.883  0.00  0.00    +0.000 A 
ATOM      5  C   UNL     1       3.456  -3.120   1.667  0.00  0.00    +0.001 A 
ATOM      6  C   UNL     1       3.954  -2.695   0.451  0.00  0.00    +0.015 A 
ATOM      7  C   UNL     1       3.087  -2.304  -0.553  0.00  0.00    +0.022 A 
ATOM      8 BR   UNL     1       3.768  -1.729  -2.221  0.00  0.00    -0.050 Br
ENDBRANCH   1   2
BRANCH   1   9
ATOM      9  N   UNL     1      -0.463  -2.683  -1.340  0.00  0.00    -0.293 NA
ATOM     10  C   UNL     1      -1.569  -1.998  -2.021  0.00  0.00    +0.106 C 
BRANCH   9  11
ATOM     11  C   UNL     1      -0.267  -4.034  -1.881  0.00  0.00    +0.091 C 
ATOM     12  C   UNL     1       0.825  -4.750  -1.084  0.00  0.00    +0.030 C 
BRANCH  11  13
ATOM     13  C   UNL     1      -1.556  -4.809  -1.776  0.00  0.00    +0.007 A 
ATOM     14  C   UNL     1      -2.107  -5.673  -2.663  0.00  0.00    +0.013 A 
ATOM     15  C   UNL     1      -3.312  -6.276  -2.352  0.00  0.00    +0.008 A 
ATOM     16  C   UNL     1      -3.905  -5.985  -1.169  0.00  0.00    +0.045 A 
ATOM     17  S   UNL     1      -2.748  -4.832  -0.448  0.00  0.00    -0.100 S 
ENDBRANCH  11  13
ENDBRANCH   9  11
ENDBRANCH   1   9
BRANCH   1  18
ATOM     18  C   UNL     1       0.449  -0.411  -1.261  0.00  0.00    -0.053 C 
BRANCH  18  19
ATOM     19  N   UNL     1       1.692   0.371  -1.310  0.00  0.00    +0.381 N 
ATOM     20  H   UNL     1       2.118   0.268  -2.219  0.00  0.00    -0.090 HD
ATOM     21  H   UNL     1       1.483   1.345  -1.145  0.00  0.00    -0.090 HD
ATOM     22  H   UNL     1       2.327   0.039  -0.600  0.00  0.00    -0.090 HD
ENDBRANCH  18  19
BRANCH  18  24
ATOM     23  C   UNL     1      -0.707   1.266   0.184  0.00  0.00    +0.002 C 
ATOM     24  C   UNL     1      -0.241  -0.188   0.086  0.00  0.00    -0.018 C 
ENDBRANCH  18  24
ENDBRANCH   1  18
TORSDOF 7
