REMARK  Name = ZINC08845172
REMARK  10 active torsions:
REMARK  status: ('A' for Active; 'I' for Inactive)
REMARK    1  A    between atoms: C_1  and  C_2
REMARK    2  A    between atoms: C_4  and  O_33
REMARK    3  A    between atoms: C_5  and  C_9
REMARK    4  A    between atoms: N_17  and  C_30
REMARK    5  A    between atoms: C_18  and  C_20
REMARK    6  A    between atoms: C_22  and  O_28
REMARK    7  A    between atoms: C_23  and  O_27
REMARK    8  A    between atoms: O_28  and  C_29
REMARK    9  A    between atoms: C_30  and  C_31
REMARK   10  A    between atoms: C_31  and  O_32
REMARK                            x       y       z     vdW  Elec       q    Type
REMARK                         _______ _______ _______ _____ _____    ______ ____
ROOT
ATOM      1  C   UNL     1      -0.009  -4.264  -0.096  0.00  0.00    +0.075 A 
ATOM      2  C   UNL     1       1.073  -5.029  -0.393  0.00  0.00    +0.035 A 
ATOM      3  C   UNL     1       0.585  -6.346  -0.557  0.00  0.00    +0.153 A 
ATOM      4  N   UNL     1      -0.717  -6.300  -0.357  0.00  0.00    -0.168 NA
ATOM      5  N   UNL     1      -1.088  -5.101  -0.080  0.00  0.00    -0.276 N 
ATOM      6  H   UNL     1      -2.000  -4.830   0.108  0.00  0.00    +0.189 HD
ATOM      7  C   UNL     1       1.730  -7.215  -0.883  0.00  0.00    +0.268 C 
ATOM      8  O   UNL     1       1.656  -8.412  -1.087  0.00  0.00    -0.268 OA
ATOM      9  N   UNL     1       2.867  -6.500  -0.923  0.00  0.00    -0.283 N 
ATOM     10  C   UNL     1       2.558  -5.096  -0.625  0.00  0.00    +0.141 C 
ENDROOT
BRANCH   1  15
ATOM     11  C   UNL     1      -0.036   1.405   0.921  0.00  0.00    +0.045 C 
ATOM     12  C   UNL     1      -0.028  -0.079   0.658  0.00  0.00    -0.029 A 
ATOM     13  C   UNL     1       0.609  -0.931   1.540  0.00  0.00    +0.050 A 
ATOM     14  C   UNL     1       0.621  -2.295   1.302  0.00  0.00    +0.126 A 
ATOM     15  C   UNL     1      -0.016  -2.808   0.166  0.00  0.00    +0.043 A 
ATOM     16  C   UNL     1      -0.657  -1.940  -0.717  0.00  0.00    +0.034 A 
ATOM     17  C   UNL     1      -0.664  -0.583  -0.464  0.00  0.00    +0.045 A 
ATOM     18 CL   UNL     1      -1.468   0.497  -1.561  0.00  0.00    -0.083 Cl
BRANCH  14  19
ATOM     19  O   UNL     1       1.248  -3.133   2.169  0.00  0.00    -0.506 OA
ATOM     20  H   UNL     1       0.703  -3.401   2.921  0.00  0.00    +0.292 HD
ENDBRANCH  14  19
ENDBRANCH   1  15
BRANCH  10  21
ATOM     21  C   UNL     1       2.938  -4.223  -1.793  0.00  0.00    -0.018 A 
ATOM     22  C   UNL     1       2.384  -4.457  -3.038  0.00  0.00    +0.055 A 
ATOM     23  C   UNL     1       2.733  -3.656  -4.114  0.00  0.00    +0.163 A 
ATOM     24  C   UNL     1       3.641  -2.616  -3.937  0.00  0.00    +0.173 A 
ATOM     25  C   UNL     1       4.193  -2.387  -2.687  0.00  0.00    +0.063 A 
ATOM     26  C   UNL     1       3.837  -3.188  -1.616  0.00  0.00    +0.025 A 
ATOM     27 BR   UNL     1       5.428  -0.976  -2.442  0.00  0.00    -0.046 Br
BRANCH  24  28
ATOM     28  O   UNL     1       3.987  -1.827  -4.990  0.00  0.00    -0.503 OA
ATOM     29  H   UNL     1       3.422  -1.050  -5.102  0.00  0.00    +0.292 HD
ENDBRANCH  24  28
BRANCH  23  30
ATOM     30  O   UNL     1       2.189  -3.885  -5.339  0.00  0.00    -0.491 OA
ATOM     31  C   UNL     1       1.265  -4.969  -5.446  0.00  0.00    +0.277 C 
ENDBRANCH  23  30
ENDBRANCH  10  21
BRANCH   9  32
ATOM     32  C   UNL     1       4.199  -7.034  -1.216  0.00  0.00    +0.137 C 
BRANCH  32  33
ATOM     33  C   UNL     1       4.385  -7.136  -2.731  0.00  0.00    +0.175 C 
BRANCH  33  34
ATOM     34  O   UNL     1       4.476  -5.824  -3.289  0.00  0.00    -0.393 OA
ATOM     35  H   UNL     1       4.596  -5.812  -4.248  0.00  0.00    +0.209 HD
ENDBRANCH  33  34
ENDBRANCH  32  33
ENDBRANCH   9  32
TORSDOF 8
