REMARK  Name = ZINC05354854
REMARK  12 active torsions:
REMARK  status: ('A' for Active; 'I' for Inactive)
REMARK    1  A    between atoms: C_1  and  C_2
REMARK    2  A    between atoms: C_6  and  O_28
REMARK    3  A    between atoms: C_7  and  C_27
REMARK    4  A    between atoms: C_12  and  C_13
REMARK    5  A    between atoms: C_13  and  C_14
REMARK    6  A    between atoms: C_14  and  C_15
REMARK    7  A    between atoms: N_17  and  C_18
REMARK    8  A    between atoms: C_18  and  C_19
REMARK    9  A    between atoms: C_18  and  C_20
REMARK   10  A    between atoms: N_23  and  C_24
REMARK   11  A    between atoms: C_24  and  C_25
REMARK   12  A    between atoms: C_24  and  C_26
REMARK                            x       y       z     vdW  Elec       q    Type
REMARK                         _______ _______ _______ _____ _____    ______ ____
ROOT
ATOM      1  C   UNL     1       3.647   2.434  -0.220  0.00  0.00    +0.045 C 
ATOM      2  C   UNL     1       2.364   1.643  -0.228  0.00  0.00    -0.030 A 
ATOM      3  C   UNL     1       2.383   0.181  -0.302  0.00  0.00    +0.021 A 
ATOM      4  C   UNL     1       3.592  -0.522  -0.368  0.00  0.00    +0.015 A 
ATOM      5  C   UNL     1       3.581  -1.885  -0.436  0.00  0.00    +0.046 A 
ATOM      6  C   UNL     1       2.375  -2.582  -0.442  0.00  0.00    +0.123 A 
ATOM      7  C   UNL     1       1.169  -1.903  -0.376  0.00  0.00    +0.034 A 
ATOM      8  C   UNL     1       1.162  -0.518  -0.306  0.00  0.00    +0.146 A 
ATOM      9  O   UNL     1      -0.002   0.164  -0.242  0.00  0.00    -0.422 OA
ATOM     10  C   UNL     1      -0.027   1.504  -0.174  0.00  0.00    +0.341 A 
ATOM     11  O   UNL     1      -1.101   2.076  -0.123  0.00  0.00    -0.245 OA
ATOM     12  C   UNL     1       1.159   2.267  -0.166  0.00  0.00    +0.041 A 
ATOM     13  C   UNL     1      -0.130  -2.666  -0.382  0.00  0.00    +0.051 C 
ENDROOT
BRANCH   6  14
ATOM     14  O   UNL     1       2.381  -3.938  -0.510  0.00  0.00    -0.506 OA
ATOM     15  H   UNL     1       2.360  -4.286  -1.412  0.00  0.00    +0.292 HD
ENDBRANCH   6  14
BRANCH  12  16
ATOM     16  C   UNL     1       1.090   3.770  -0.089  0.00  0.00    +0.052 C 
BRANCH  16  17
ATOM     17  C   UNL     1       1.103   4.207   1.377  0.00  0.00    +0.101 C 
BRANCH  17  18
ATOM     18  C   UNL     1       1.033   5.710   1.455  0.00  0.00    +0.224 C 
ATOM     19  O   UNL     1       1.070   6.372   0.439  0.00  0.00    -0.275 OA
ATOM     20  N   UNL     1       0.930   6.319   2.652  0.00  0.00    -0.223 N 
ATOM     21  C   UNL     1       0.765   7.655   2.717  0.00  0.00    +0.309 C 
ATOM     22  O   UNL     1       0.624   8.300   1.697  0.00  0.00    -0.252 OA
ATOM     23  N   UNL     1       0.757   8.276   3.913  0.00  0.00    -0.297 N 
ATOM     24  H   UNL     1       0.940   7.773   4.722  0.00  0.00    +0.151 HD
BRANCH  20  25
ATOM     25  C   UNL     1       0.997   5.529   3.884  0.00  0.00    +0.080 C 
ATOM     26  C   UNL     1       2.254   5.911   4.668  0.00  0.00    +0.028 C 
ATOM     27  C   UNL     1      -0.241   5.810   4.738  0.00  0.00    +0.028 C 
ENDBRANCH  20  25
BRANCH  23  28
ATOM     28  C   UNL     1       0.472   9.711   3.992  0.00  0.00    +0.068 C 
ATOM     29  C   UNL     1      -1.042   9.929   4.033  0.00  0.00    +0.027 C 
ATOM     30  C   UNL     1       1.106  10.288   5.259  0.00  0.00    +0.027 C 
ENDBRANCH  23  28
ENDBRANCH  17  18
ENDBRANCH  16  17
ENDBRANCH  12  16
TORSDOF 6
