REMARK  Name = ZINC40452902
REMARK  5 active torsions:
REMARK  status: ('A' for Active; 'I' for Inactive)
REMARK    1  A    between atoms: C_3  and  N_14
REMARK    2  A    between atoms: C_4  and  C_10
REMARK    3  A    between atoms: C_6  and  N_7
REMARK    4  A    between atoms: C_18  and  C_21
REMARK    5  A    between atoms: C_21  and  O_22
REMARK                            x       y       z     vdW  Elec       q    Type
REMARK                         _______ _______ _______ _____ _____    ______ ____
ROOT
ATOM      1  C   UNL     1       1.106  -0.676   0.097  0.00  0.00    +0.034 A 
ATOM      2  C   UNL     1       2.342  -0.068   0.001  0.00  0.00    +0.026 A 
ATOM      3  C   UNL     1       2.429   1.315  -0.102  0.00  0.00    +0.042 A 
ATOM      4  C   UNL     1       1.270   2.081  -0.106  0.00  0.00    +0.078 A 
ATOM      5  C   UNL     1       0.037   1.467  -0.010  0.00  0.00    +0.047 A 
ATOM      6  C   UNL     1      -0.045   0.090   0.092  0.00  0.00    +0.127 A 
ENDROOT
BRANCH   3   7
ATOM      7  N   UNL     1       3.677   1.933  -0.199  0.00  0.00    -0.329 N 
ATOM      8  C   UNL     1       4.291   2.177  -1.511  0.00  0.00    +0.105 C 
ATOM      9  C   UNL     1       5.699   1.574  -1.516  0.00  0.00    +0.019 C 
ATOM     10  C   UNL     1       6.495   2.135  -0.336  0.00  0.00    +0.009 C 
ATOM     11  C   UNL     1       5.808   1.746   0.975  0.00  0.00    +0.032 C 
ATOM     12  C   UNL     1       4.399   2.357   1.009  0.00  0.00    +0.111 C 
BRANCH  11  13
ATOM     13  C   UNL     1       6.622   2.279   2.156  0.00  0.00    +0.160 C 
BRANCH  13  14
ATOM     14  O   UNL     1       7.895   1.629   2.189  0.00  0.00    -0.395 OA
ATOM     15  H   UNL     1       8.466   1.918   2.914  0.00  0.00    +0.209 HD
ENDBRANCH  13  14
ENDBRANCH  11  13
ENDBRANCH   3   7
BRANCH   4  16
ATOM     16  C   UNL     1       1.358   3.581  -0.217  0.00  0.00    +0.419 C 
ATOM     17  F   UNL     1       0.070   4.127  -0.201  0.00  0.00    -0.166 F 
ATOM     18  F   UNL     1       2.092   4.086   0.863  0.00  0.00    -0.166 F 
ATOM     19  F   UNL     1       1.995   3.924  -1.414  0.00  0.00    -0.166 F 
ENDBRANCH   4  16
BRANCH   6  20
ATOM     20  N   UNL     1      -1.368  -0.565   0.195  0.00  0.00    +0.056 N 
ATOM     21  O   UNL     1      -1.442  -1.769   0.284  0.00  0.00    -0.126 OA
ATOM     22  O   UNL     1      -2.376   0.103   0.191  0.00  0.00    -0.126 OA
ENDBRANCH   6  20
TORSDOF 5
