REMARK  Name = ZINC44877698
REMARK  10 active torsions:
REMARK  status: ('A' for Active; 'I' for Inactive)
REMARK    1  A    between atoms: C_1  and  C_2
REMARK    2  A    between atoms: N_7  and  C_9
REMARK    3  A    between atoms: C_9  and  C_10
REMARK    4  A    between atoms: C_13  and  C_16
REMARK    5  A    between atoms: C_16  and  N_17
REMARK    6  A    between atoms: C_18  and  C_20
REMARK    7  A    between atoms: C_20  and  N_21
REMARK    8  A    between atoms: N_21  and  C_22
REMARK    9  A    between atoms: N_21  and  S_29
REMARK   10  A    between atoms: S_29  and  C_32
REMARK                            x       y       z     vdW  Elec       q    Type
REMARK                         _______ _______ _______ _____ _____    ______ ____
ROOT
ATOM      1  N   UNL     1       1.268  -8.838   1.169  0.00  0.00    -0.310 N 
ATOM      2  C   UNL     1       1.231 -10.137   0.810  0.00  0.00    +0.232 C 
ATOM      3  O   UNL     1       1.644 -10.988   1.569  0.00  0.00    -0.274 OA
ATOM      4  H   UNL     1       0.938  -8.158   0.562  0.00  0.00    +0.149 HD
ENDROOT
BRANCH   1   5
ATOM      5  C   UNL     1       1.808  -8.455   2.475  0.00  0.00    +0.139 C 
BRANCH   5   9
ATOM      6  C   UNL     1       1.605  -4.210   2.912  0.00  0.00    -0.064 A 
ATOM      7  C   UNL     1       0.546  -4.998   3.321  0.00  0.00    +0.002 A 
ATOM      8  C   UNL     1       0.612  -6.372   3.180  0.00  0.00    +0.005 A 
ATOM      9  C   UNL     1       1.736  -6.957   2.629  0.00  0.00    -0.030 A 
ATOM     10  C   UNL     1       2.795  -6.169   2.218  0.00  0.00    +0.005 A 
ATOM     11  C   UNL     1       2.728  -4.795   2.356  0.00  0.00    +0.002 A 
BRANCH   6  12
ATOM     12  C   UNL     1       1.534  -2.713   3.066  0.00  0.00    -0.043 C 
BRANCH  12  18
ATOM     13  C   UNL     1       0.497   1.484   0.768  0.00  0.00    +0.005 C 
ATOM     14  C   UNL     1       0.448  -0.042   0.664  0.00  0.00    -0.031 C 
ATOM     15  C   UNL     1      -1.001  -0.493   0.457  0.00  0.00    -0.001 C 
ATOM     16  C   UNL     1      -1.050  -2.024   0.432  0.00  0.00    -0.018 C 
ATOM     17  C   UNL     1      -0.452  -2.569   1.731  0.00  0.00    -0.078 C 
ATOM     18  N   UNL     1       0.941  -2.124   1.857  0.00  0.00    +0.383 N 
ATOM     19  C   UNL     1       0.991  -0.660   1.954  0.00  0.00    -0.075 C 
ATOM     20  H   UNL     1       1.464  -2.424   1.048  0.00  0.00    -0.081 HD
ENDBRANCH  12  18
ENDBRANCH   6  12
ENDBRANCH   5   9
ENDBRANCH   1   5
BRANCH   2  21
ATOM     21  C   UNL     1       0.675 -10.531  -0.534  0.00  0.00    +0.227 C 
BRANCH  21  22
ATOM     22  N   UNL     1       0.875 -11.968  -0.743  0.00  0.00    -0.193 N 
BRANCH  22  23
ATOM     23  C   UNL     1       2.078 -12.436  -1.277  0.00  0.00    +0.070 A 
ATOM     24  C   UNL     1       3.155 -12.703  -0.441  0.00  0.00    +0.026 A 
ATOM     25  C   UNL     1       4.342 -13.165  -0.973  0.00  0.00    +0.002 A 
ATOM     26  C   UNL     1       4.461 -13.363  -2.336  0.00  0.00    +0.002 A 
ATOM     27  C   UNL     1       3.392 -13.099  -3.172  0.00  0.00    +0.022 A 
ATOM     28  C   UNL     1       2.199 -12.641  -2.647  0.00  0.00    +0.064 A 
ATOM     29 CL   UNL     1       0.854 -12.316  -3.696  0.00  0.00    -0.082 Cl
ENDBRANCH  22  23
BRANCH  22  30
ATOM     30  S   UNL     1      -0.326 -13.037  -0.344  0.00  0.00    +0.075 S 
ATOM     31  O   UNL     1       0.305 -14.289  -0.116  0.00  0.00    -0.150 OA
ATOM     32  O   UNL     1      -1.128 -12.398   0.639  0.00  0.00    -0.150 OA
BRANCH  30  33
ATOM     33  C   UNL     1      -1.340 -13.237  -1.771  0.00  0.00    +0.109 A 
ATOM     34  C   UNL     1      -2.424 -12.402  -1.970  0.00  0.00    +0.029 A 
ATOM     35  C   UNL     1      -3.220 -12.559  -3.090  0.00  0.00    +0.002 A 
ATOM     36  C   UNL     1      -2.932 -13.550  -4.010  0.00  0.00    +0.000 A 
ATOM     37  C   UNL     1      -1.847 -14.384  -3.810  0.00  0.00    +0.002 A 
ATOM     38  C   UNL     1      -1.049 -14.224  -2.693  0.00  0.00    +0.029 A 
ENDBRANCH  30  33
ENDBRANCH  22  30
ENDBRANCH  21  22
ENDBRANCH   2  21
TORSDOF 9
