REMARK  Name = ZINC10033333
REMARK  7 active torsions:
REMARK  status: ('A' for Active; 'I' for Inactive)
REMARK    1  A    between atoms: C_1  and  C_2
REMARK    2  A    between atoms: C_5  and  N_9
REMARK    3  A    between atoms: C_6  and  C_8
REMARK    4  A    between atoms: C_19  and  S_20
REMARK    5  A    between atoms: S_20  and  C_21
REMARK    6  A    between atoms: C_21  and  C_22
REMARK    7  A    between atoms: C_35  and  C_37
REMARK                            x       y       z     vdW  Elec       q    Type
REMARK                         _______ _______ _______ _____ _____    ______ ____
ROOT
ATOM      1  N   UNL     1      -0.017   1.397   0.010  0.00  0.00    -0.255 N 
ATOM      2  C   UNL     1      -1.201   2.052   0.019  0.00  0.00    +0.267 A 
ATOM      3  O   UNL     1      -2.257   1.447   0.021  0.00  0.00    -0.267 OA
ATOM      4  C   UNL     1      -1.165   3.520   0.031  0.00  0.00    +0.065 A 
ATOM      5  C   UNL     1      -2.330   4.285   0.046  0.00  0.00    +0.015 A 
ATOM      6  C   UNL     1      -2.240   5.650   0.051  0.00  0.00    +0.001 A 
ATOM      7  C   UNL     1      -1.002   6.280   0.043  0.00  0.00    +0.002 A 
ATOM      8  C   UNL     1       0.156   5.554   0.028  0.00  0.00    +0.028 A 
ATOM      9  C   UNL     1       0.097   4.158   0.022  0.00  0.00    +0.079 A 
ATOM     10  N   UNL     1       1.219   3.400   0.008  0.00  0.00    -0.223 NA
ATOM     11  C   UNL     1       1.161   2.091   0.002  0.00  0.00    +0.177 A 
ENDROOT
BRANCH   1  16
ATOM     12  C   UNL     1       0.060  -4.277  -0.021  0.00  0.00    +0.044 C 
ATOM     13  C   UNL     1       0.040  -2.771  -0.013  0.00  0.00    -0.050 A 
ATOM     14  C   UNL     1       0.042  -2.087   1.189  0.00  0.00    +0.005 A 
ATOM     15  C   UNL     1       0.029  -0.706   1.200  0.00  0.00    +0.027 A 
ATOM     16  C   UNL     1       0.002  -0.004   0.002  0.00  0.00    +0.055 A 
ATOM     17  C   UNL     1       0.000  -0.693  -1.203  0.00  0.00    -0.026 A 
ATOM     18  C   UNL     1       0.019  -2.074  -1.208  0.00  0.00    +0.008 A 
ATOM     19  C   UNL     1      -0.022   0.065  -2.506  0.00  0.00    +0.046 C 
ENDBRANCH   1  16
BRANCH  11  20
ATOM     20  S   UNL     1       2.671   1.184  -0.017  0.00  0.00    -0.078 S 
BRANCH  20  21
ATOM     21  C   UNL     1       3.859   2.550  -0.021  0.00  0.00    +0.173 C 
BRANCH  21  22
ATOM     22  C   UNL     1       5.261   1.997  -0.037  0.00  0.00    +0.230 C 
ATOM     23  O   UNL     1       5.439   0.798  -0.044  0.00  0.00    -0.274 OA
ATOM     24  N   UNL     1       6.316   2.836  -0.042  0.00  0.00    -0.266 N 
ATOM     25  C   UNL     1       6.124   4.225  -0.034  0.00  0.00    +0.058 A 
ATOM     26  C   UNL     1       5.672   4.868   1.107  0.00  0.00    +0.025 A 
ATOM     27  C   UNL     1       5.511   6.242   1.104  0.00  0.00    +0.002 A 
ATOM     28  C   UNL     1       5.800   6.975  -0.033  0.00  0.00    +0.002 A 
ATOM     29  C   UNL     1       6.242   6.339  -1.178  0.00  0.00    +0.025 A 
ATOM     30  C   UNL     1       6.396   4.962  -1.186  0.00  0.00    +0.055 A 
ATOM     31  N   UNL     1       6.790   4.291  -2.349  0.00  0.00    -0.284 N 
ATOM     32  C   UNL     1       7.776   3.369  -2.308  0.00  0.00    +0.219 C 
ATOM     33  O   UNL     1       8.050   2.735  -3.305  0.00  0.00    -0.275 OA
ATOM     34  C   UNL     1       8.538   3.123  -1.032  0.00  0.00    +0.118 C 
ATOM     35  C   UNL     1       7.683   2.313  -0.051  0.00  0.00    +0.087 C 
ATOM     36  C   UNL     1       8.277   2.419   1.355  0.00  0.00    +0.029 C 
ATOM     37  H   UNL     1       6.350   4.489  -3.191  0.00  0.00    +0.155 HD
ENDBRANCH  21  22
ENDBRANCH  20  21
ENDBRANCH  11  20
TORSDOF 4
