REMARK  Name = ZINC38743129
REMARK  4 active torsions:
REMARK  status: ('A' for Active; 'I' for Inactive)
REMARK    1  A    between atoms: C_4  and  C_7
REMARK    2  A    between atoms: C_9  and  C_13
REMARK    3  A    between atoms: C_21  and  C_23
REMARK    4  A    between atoms: C_24  and  C_25
REMARK                            x       y       z     vdW  Elec       q    Type
REMARK                         _______ _______ _______ _____ _____    ______ ____
ROOT
ATOM      1  C   UNL     1       5.763  -2.987  -1.332  0.00  0.00    +0.206 C 
ATOM      2  N   UNL     1       5.557  -2.130  -2.523  0.00  0.00    -0.231 NA
ATOM      3  N   UNL     1       6.862  -2.029  -3.198  0.00  0.00    -0.224 NA
ATOM      4  C   UNL     1       7.561  -3.251  -2.752  0.00  0.00    +0.240 C 
ATOM      5  N   UNL     1       7.215  -3.273  -1.292  0.00  0.00    -0.206 N 
ATOM      6  N   UNL     1       8.304  -3.454  -0.467  0.00  0.00    -0.174 NA
ATOM      7  C   UNL     1       9.534  -3.295  -0.874  0.00  0.00    +0.118 C 
ATOM      8  S   UNL     1       9.372  -2.993  -2.661  0.00  0.00    -0.063 S 
ATOM      9  H   UNL     1       4.861  -2.525  -3.138  0.00  0.00    +0.143 HD
ATOM     10  H   UNL     1       6.751  -2.022  -4.201  0.00  0.00    +0.144 HD
ENDROOT
BRANCH   1  13
ATOM     11  C   UNL     1       3.699  -0.689  -0.037  0.00  0.00    +0.091 C 
ATOM     12  C   UNL     1       3.832  -2.029  -0.051  0.00  0.00    +0.034 C 
ATOM     13  C   UNL     1       5.335  -2.245  -0.065  0.00  0.00    +0.190 C 
ATOM     14  N   UNL     1       5.871  -0.874  -0.056  0.00  0.00    -0.176 NA
ATOM     15  N   UNL     1       4.919  -0.090  -0.047  0.00  0.00    -0.154 NA
BRANCH  11  19
ATOM     16  C   UNL     1      -0.017   1.379   0.010  0.00  0.00    +0.000 A 
ATOM     17  C   UNL     1       1.169   2.092   0.002  0.00  0.00    +0.001 A 
ATOM     18  C   UNL     1       2.377   1.426  -0.013  0.00  0.00    +0.010 A 
ATOM     19  C   UNL     1       2.402   0.033  -0.021  0.00  0.00    +0.002 A 
ATOM     20  C   UNL     1       1.205  -0.680  -0.013  0.00  0.00    +0.010 A 
ATOM     21  C   UNL     1       0.002  -0.004   0.002  0.00  0.00    +0.001 A 
ENDBRANCH  11  19
ENDBRANCH   1  13
BRANCH   7  22
ATOM     22  C   UNL     1      10.764  -3.354  -0.079  0.00  0.00    +0.037 C 
ATOM     23  C   UNL     1      10.699  -3.599   1.244  0.00  0.00    +0.012 C 
BRANCH  23  24
ATOM     24  C   UNL     1      11.934  -3.659   2.043  0.00  0.00    -0.007 A 
ATOM     25  C   UNL     1      13.176  -3.455   1.433  0.00  0.00    +0.011 A 
ATOM     26  C   UNL     1      14.328  -3.512   2.187  0.00  0.00    +0.020 A 
ATOM     27  C   UNL     1      14.259  -3.771   3.547  0.00  0.00    +0.042 A 
ATOM     28  C   UNL     1      13.034  -3.973   4.158  0.00  0.00    +0.040 A 
ATOM     29  C   UNL     1      11.871  -3.913   3.417  0.00  0.00    +0.049 A 
ATOM     30 CL   UNL     1      10.334  -4.159   4.187  0.00  0.00    -0.083 Cl
ATOM     31 CL   UNL     1      15.716  -3.841   4.488  0.00  0.00    -0.083 Cl
ENDBRANCH  23  24
ENDBRANCH   7  22
TORSDOF 4
