REMARK  Name = ZINC46581048
REMARK  9 active torsions:
REMARK  status: ('A' for Active; 'I' for Inactive)
REMARK    1  A    between atoms: C_1  and  C_2
REMARK    2  A    between atoms: C_2  and  C_3
REMARK    3  A    between atoms: C_2  and  C_4
REMARK    4  A    between atoms: C_4  and  C_6
REMARK    5  A    between atoms: C_4  and  N_23
REMARK    6  A    between atoms: N_8  and  C_9
REMARK    7  A    between atoms: C_12  and  O_21
REMARK    8  A    between atoms: C_13  and  N_15
REMARK    9  A    between atoms: O_21  and  C_22
REMARK                            x       y       z     vdW  Elec       q    Type
REMARK                         _______ _______ _______ _____ _____    ______ ____
ROOT
ATOM      1  C   UNL     1      -2.675  -0.081   0.701  0.00  0.00    +0.238 C 
ATOM      2  O   UNL     1      -3.482  -0.849   1.179  0.00  0.00    -0.273 OA
ATOM      3  N   UNL     1      -2.535   1.157   1.216  0.00  0.00    -0.284 N 
ATOM      4  H   UNL     1      -1.849   1.750   0.873  0.00  0.00    +0.155 HD
ENDROOT
BRANCH   3   5
ATOM      5  C   UNL     1      -3.383   1.587   2.245  0.00  0.00    +0.035 A 
ATOM      6  C   UNL     1      -3.801   0.691   3.220  0.00  0.00    +0.027 A 
ATOM      7  C   UNL     1      -4.637   1.112   4.236  0.00  0.00    +0.049 A 
ATOM      8  C   UNL     1      -5.060   2.430   4.286  0.00  0.00    +0.142 A 
ATOM      9  C   UNL     1      -4.642   3.333   3.311  0.00  0.00    +0.080 A 
ATOM     10  C   UNL     1      -3.799   2.910   2.294  0.00  0.00    +0.050 A 
BRANCH   9  11
ATOM     11  N   UNL     1      -5.068   4.667   3.360  0.00  0.00    -0.268 N 
ATOM     12  C   UNL     1      -4.353   5.740   4.060  0.00  0.00    +0.114 C 
ATOM     13  C   UNL     1      -4.925   7.057   3.490  0.00  0.00    +0.029 C 
ATOM     14  C   UNL     1      -6.330   6.613   3.021  0.00  0.00    +0.098 C 
ATOM     15  C   UNL     1      -6.183   5.129   2.767  0.00  0.00    +0.220 C 
ATOM     16  O   UNL     1      -6.959   4.453   2.124  0.00  0.00    -0.275 OA
ENDBRANCH   9  11
BRANCH   8  17
ATOM     17  O   UNL     1      -5.883   2.844   5.287  0.00  0.00    -0.493 OA
ATOM     18  C   UNL     1      -6.272   1.865   6.253  0.00  0.00    +0.277 C 
ENDBRANCH   8  17
ENDBRANCH   3   5
BRANCH   1  19
ATOM     19  C   UNL     1      -1.827  -0.510  -0.469  0.00  0.00    +0.163 C 
BRANCH  19  20
ATOM     20  N   UNL     1      -2.499  -1.597  -1.186  0.00  0.00    -0.288 N 
ATOM     21  C   UNL     1      -2.234  -1.809  -2.490  0.00  0.00    +0.298 C 
ATOM     22  O   UNL     1      -1.437  -1.098  -3.072  0.00  0.00    -0.253 OA
ATOM     23  N   UNL     1      -2.852  -2.809  -3.150  0.00  0.00    -0.313 N 
ATOM     24  H   UNL     1      -3.135  -2.164  -0.722  0.00  0.00    +0.151 HD
ATOM     25  H   UNL     1      -3.487  -3.376  -2.685  0.00  0.00    +0.146 HD
ATOM     26  H   UNL     1      -2.661  -2.961  -4.088  0.00  0.00    +0.146 HD
ENDBRANCH  19  20
BRANCH  19  28
ATOM     27  C   UNL     1      -0.675  -2.128   1.047  0.00  0.00    +0.009 C 
ATOM     28  C   UNL     1      -0.468  -0.997   0.038  0.00  0.00    +0.012 C 
ATOM     29  C   UNL     1       0.362  -1.510  -1.141  0.00  0.00    +0.009 C 
ENDBRANCH  19  28
ENDBRANCH   1  19
TORSDOF 6
