REMARK  Name = ZINC54201417
REMARK  9 active torsions:
REMARK  status: ('A' for Active; 'I' for Inactive)
REMARK    1  A    between atoms: C_1  and  N_2
REMARK    2  A    between atoms: N_2  and  C_3
REMARK    3  A    between atoms: N_2  and  C_4
REMARK    4  A    between atoms: C_7  and  C_10
REMARK    5  A    between atoms: C_18  and  C_31
REMARK    6  A    between atoms: C_21  and  C_23
REMARK    7  A    between atoms: C_26  and  O_29
REMARK    8  A    between atoms: O_29  and  C_30
REMARK    9  A    between atoms: C_36  and  O_37
REMARK                            x       y       z     vdW  Elec       q    Type
REMARK                         _______ _______ _______ _____ _____    ______ ____
ROOT
ATOM      1  C   UNL     1      -0.006  -2.791  -4.886  0.00  0.00    +0.028 C 
ATOM      2  C   UNL     1      -0.124  -2.110  -6.055  0.00  0.00    +0.079 C 
ATOM      3  C   UNL     1      -0.256  -2.619  -7.440  0.00  0.00    +0.276 C 
ATOM      4  O   UNL     1      -0.274  -3.815  -7.687  0.00  0.00    -0.267 OA
ATOM      5  N   UNL     1      -0.354  -1.714  -8.387  0.00  0.00    -0.152 NA
ATOM      6  C   UNL     1      -0.337  -0.415  -8.133  0.00  0.00    +0.174 C 
ATOM      7  S   UNL     1      -0.171  -0.348  -6.356  0.00  0.00    -0.050 S 
ATOM      8  N   UNL     1      -0.429   0.627  -9.018  0.00  0.00    -0.195 N 
ATOM      9  C   UNL     1      -0.576   0.500 -10.476  0.00  0.00    +0.139 C 
ATOM     10  C   UNL     1      -0.630   1.962 -10.963  0.00  0.00    +0.087 C 
ATOM     11  C   UNL     1      -0.504   2.773  -9.694  0.00  0.00    +0.069 C 
ATOM     12  N   UNL     1      -0.405   1.979  -8.683  0.00  0.00    -0.182 NA
ENDROOT
BRANCH   1  16
ATOM     13  C   UNL     1      -0.170  -0.711  -1.200  0.00  0.00    +0.029 A 
ATOM     14  C   UNL     1      -0.463  -0.044  -2.387  0.00  0.00    +0.023 A 
ATOM     15  C   UNL     1      -0.411  -0.713  -3.582  0.00  0.00    +0.010 A 
ATOM     16  C   UNL     1      -0.062  -2.070  -3.609  0.00  0.00    -0.024 A 
ATOM     17  C   UNL     1       0.232  -2.737  -2.412  0.00  0.00    +0.010 A 
ATOM     18  C   UNL     1       0.182  -2.058  -1.222  0.00  0.00    +0.023 A 
BRANCH  13  20
ATOM     19  C   UNL     1       0.090  -0.726   1.260  0.00  0.00    +0.129 C 
ATOM     20  N   UNL     1      -0.224  -0.028   0.011  0.00  0.00    -0.336 N 
ATOM     21  C   UNL     1      -0.594   1.389   0.036  0.00  0.00    +0.129 C 
ENDBRANCH  13  20
ENDBRANCH   1  16
BRANCH  11  22
ATOM     22  C   UNL     1      -0.501   4.245  -9.622  0.00  0.00    -0.002 A 
ATOM     23  C   UNL     1      -0.627   5.004 -10.789  0.00  0.00    +0.013 A 
ATOM     24  C   UNL     1      -0.625   6.380 -10.717  0.00  0.00    +0.046 A 
ATOM     25  C   UNL     1      -0.497   7.013  -9.487  0.00  0.00    +0.120 A 
ATOM     26  C   UNL     1      -0.371   6.263  -8.325  0.00  0.00    +0.046 A 
ATOM     27  C   UNL     1      -0.378   4.887  -8.386  0.00  0.00    +0.013 A 
BRANCH  25  28
ATOM     28  O   UNL     1      -0.494   8.370  -9.421  0.00  0.00    -0.495 OA
ATOM     29  C   UNL     1      -0.359   8.957  -8.125  0.00  0.00    +0.277 C 
ENDBRANCH  25  28
ENDBRANCH  11  22
BRANCH   9  30
ATOM     30  C   UNL     1      -1.853  -0.224 -10.819  0.00  0.00    +0.017 A 
ATOM     31  C   UNL     1      -2.905  -0.231  -9.924  0.00  0.00    +0.009 A 
ATOM     32  C   UNL     1      -4.077  -0.895 -10.238  0.00  0.00    +0.001 A 
ATOM     33  C   UNL     1      -4.198  -1.554 -11.448  0.00  0.00    +0.004 A 
ATOM     34  C   UNL     1      -3.149  -1.549 -12.347  0.00  0.00    +0.046 A 
ATOM     35  C   UNL     1      -1.974  -0.879 -12.036  0.00  0.00    +0.122 A 
BRANCH  35  36
ATOM     36  O   UNL     1      -0.942  -0.868 -12.921  0.00  0.00    -0.506 OA
ATOM     37  H   UNL     1      -0.323  -1.603 -12.812  0.00  0.00    +0.292 HD
ENDBRANCH  35  36
ENDBRANCH   9  30
TORSDOF 6
