REMARK  Name = ZINC39724524
REMARK  7 active torsions:
REMARK  status: ('A' for Active; 'I' for Inactive)
REMARK    1  A    between atoms: C_1  and  C_2
REMARK    2  A    between atoms: C_5  and  C_8
REMARK    3  A    between atoms: C_12  and  S_15
REMARK    4  A    between atoms: N_13  and  C_14
REMARK    5  A    between atoms: S_15  and  C_16
REMARK    6  A    between atoms: C_16  and  C_17
REMARK    7  A    between atoms: C_25  and  C_29
REMARK                            x       y       z     vdW  Elec       q    Type
REMARK                         _______ _______ _______ _____ _____    ______ ____
ROOT
ATOM      1  C   UNL     1       4.232  -7.081   0.071  0.00  0.00    +0.151 C 
ENDROOT
BRANCH   1   2
ATOM      2  C   UNL     1       5.380  -7.823   0.706  0.00  0.00    +0.121 A 
ATOM      3  N   UNL     1       6.267  -8.454  -0.106  0.00  0.00    -0.310 N 
ATOM      4  H   UNL     1       6.148  -8.418  -1.068  0.00  0.00    +0.170 HD
ATOM      5  C   UNL     1       7.315  -9.134   0.415  0.00  0.00    +0.259 A 
ATOM      6  O   UNL     1       8.117  -9.704  -0.300  0.00  0.00    -0.267 OA
ATOM      7  C   UNL     1       7.446  -9.157   1.882  0.00  0.00    +0.065 A 
ATOM      8  C   UNL     1       8.491  -9.828   2.515  0.00  0.00    +0.016 A 
ATOM      9  C   UNL     1       8.575  -9.823   3.878  0.00  0.00    +0.016 A 
ATOM     10  C   UNL     1       7.620  -9.148   4.649  0.00  0.00    +0.065 A 
ATOM     11  C   UNL     1       6.570  -8.472   4.037  0.00  0.00    +0.043 A 
ATOM     12  C   UNL     1       6.475  -8.471   2.644  0.00  0.00    +0.079 A 
ATOM     13  N   UNL     1       5.473  -7.821   2.001  0.00  0.00    -0.233 NA
BRANCH  10  14
ATOM     14  C   UNL     1       7.729  -9.154   6.123  0.00  0.00    +0.387 C 
ATOM     15  O   UNL     1       8.650  -9.747   6.666  0.00  0.00    -0.241 OA
ATOM     16  O   UNL     1       6.897  -8.566   6.800  0.00  0.00    -0.241 OA
ENDBRANCH  10  14
ENDBRANCH   1   2
BRANCH   1  17
ATOM     17  S   UNL     1       3.209  -6.327   1.365  0.00  0.00    -0.081 S 
BRANCH  17  21
ATOM     18  C   UNL     1       0.061  -4.273  -0.022  0.00  0.00    +0.208 C 
ATOM     19  N   UNL     1       0.716  -4.776  -1.242  0.00  0.00    -0.242 N 
ATOM     20  N   UNL     1       1.831  -5.506  -0.813  0.00  0.00    -0.162 NA
ATOM     21  C   UNL     1       1.929  -5.508   0.474  0.00  0.00    +0.175 C 
ATOM     22  N   UNL     1       0.902  -4.787   1.073  0.00  0.00    -0.288 N 
ATOM     23  C   UNL     1       0.695  -4.579   2.508  0.00  0.00    +0.133 C 
ATOM     24  H   UNL     1       0.432  -4.631  -2.158  0.00  0.00    +0.170 HD
BRANCH  18  29
ATOM     25  C   UNL     1      -0.001   1.505   0.009  0.00  0.00    +0.044 C 
ATOM     26  C   UNL     1       0.015  -0.002   0.001  0.00  0.00    -0.050 A 
ATOM     27  C   UNL     1       1.219  -0.680  -0.053  0.00  0.00    +0.004 A 
ATOM     28  C   UNL     1       1.234  -2.062  -0.060  0.00  0.00    +0.007 A 
ATOM     29  C   UNL     1       0.045  -2.766  -0.013  0.00  0.00    -0.008 A 
ATOM     30  C   UNL     1      -1.158  -2.088   0.042  0.00  0.00    +0.007 A 
ATOM     31  C   UNL     1      -1.173  -0.706   0.054  0.00  0.00    +0.004 A 
ENDBRANCH  18  29
ENDBRANCH  17  21
ENDBRANCH   1  17
TORSDOF 5
