REMARK  Name = ZINC53639880
REMARK  8 active torsions:
REMARK  status: ('A' for Active; 'I' for Inactive)
REMARK    1  A    between atoms: C_1  and  C_2
REMARK    2  A    between atoms: C_4  and  C_7
REMARK    3  A    between atoms: N_10  and  C_13
REMARK    4  A    between atoms: C_13  and  C_15
REMARK    5  A    between atoms: C_13  and  C_16
REMARK    6  A    between atoms: N_18  and  C_19
REMARK    7  A    between atoms: C_19  and  C_21
REMARK    8  A    between atoms: C_19  and  C_22
REMARK                            x       y       z     vdW  Elec       q    Type
REMARK                         _______ _______ _______ _____ _____    ______ ____
ROOT
ATOM      1  C   UNL     1       1.377  -8.037  -2.668  0.00  0.00    +0.200 C 
ATOM      2  O   UNL     1       2.168  -7.643  -1.838  0.00  0.00    -0.278 OA
ATOM      3  N   UNL     1       1.656  -9.137  -3.395  0.00  0.00    -0.310 N 
ATOM      4  H   UNL     1       1.023  -9.453  -4.059  0.00  0.00    +0.149 HD
ENDROOT
BRANCH   1   5
ATOM      5  C   UNL     1       0.082  -7.298  -2.886  0.00  0.00    +0.016 C 
ATOM      6  C   UNL     1      -1.003  -7.893  -1.987  0.00  0.00    -0.004 C 
BRANCH   5  10
ATOM      7  C   UNL     1       0.276  -3.052  -3.192  0.00  0.00    +0.074 C 
ATOM      8  C   UNL     1       1.569  -3.854  -3.019  0.00  0.00    -0.006 C 
ATOM      9  C   UNL     1       1.315  -5.311  -3.413  0.00  0.00    -0.077 C 
ATOM     10  N   UNL     1       0.268  -5.878  -2.556  0.00  0.00    +0.387 N 
ATOM     11  C   UNL     1      -0.994  -5.159  -2.770  0.00  0.00    -0.077 C 
ATOM     12  C   UNL     1      -0.829  -3.697  -2.351  0.00  0.00    -0.006 C 
ATOM     13  H   UNL     1       0.542  -5.793  -1.589  0.00  0.00    -0.081 HD
BRANCH   7  17
ATOM     14  C   UNL     1       0.587   1.948  -3.235  0.00  0.00    +0.091 C 
ATOM     15  C   UNL     1       0.636   0.526  -2.736  0.00  0.00    +0.169 A 
ATOM     16  N   UNL     1       0.361  -0.563  -3.462  0.00  0.00    -0.196 NA
ATOM     17  C   UNL     1       0.498  -1.634  -2.731  0.00  0.00    +0.230 A 
ATOM     18  O   UNL     1       0.869  -1.258  -1.501  0.00  0.00    -0.338 OA
ATOM     19  N   UNL     1       0.959   0.159  -1.529  0.00  0.00    -0.062 NA
ENDBRANCH   7  17
ENDBRANCH   5  10
ENDBRANCH   1   5
BRANCH   3  20
ATOM     20  C   UNL     1       2.914  -9.857  -3.183  0.00  0.00    +0.100 C 
ATOM     21  C   UNL     1       2.749 -10.843  -2.025  0.00  0.00    +0.033 C 
BRANCH  20  22
ATOM     22  C   UNL     1       3.280 -10.610  -4.435  0.00  0.00    -0.027 A 
ATOM     23  C   UNL     1       2.300 -11.248  -5.173  0.00  0.00    +0.006 A 
ATOM     24  C   UNL     1       2.643 -11.937  -6.317  0.00  0.00    +0.004 A 
ATOM     25  C   UNL     1       3.966 -11.995  -6.736  0.00  0.00    -0.044 A 
ATOM     26  C   UNL     1       4.942 -11.356  -6.005  0.00  0.00    -0.044 A 
ATOM     27  C   UNL     1       4.594 -10.660  -4.854  0.00  0.00    +0.009 A 
ATOM     28  C   UNL     1       6.393 -11.363  -6.408  0.00  0.00    +0.035 C 
ATOM     29  C   UNL     1       6.667 -12.485  -7.408  0.00  0.00    +0.005 C 
ATOM     30  C   UNL     1       5.641 -12.384  -8.542  0.00  0.00    +0.005 C 
ATOM     31  C   UNL     1       4.271 -12.773  -7.989  0.00  0.00    +0.035 C 
ENDBRANCH  20  22
ENDBRANCH   3  20
TORSDOF 5
