REMARK  Name = ZINC04764131
REMARK  9 active torsions:
REMARK  status: ('A' for Active; 'I' for Inactive)
REMARK    1  A    between atoms: C_1  and  C_2
REMARK    2  A    between atoms: C_7  and  C_23
REMARK    3  A    between atoms: C_9  and  C_13
REMARK    4  A    between atoms: C_10  and  C_12
REMARK    5  A    between atoms: C_13  and  O_15
REMARK    6  A    between atoms: O_15  and  C_16
REMARK    7  A    between atoms: C_32  and  C_34
REMARK    8  A    between atoms: C_34  and  O_36
REMARK    9  A    between atoms: O_36  and  C_37
REMARK                            x       y       z     vdW  Elec       q    Type
REMARK                         _______ _______ _______ _____ _____    ______ ____
ROOT
ATOM      1  C   UNL     1      -4.899   4.061  -2.702  0.00  0.00    +0.009 C 
ATOM      2  C   UNL     1      -5.690   3.995  -1.394  0.00  0.00    +0.013 C 
ATOM      3  C   UNL     1      -4.802   4.446  -0.233  0.00  0.00    +0.055 C 
ATOM      4  C   UNL     1      -3.617   3.520  -0.111  0.00  0.00    +0.016 C 
ATOM      5  C   UNL     1      -3.713   2.219  -0.459  0.00  0.00    +0.025 C 
ATOM      6  C   UNL     1      -2.529   1.296  -0.322  0.00  0.00    +0.092 C 
ATOM      7  C   UNL     1      -1.251   2.074  -0.202  0.00  0.00    +0.065 C 
ATOM      8  C   UNL     1      -1.256   3.375   0.134  0.00  0.00    +0.016 C 
ATOM      9  N   UNL     1      -2.436   4.028   0.358  0.00  0.00    -0.321 N 
ATOM     10  C   UNL     1       0.048   4.121   0.258  0.00  0.00    +0.061 C 
ATOM     11  C   UNL     1      -4.916   1.688  -0.958  0.00  0.00    +0.176 C 
ATOM     12  O   UNL     1      -4.971   0.511  -1.252  0.00  0.00    -0.291 OA
ATOM     13  C   UNL     1      -6.135   2.552  -1.134  0.00  0.00    +0.171 C 
ATOM     14  H   UNL     1      -2.429   4.972   0.923  0.00  0.00    +0.152 HD
ENDROOT
BRANCH   6  15
ATOM     15  C   UNL     1      -2.706   0.442   0.907  0.00  0.00    -0.034 A 
ATOM     16  C   UNL     1      -2.780   1.034   2.155  0.00  0.00    +0.004 A 
ATOM     17  C   UNL     1      -2.947   0.252   3.282  0.00  0.00    +0.002 A 
ATOM     18  C   UNL     1      -3.029  -1.123   3.164  0.00  0.00    +0.020 A 
ATOM     19  C   UNL     1      -2.950  -1.716   1.917  0.00  0.00    +0.041 A 
ATOM     20  C   UNL     1      -2.788  -0.932   0.788  0.00  0.00    +0.024 A 
ATOM     21 CL   UNL     1      -3.053  -3.442   1.768  0.00  0.00    -0.084 Cl
ENDBRANCH   6  15
BRANCH   7  22
ATOM     22  C   UNL     1      -0.018   1.424  -0.442  0.00  0.00    +0.338 C 
ATOM     23  O   UNL     1       1.015   2.067  -0.464  0.00  0.00    -0.245 OA
BRANCH  22  24
ATOM     24  O   UNL     1       0.013   0.091  -0.652  0.00  0.00    -0.458 OA
BRANCH  24  25
ATOM     25  C   UNL     1       1.292  -0.498  -0.894  0.00  0.00    +0.177 C 
ATOM     26  C   UNL     1       1.602  -0.417  -2.403  0.00  0.00    +0.044 C 
ATOM     27  C   UNL     1       3.089  -0.548  -2.593  0.00  0.00    +0.004 C 
ATOM     28  C   UNL     1       3.522  -2.000  -2.874  0.00  0.00    +0.000 C 
ATOM     29  C   UNL     1       2.784  -3.024  -1.991  0.00  0.00    +0.000 C 
ATOM     30  C   UNL     1       2.647  -2.563  -0.565  0.00  0.00    +0.004 C 
ATOM     31  C   UNL     1       1.280  -1.869  -0.404  0.00  0.00    +0.044 C 
ENDBRANCH  24  25
ENDBRANCH  22  24
ENDBRANCH   7  22
BRANCH  13  32
ATOM     32  C   UNL     1      -6.943   2.055  -2.305  0.00  0.00    +0.318 C 
ATOM     33  O   UNL     1      -7.144   2.778  -3.251  0.00  0.00    -0.250 OA
BRANCH  32  34
ATOM     34  O   UNL     1      -7.440   0.808  -2.296  0.00  0.00    -0.467 OA
ATOM     35  C   UNL     1      -8.208   0.396  -3.457  0.00  0.00    +0.280 C 
ENDBRANCH  32  34
ENDBRANCH  13  32
TORSDOF 6
