REMARK  Name = ZINC12634811
REMARK  13 active torsions:
REMARK  status: ('A' for Active; 'I' for Inactive)
REMARK    1  A    between atoms: C_1  and  C_2
REMARK    2  A    between atoms: C_2  and  C_3
REMARK    3  A    between atoms: C_3  and  C_4
REMARK    4  A    between atoms: C_4  and  N_5
REMARK    5  A    between atoms: N_5  and  C_6
REMARK    6  A    between atoms: N_5  and  S_12
REMARK    7  A    between atoms: S_12  and  C_15
REMARK    8  A    between atoms: C_19  and  C_21
REMARK    9  A    between atoms: C_21  and  O_23
REMARK   10  A    between atoms: O_23  and  C_24
REMARK   11  A    between atoms: C_24  and  C_26
REMARK   12  A    between atoms: C_24  and  C_27
REMARK   13  A    between atoms: N_32  and  C_33
REMARK                            x       y       z     vdW  Elec       q    Type
REMARK                         _______ _______ _______ _____ _____    ______ ____
ROOT
ATOM      1  C   UNL     1     -10.532   2.967   1.397  0.00  0.00    +0.109 A 
ATOM      2  C   UNL     1     -10.608   4.312   1.081  0.00  0.00    +0.029 A 
ATOM      3  C   UNL     1      -9.528   4.956   0.503  0.00  0.00    +0.003 A 
ATOM      4  C   UNL     1      -8.365   4.261   0.244  0.00  0.00    +0.015 A 
ATOM      5  C   UNL     1      -8.283   2.902   0.556  0.00  0.00    +0.061 A 
ATOM      6  C   UNL     1      -9.377   2.259   1.138  0.00  0.00    +0.043 A 
ENDROOT
BRANCH   1   7
ATOM      7  S   UNL     1     -11.913   2.157   2.133  0.00  0.00    +0.075 S 
ATOM      8  O   UNL     1     -13.075   2.823   1.658  0.00  0.00    -0.150 OA
ATOM      9  O   UNL     1     -11.708   0.762   1.955  0.00  0.00    -0.150 OA
BRANCH   7  10
ATOM     10  N   UNL     1     -11.837   2.442   3.762  0.00  0.00    -0.203 N 
BRANCH  10  11
ATOM     11  C   UNL     1     -11.190   1.531   4.601  0.00  0.00    +0.051 A 
ATOM     12  C   UNL     1     -11.552   1.440   5.939  0.00  0.00    +0.025 A 
ATOM     13  C   UNL     1     -10.914   0.535   6.765  0.00  0.00    +0.002 A 
ATOM     14  C   UNL     1      -9.909  -0.272   6.263  0.00  0.00    +0.000 A 
ATOM     15  C   UNL     1      -9.543  -0.179   4.933  0.00  0.00    +0.002 A 
ATOM     16  C   UNL     1     -10.180   0.720   4.101  0.00  0.00    +0.025 A 
ENDBRANCH  10  11
BRANCH  10  17
ATOM     17  C   UNL     1     -12.447   3.650   4.324  0.00  0.00    +0.131 C 
BRANCH  17  18
ATOM     18  C   UNL     1     -13.859   3.325   4.817  0.00  0.00    +0.020 C 
BRANCH  18  20
ATOM     19  C   UNL     1     -15.908   4.262   5.896  0.00  0.00    +0.004 C 
ATOM     20  C   UNL     1     -14.496   4.587   5.404  0.00  0.00    -0.002 C 
ENDBRANCH  18  20
ENDBRANCH  17  18
ENDBRANCH  10  17
ENDBRANCH   7  10
ENDBRANCH   1   7
BRANCH   5  21
ATOM     21  C   UNL     1      -7.043   2.151   0.276  0.00  0.00    +0.340 C 
ATOM     22  O   UNL     1      -6.972   0.970   0.553  0.00  0.00    -0.245 OA
BRANCH  21  23
ATOM     23  O   UNL     1      -5.989   2.774  -0.286  0.00  0.00    -0.449 OA
BRANCH  23  24
ATOM     24  C   UNL     1      -4.803   1.974  -0.532  0.00  0.00    +0.259 C 
ATOM     25  C   UNL     1      -4.886   1.355  -1.929  0.00  0.00    +0.062 C 
BRANCH  24  26
ATOM     26  C   UNL     1      -3.579   2.848  -0.442  0.00  0.00    +0.261 C 
ATOM     27  O   UNL     1      -3.695   4.029  -0.195  0.00  0.00    -0.271 OA
ATOM     28  N   UNL     1      -2.356   2.317  -0.636  0.00  0.00    -0.237 N 
ATOM     29  C   UNL     1      -1.261   3.099  -0.556  0.00  0.00    +0.306 C 
ATOM     30  O   UNL     1      -1.377   4.283  -0.308  0.00  0.00    -0.252 OA
ATOM     31  N   UNL     1      -0.038   2.567  -0.750  0.00  0.00    -0.296 N 
ATOM     32  H   UNL     1      -2.263   1.372  -0.834  0.00  0.00    +0.159 HD
ATOM     33  H   UNL     1       0.055   1.622  -0.948  0.00  0.00    +0.151 HD
BRANCH  31  34
ATOM     34  C   UNL     1       1.152   3.419  -0.668  0.00  0.00    +0.074 C 
ATOM     35  C   UNL     1       1.387   4.098  -2.019  0.00  0.00    +0.022 C 
ATOM     36  C   UNL     1       2.629   4.987  -1.934  0.00  0.00    +0.002 C 
ATOM     37  C   UNL     1       3.845   4.130  -1.575  0.00  0.00    +0.000 C 
ATOM     38  C   UNL     1       3.610   3.451  -0.225  0.00  0.00    +0.002 C 
ATOM     39  C   UNL     1       2.368   2.562  -0.310  0.00  0.00    +0.022 C 
ENDBRANCH  31  34
ENDBRANCH  24  26
ENDBRANCH  23  24
ENDBRANCH  21  23
ENDBRANCH   5  21
TORSDOF 11
