REMARK  Name = ZINC25377096
REMARK  10 active torsions:
REMARK  status: ('A' for Active; 'I' for Inactive)
REMARK    1  A    between atoms: C_1  and  C_2
REMARK    2  A    between atoms: C_2  and  C_3
REMARK    3  A    between atoms: C_3  and  C_4
REMARK    4  A    between atoms: C_4  and  N_5
REMARK    5  A    between atoms: C_6  and  C_27
REMARK    6  A    between atoms: C_8  and  C_14
REMARK    7  A    between atoms: N_16  and  C_17
REMARK    8  A    between atoms: C_17  and  C_18
REMARK    9  A    between atoms: C_32  and  O_33
REMARK   10  A    between atoms: O_33  and  C_34
REMARK                            x       y       z     vdW  Elec       q    Type
REMARK                         _______ _______ _______ _____ _____    ______ ____
ROOT
ATOM      1  N   UNL     1       0.385  -0.309   1.623  0.00  0.00    -0.294 N 
ATOM      2  C   UNL     1      -0.575   0.101   0.606  0.00  0.00    +0.122 C 
ATOM      3  C   UNL     1      -0.160   1.435  -0.015  0.00  0.00    +0.100 C 
ATOM      4  C   UNL     1       1.307   1.339  -0.451  0.00  0.00    +0.024 C 
ATOM      5  C   UNL     1       2.178   1.227   0.803  0.00  0.00    +0.097 C 
ATOM      6  C   UNL     1       1.627   0.168   1.714  0.00  0.00    +0.216 C 
ATOM      7  O   UNL     1       2.351  -0.278   2.579  0.00  0.00    -0.276 OA
ENDROOT
BRANCH   2   8
ATOM      8  C   UNL     1      -1.936   0.247   1.236  0.00  0.00    +0.015 A 
ATOM      9  C   UNL     1      -3.042  -0.321   0.633  0.00  0.00    +0.009 A 
ATOM     10  C   UNL     1      -4.290  -0.191   1.213  0.00  0.00    +0.001 A 
ATOM     11  C   UNL     1      -4.437   0.515   2.392  0.00  0.00    +0.004 A 
ATOM     12  C   UNL     1      -3.336   1.089   2.997  0.00  0.00    +0.046 A 
ATOM     13  C   UNL     1      -2.081   0.956   2.420  0.00  0.00    +0.125 A 
BRANCH  13  14
ATOM     14  O   UNL     1      -0.996   1.520   3.013  0.00  0.00    -0.495 OA
ATOM     15  C   UNL     1      -1.220   2.235   4.229  0.00  0.00    +0.277 C 
ENDBRANCH  13  14
ENDBRANCH   2   8
BRANCH   3  16
ATOM     16  C   UNL     1      -1.026   1.726  -1.214  0.00  0.00    +0.219 C 
ATOM     17  O   UNL     1      -1.393   0.820  -1.931  0.00  0.00    -0.275 OA
ATOM     18  N   UNL     1      -1.393   2.994  -1.489  0.00  0.00    -0.309 N 
ATOM     19  H   UNL     1      -1.060   3.816  -0.838  0.00  0.00    +0.149 HD
BRANCH  18  20
ATOM     20  C   UNL     1      -2.234   3.276  -2.654  0.00  0.00    +0.167 C 
BRANCH  20  21
ATOM     21  C   UNL     1      -2.498   4.758  -2.736  0.00  0.00    +0.097 A 
ATOM     22  N   UNL     1      -1.802   5.670  -3.356  0.00  0.00    -0.242 NA
ATOM     23  C   UNL     1      -2.149   6.974  -3.351  0.00  0.00    +0.079 A 
ATOM     24  C   UNL     1      -1.505   8.069  -3.969  0.00  0.00    +0.029 A 
ATOM     25  C   UNL     1      -2.010   9.327  -3.852  0.00  0.00    +0.002 A 
ATOM     26  C   UNL     1      -3.166   9.584  -3.128  0.00  0.00    +0.001 A 
ATOM     27  C   UNL     1      -3.825   8.539  -2.509  0.00  0.00    +0.017 A 
ATOM     28  C   UNL     1      -3.324   7.265  -2.621  0.00  0.00    +0.039 A 
ATOM     29  S   UNL     1      -3.804   5.660  -2.033  0.00  0.00    -0.071 S 
ENDBRANCH  20  21
ENDBRANCH  18  20
ENDBRANCH   3  16
BRANCH   1  30
ATOM     30  C   UNL     1      -0.041  -1.306   2.608  0.00  0.00    +0.108 C 
BRANCH  30  31
ATOM     31  C   UNL     1       0.393  -2.698   2.144  0.00  0.00    +0.019 C 
BRANCH  31  33
ATOM     32  C   UNL     1       0.382  -5.132   2.709  0.00  0.00    +0.004 C 
ATOM     33  C   UNL     1      -0.053  -3.740   3.173  0.00  0.00    -0.002 C 
ENDBRANCH  31  33
ENDBRANCH  30  31
ENDBRANCH   1  30
TORSDOF 8
