REMARK  Name = ZINC64678865
REMARK  6 active torsions:
REMARK  status: ('A' for Active; 'I' for Inactive)
REMARK    1  A    between atoms: C_1  and  N_2
REMARK    2  A    between atoms: N_2  and  C_3
REMARK    3  A    between atoms: C_3  and  C_4
REMARK    4  A    between atoms: C_4  and  C_5
REMARK    5  A    between atoms: C_8  and  C_11
REMARK    6  A    between atoms: C_22  and  C_24
REMARK                            x       y       z     vdW  Elec       q    Type
REMARK                         _______ _______ _______ _____ _____    ______ ____
ROOT
ATOM      1  C   UNL     1      -1.070  -1.794   3.140  0.00  0.00    +0.139 C 
ATOM      2  N   UNL     1       0.059  -2.126   3.651  0.00  0.00    -0.072 NA
ATOM      3  O   UNL     1      -0.120  -2.828   4.867  0.00  0.00    -0.367 OA
ATOM      4  C   UNL     1      -1.538  -2.909   5.080  0.00  0.00    +0.318 C 
ATOM      5  N   UNL     1      -2.121  -2.212   3.923  0.00  0.00    -0.291 N 
ATOM      6  H   UNL     1      -3.065  -2.074   3.746  0.00  0.00    +0.151 HD
ENDROOT
BRANCH   4   7
ATOM      7  C   UNL     1      -1.925  -2.201   6.380  0.00  0.00    +0.165 C 
ATOM      8  C   UNL     1      -3.416  -2.311   6.611  0.00  0.00    +0.012 C 
ATOM      9  C   UNL     1      -3.566  -2.976   7.779  0.00  0.00    -0.002 A 
ATOM     10  C   UNL     1      -4.750  -3.394   8.539  0.00  0.00    +0.029 A 
ATOM     11  C   UNL     1      -4.580  -4.061   9.704  0.00  0.00    +0.042 A 
ATOM     12  C   UNL     1      -3.303  -4.363  10.201  0.00  0.00    +0.022 A 
ATOM     13  C   UNL     1      -2.169  -4.013   9.558  0.00  0.00    +0.027 A 
ATOM     14  C   UNL     1      -2.231  -3.307   8.325  0.00  0.00    +0.043 A 
ATOM     15  N   UNL     1      -1.289  -2.863   7.525  0.00  0.00    -0.373 N 
ATOM     16 CL   UNL     1      -5.977  -4.556  10.607  0.00  0.00    -0.084 Cl
ATOM     17  H   UNL     1      -0.334  -2.956   7.666  0.00  0.00    +0.160 HD
ENDBRANCH   4   7
BRANCH   1  18
ATOM     18  C   UNL     1      -1.226  -1.035   1.847  0.00  0.00    +0.094 C 
BRANCH  18  19
ATOM     19  C   UNL     1       0.155  -0.742   1.259  0.00  0.00    +0.115 C 
BRANCH  19  21
ATOM     20  C   UNL     1      -0.032   1.460   0.012  0.00  0.00    +0.132 C 
ATOM     21  N   UNL     1       0.004  -0.004   0.002  0.00  0.00    -0.300 N 
ATOM     22  C   UNL     1      -0.102  -0.673  -1.163  0.00  0.00    +0.246 C 
ATOM     23  O   UNL     1      -0.179  -1.886  -1.163  0.00  0.00    -0.270 OA
BRANCH  22  24
ATOM     24  C   UNL     1      -0.124   0.069  -2.442  0.00  0.00    +0.037 A 
ATOM     25  C   UNL     1       0.639   1.228  -2.594  0.00  0.00    +0.013 A 
ATOM     26  C   UNL     1       0.614   1.915  -3.789  0.00  0.00    +0.001 A 
ATOM     27  C   UNL     1      -0.166   1.458  -4.837  0.00  0.00    +0.000 A 
ATOM     28  C   UNL     1      -0.925   0.310  -4.694  0.00  0.00    +0.001 A 
ATOM     29  C   UNL     1      -0.904  -0.390  -3.505  0.00  0.00    +0.013 A 
ENDBRANCH  22  24
ENDBRANCH  19  21
ENDBRANCH  18  19
ENDBRANCH   1  18
TORSDOF 5
