REMARK  Name = ZINC39466920
REMARK  5 active torsions:
REMARK  status: ('A' for Active; 'I' for Inactive)
REMARK    1  A    between atoms: C_1  and  C_2
REMARK    2  A    between atoms: C_2  and  O_3
REMARK    3  A    between atoms: O_3  and  C_4
REMARK    4  A    between atoms: P_13  and  C_23
REMARK    5  A    between atoms: C_23  and  C_24
REMARK                            x       y       z     vdW  Elec       q    Type
REMARK                         _______ _______ _______ _____ _____    ______ ____
ROOT
ATOM      1  C   UNL     1       0.802  -1.824   1.306  0.00  0.00    +0.130 C 
ATOM      2  C   UNL     1       0.281  -2.646   0.389  0.00  0.00    +0.023 C 
ATOM      3  C   UNL     1       0.403  -4.135   0.578  0.00  0.00    +0.019 C 
ATOM      4  C   UNL     1      -0.683  -4.864  -0.202  0.00  0.00    -0.002 C 
ATOM      5  C   UNL     1      -2.072  -4.527   0.354  0.00  0.00    -0.020 C 
ATOM      6  C   UNL     1      -3.092  -5.326  -0.467  0.00  0.00    +0.156 C 
ATOM      7  O   UNL     1      -4.423  -5.012  -0.020  0.00  0.00    -0.319 OA
ATOM      8  P   UNL     1      -4.722  -5.095   1.578  0.00  0.00    +0.262 P 
ATOM      9  O   UNL     1      -4.952  -6.500   1.984  0.00  0.00    -0.274 OA
ATOM     10  N   UNL     1      -3.362  -4.505   2.303  0.00  0.00    -0.291 NA
ATOM     11  N   UNL     1      -2.143  -4.873   1.776  0.00  0.00    +0.397 N 
ATOM     12  C   UNL     1      -1.131  -4.123   2.537  0.00  0.00    -0.046 C 
ATOM     13  C   UNL     1       0.261  -4.476   2.064  0.00  0.00    +0.005 C 
ATOM     14  C   UNL     1       1.246  -3.644   2.850  0.00  0.00    -0.007 C 
ATOM     15  C   UNL     1       1.501  -2.393   2.474  0.00  0.00    +0.051 C 
ATOM     16  I   UNL     1       2.882  -1.232   3.540  0.00  0.00    -0.040 I 
ATOM     17  H   UNL     1      -3.421  -3.920   3.075  0.00  0.00    +0.111 HD
ATOM     18  H   UNL     1      -2.005  -5.866   1.891  0.00  0.00    -0.055 HD
ENDROOT
BRANCH   1  19
ATOM     19  O   UNL     1       0.693  -0.477   1.160  0.00  0.00    -0.492 OA
BRANCH  19  21
ATOM     20  C   UNL     1      -0.019   1.526   0.010  0.00  0.00    +0.048 C 
ATOM     21  C   UNL     1       0.002  -0.004   0.002  0.00  0.00    +0.226 C 
ENDBRANCH  19  21
ENDBRANCH   1  19
BRANCH   8  22
ATOM     22  C   UNL     1      -6.168  -4.070   2.005  0.00  0.00    +0.147 C 
BRANCH  22  23
ATOM     23  C   UNL     1      -7.375  -4.566   1.252  0.00  0.00    -0.037 A 
ATOM     24  C   UNL     1      -7.667  -4.056   0.000  0.00  0.00    +0.004 A 
ATOM     25  C   UNL     1      -8.774  -4.511  -0.690  0.00  0.00    +0.000 A 
ATOM     26  C   UNL     1      -9.590  -5.476  -0.130  0.00  0.00    +0.000 A 
ATOM     27  C   UNL     1      -9.298  -5.987   1.121  0.00  0.00    +0.000 A 
ATOM     28  C   UNL     1      -8.188  -5.535   1.810  0.00  0.00    +0.004 A 
ENDBRANCH  22  23
ENDBRANCH   8  22
TORSDOF 4
