REMARK  Name = ZINC14536936
REMARK  10 active torsions:
REMARK  status: ('A' for Active; 'I' for Inactive)
REMARK    1  A    between atoms: C_1  and  C_2
REMARK    2  A    between atoms: C_2  and  C_4
REMARK    3  A    between atoms: C_2  and  N_67
REMARK    4  A    between atoms: C_4  and  C_5
REMARK    5  A    between atoms: C_5  and  C_6
REMARK    6  A    between atoms: C_21  and  C_26
REMARK    7  A    between atoms: N_24  and  C_25
REMARK    8  A    between atoms: C_26  and  C_27
REMARK    9  A    between atoms: C_32  and  O_33
REMARK   10  A    between atoms: O_33  and  C_34
REMARK                            x       y       z     vdW  Elec       q    Type
REMARK                         _______ _______ _______ _____ _____    ______ ____
ROOT
ATOM      1  C   UNL     1       0.549  -0.422  -1.401  0.00  0.00    -0.072 C 
ATOM      2  C   UNL     1       0.888  -1.910  -1.327  0.00  0.00    +0.035 C 
ATOM      3  C   UNL     1      -0.279  -2.681  -0.763  0.00  0.00    +0.021 A 
ATOM      4  C   UNL     1      -1.277  -2.070  -0.091  0.00  0.00    -0.044 A 
ATOM      5  C   UNL     1      -2.337  -2.834   0.431  0.00  0.00    +0.012 A 
ATOM      6  C   UNL     1      -2.350  -4.184   0.251  0.00  0.00    +0.022 A 
ATOM      7  C   UNL     1      -1.299  -4.788  -0.460  0.00  0.00    +0.255 A 
ATOM      8  O   UNL     1      -1.293  -5.996  -0.634  0.00  0.00    -0.267 OA
ATOM      9  N   UNL     1      -0.300  -4.032  -0.946  0.00  0.00    -0.315 N 
ATOM     10  C   UNL     1       0.789  -4.673  -1.688  0.00  0.00    +0.152 C 
ATOM     11  C   UNL     1      -1.304  -0.580   0.128  0.00  0.00    -0.041 C 
ATOM     12  N   UNL     1       0.038  -0.012  -0.078  0.00  0.00    +0.384 N 
ATOM     13  H   UNL     1       0.668  -0.368   0.650  0.00  0.00    -0.081 HD
ENDROOT
BRANCH  12  15
ATOM     14  C   UNL     1      -0.761   2.041  -1.196  0.00  0.00    -0.013 C 
ATOM     15  C   UNL     1      -0.017   1.465   0.011  0.00  0.00    -0.071 C 
BRANCH  15  16
ATOM     16  C   UNL     1       1.411   2.014   0.040  0.00  0.00    -0.011 C 
BRANCH  16  17
ATOM     17  C   UNL     1       2.123   1.518   1.300  0.00  0.00    +0.036 C 
BRANCH  17  18
ATOM     18  C   UNL     1       3.485   2.157   1.391  0.00  0.00    -0.022 A 
ATOM     19  C   UNL     1       4.643   1.632   0.961  0.00  0.00    +0.087 A 
ATOM     20  N   UNL     1       5.670   2.500   1.213  0.00  0.00    -0.360 N 
ATOM     21  H   UNL     1       6.601   2.340   0.993  0.00  0.00    +0.165 HD
ATOM     22  C   UNL     1       5.186   3.633   1.828  0.00  0.00    +0.047 A 
ATOM     23  C   UNL     1       3.795   3.470   1.961  0.00  0.00    +0.003 A 
ATOM     24  C   UNL     1       3.030   4.477   2.552  0.00  0.00    +0.010 A 
ATOM     25  C   UNL     1       3.636   5.618   2.996  0.00  0.00    +0.001 A 
ATOM     26  C   UNL     1       5.008   5.785   2.863  0.00  0.00    +0.002 A 
ATOM     27  C   UNL     1       5.783   4.801   2.290  0.00  0.00    +0.026 A 
ENDBRANCH  17  18
ENDBRANCH  16  17
ENDBRANCH  15  16
ENDBRANCH  12  15
BRANCH   6  28
ATOM     28  C   UNL     1      -3.477  -5.018   0.805  0.00  0.00    +0.079 C 
BRANCH  28  29
ATOM     29  C   UNL     1      -4.518  -5.229  -0.264  0.00  0.00    -0.001 A 
ATOM     30  C   UNL     1      -5.617  -4.394  -0.333  0.00  0.00    +0.007 A 
ATOM     31  C   UNL     1      -6.570  -4.585  -1.315  0.00  0.00    +0.001 A 
ATOM     32  C   UNL     1      -6.432  -5.617  -2.225  0.00  0.00    +0.004 A 
ATOM     33  C   UNL     1      -5.338  -6.457  -2.158  0.00  0.00    +0.046 A 
ATOM     34  C   UNL     1      -4.377  -6.265  -1.175  0.00  0.00    +0.124 A 
BRANCH  34  35
ATOM     35  O   UNL     1      -3.300  -7.090  -1.106  0.00  0.00    -0.495 OA
ATOM     36  C   UNL     1      -3.220  -8.135  -2.078  0.00  0.00    +0.277 C 
ENDBRANCH  34  35
ENDBRANCH  28  29
ENDBRANCH   6  28
TORSDOF 7
