REMARK  Name = ZINC64053205
REMARK  8 active torsions:
REMARK  status: ('A' for Active; 'I' for Inactive)
REMARK    1  A    between atoms: C_4  and  C_7
REMARK    2  A    between atoms: C_7  and  C_9
REMARK    3  A    between atoms: C_13  and  N_14
REMARK    4  A    between atoms: C_15  and  C_17
REMARK    5  A    between atoms: C_17  and  O_18
REMARK    6  A    between atoms: O_18  and  C_19
REMARK    7  A    between atoms: C_19  and  C_21
REMARK    8  A    between atoms: C_21  and  C_22
REMARK                            x       y       z     vdW  Elec       q    Type
REMARK                         _______ _______ _______ _____ _____    ______ ____
ROOT
ATOM      1  N   UNL     1       1.119  -2.236  -0.124  0.00  0.00    -0.277 N 
ATOM      2  C   UNL     1       0.028  -3.024  -0.059  0.00  0.00    +0.255 C 
ATOM      3  O   UNL     1       0.152  -4.226   0.035  0.00  0.00    -0.272 OA
ATOM      4  H   UNL     1       1.019  -1.274  -0.200  0.00  0.00    +0.155 HD
ENDROOT
BRANCH   1   9
ATOM      5  C   UNL     1       3.609  -2.147  -0.033  0.00  0.00    +0.054 A 
ATOM      6  C   UNL     1       4.800  -2.977   0.009  0.00  0.00    -0.024 A 
ATOM      7  C   UNL     1       4.551  -4.304  -0.014  0.00  0.00    -0.005 A 
ATOM      8  S   UNL     1       2.788  -4.429  -0.088  0.00  0.00    -0.077 S 
ATOM      9  C   UNL     1       2.384  -2.800  -0.084  0.00  0.00    +0.083 A 
ATOM     10  C   UNL     1       5.561  -5.409   0.015  0.00  0.00    +0.043 C 
ATOM     11  C   UNL     1       6.939  -4.812  -0.304  0.00  0.00    +0.005 C 
ATOM     12  C   UNL     1       7.148  -3.561   0.554  0.00  0.00    +0.005 C 
ATOM     13  C   UNL     1       6.223  -2.441   0.074  0.00  0.00    +0.037 C 
BRANCH   5  14
ATOM     14  C   UNL     1       3.695  -0.685  -0.015  0.00  0.00    +0.196 C 
ATOM     15  O   UNL     1       3.781  -0.093   1.045  0.00  0.00    -0.287 OA
BRANCH  14  19
ATOM     16  C   UNL     1       3.650   1.489  -3.665  0.00  0.00    +0.000 A 
ATOM     17  C   UNL     1       3.636   2.167  -2.459  0.00  0.00    +0.001 A 
ATOM     18  C   UNL     1       3.651   1.467  -1.270  0.00  0.00    +0.012 A 
ATOM     19  C   UNL     1       3.679   0.072  -1.286  0.00  0.00    +0.022 A 
ATOM     20  C   UNL     1       3.692  -0.606  -2.506  0.00  0.00    +0.012 A 
ATOM     21  C   UNL     1       3.678   0.106  -3.688  0.00  0.00    +0.001 A 
ENDBRANCH  14  19
ENDBRANCH   5  14
ENDBRANCH   1   9
BRANCH   2  22
ATOM     22  C   UNL     1      -1.348  -2.410  -0.104  0.00  0.00    +0.328 C 
BRANCH  22  23
ATOM     23  O   UNL     1      -2.333  -3.442  -0.020  0.00  0.00    -0.455 OA
BRANCH  23  24
ATOM     24  C   UNL     1      -3.619  -3.061  -0.046  0.00  0.00    +0.312 C 
ATOM     25  O   UNL     1      -3.900  -1.889  -0.137  0.00  0.00    -0.250 OA
BRANCH  24  26
ATOM     26  C   UNL     1      -4.714  -4.093   0.038  0.00  0.00    +0.153 C 
BRANCH  26  27
ATOM     27  C   UNL     1      -6.055  -3.409  -0.011  0.00  0.00    -0.031 C 
ATOM     28  C   UNL     1      -6.828  -3.213  -1.104  0.00  0.00    -0.001 A 
ATOM     29  C   UNL     1      -6.656  -3.563  -2.519  0.00  0.00    +0.010 A 
ATOM     30  C   UNL     1      -7.625  -3.225  -3.401  0.00  0.00    +0.001 A 
ATOM     31  C   UNL     1      -8.785  -2.550  -2.998  0.00  0.00    +0.002 A 
ATOM     32  C   UNL     1      -9.014  -2.195  -1.716  0.00  0.00    +0.026 A 
ATOM     33  C   UNL     1      -8.063  -2.501  -0.705  0.00  0.00    +0.043 A 
ATOM     34  N   UNL     1      -8.054  -2.266   0.585  0.00  0.00    -0.380 N 
ATOM     35  C   UNL     1      -6.814  -2.809   1.151  0.00  0.00    +0.145 C 
ATOM     36  H   UNL     1      -8.752  -1.813   1.083  0.00  0.00    +0.160 HD
ENDBRANCH  26  27
ENDBRANCH  24  26
ENDBRANCH  23  24
ENDBRANCH  22  23
ENDBRANCH   2  22
TORSDOF 8
