REMARK  Name = ZINC08857832
REMARK  15 active torsions:
REMARK  status: ('A' for Active; 'I' for Inactive)
REMARK    1  A    between atoms: C_1  and  C_2
REMARK    2  A    between atoms: C_2  and  N_64
REMARK    3  A    between atoms: C_3  and  C_4
REMARK    4  A    between atoms: C_3  and  N_64
REMARK    5  A    between atoms: C_5  and  C_6
REMARK    6  A    between atoms: C_5  and  N_64
REMARK    7  A    between atoms: C_6  and  N_7
REMARK    8  A    between atoms: C_8  and  C_24
REMARK    9  A    between atoms: C_10  and  C_15
REMARK   10  A    between atoms: C_11  and  O_14
REMARK   11  A    between atoms: C_15  and  C_17
REMARK   12  A    between atoms: C_27  and  O_30
REMARK   13  A    between atoms: O_30  and  C_31
REMARK   14  A    between atoms: C_31  and  C_32
REMARK   15  A    between atoms: C_31  and  C_33
REMARK                            x       y       z     vdW  Elec       q    Type
REMARK                         _______ _______ _______ _____ _____    ______ ____
ROOT
ATOM      1  N   UNL     1      -1.254   4.763  -1.906  0.00  0.00    -0.285 N 
ATOM      2  C   UNL     1      -0.127   3.855  -2.148  0.00  0.00    +0.144 C 
ATOM      3  C   UNL     1      -0.700   2.650  -2.857  0.00  0.00    +0.071 C 
ATOM      4  C   UNL     1      -2.030   2.869  -2.987  0.00  0.00    +0.188 C 
ATOM      5  C   UNL     1      -2.365   4.182  -2.395  0.00  0.00    +0.282 C 
ATOM      6  O   UNL     1      -3.480   4.664  -2.355  0.00  0.00    -0.267 OA
ENDROOT
BRANCH   2   7
ATOM      7  C   UNL     1       0.900   4.530  -3.020  0.00  0.00    -0.022 A 
ATOM      8  C   UNL     1       0.495   5.281  -4.108  0.00  0.00    +0.009 A 
ATOM      9  C   UNL     1       1.434   5.905  -4.906  0.00  0.00    +0.046 A 
ATOM     10  C   UNL     1       2.785   5.769  -4.622  0.00  0.00    +0.121 A 
ATOM     11  C   UNL     1       3.189   5.010  -3.533  0.00  0.00    +0.046 A 
ATOM     12  C   UNL     1       2.246   4.393  -2.734  0.00  0.00    +0.009 A 
BRANCH  10  13
ATOM     13  O   UNL     1       3.711   6.377  -5.409  0.00  0.00    -0.489 OA
BRANCH  13  14
ATOM     14  C   UNL     1       3.230   7.052  -6.573  0.00  0.00    +0.167 C 
ATOM     15  C   UNL     1       2.784   8.466  -6.195  0.00  0.00    +0.051 C 
ATOM     16  C   UNL     1       4.348   7.132  -7.614  0.00  0.00    +0.051 C 
ENDBRANCH  13  14
ENDBRANCH  10  13
ENDBRANCH   2   7
BRANCH   4  17
ATOM     17  O   UNL     1      -2.911   2.022  -3.567  0.00  0.00    -0.502 OA
ATOM     18  H   UNL     1      -3.828   2.421  -3.533  0.00  0.00    +0.292 HD
ENDBRANCH   4  17
BRANCH   3  19
ATOM     19  C   UNL     1       0.040   1.469  -3.312  0.00  0.00    +0.195 C 
ATOM     20  O   UNL     1       0.132   1.230  -4.501  0.00  0.00    -0.287 OA
BRANCH  19  21
ATOM     21  C   UNL     1       0.679   0.573  -2.326  0.00  0.00    +0.022 A 
ATOM     22  C   UNL     1       0.499   0.793  -0.958  0.00  0.00    +0.013 A 
ATOM     23  C   UNL     1       1.093  -0.051  -0.043  0.00  0.00    +0.016 A 
ATOM     24  C   UNL     1       1.876  -1.108  -0.478  0.00  0.00    +0.018 A 
ATOM     25  C   UNL     1       2.062  -1.328  -1.833  0.00  0.00    +0.016 A 
ATOM     26  C   UNL     1       1.469  -0.495  -2.757  0.00  0.00    +0.013 A 
ATOM     27 BR   UNL     1       2.693  -2.255   0.784  0.00  0.00    -0.050 Br
ENDBRANCH  19  21
ENDBRANCH   3  19
BRANCH   1  28
ATOM     28  C   UNL     1      -1.184   6.068  -1.244  0.00  0.00    +0.090 C 
BRANCH  28  29
ATOM     29  C   UNL     1      -1.388   5.888   0.261  0.00  0.00    -0.060 C 
BRANCH  29  30
ATOM     30  N   UNL     1      -1.335   7.214   0.911  0.00  0.00    +0.380 N 
ATOM     31  H   UNL     1      -1.984   7.848   0.430  0.00  0.00    -0.082 HD
BRANCH  30  33
ATOM     32  C   UNL     1      -3.265   6.987   2.394  0.00  0.00    -0.017 C 
ATOM     33  C   UNL     1      -1.741   7.098   2.328  0.00  0.00    -0.082 C 
ENDBRANCH  30  33
BRANCH  30  34
ATOM     34  C   UNL     1       0.032   7.767   0.821  0.00  0.00    -0.082 C 
ATOM     35  C   UNL     1      -0.018   9.259   1.158  0.00  0.00    -0.017 C 
ENDBRANCH  30  34
ENDBRANCH  29  30
ENDBRANCH  28  29
ENDBRANCH   1  28
TORSDOF 11
