REMARK  Name = ZINC20154779
REMARK  10 active torsions:
REMARK  status: ('A' for Active; 'I' for Inactive)
REMARK    1  A    between atoms: C_1  and  O_2
REMARK    2  A    between atoms: O_2  and  C_3
REMARK    3  A    between atoms: C_5  and  C_20
REMARK    4  A    between atoms: C_8  and  O_9
REMARK    5  A    between atoms: O_9  and  C_10
REMARK    6  A    between atoms: C_10  and  C_11
REMARK    7  A    between atoms: C_11  and  O_12
REMARK    8  A    between atoms: O_12  and  C_13
REMARK    9  A    between atoms: C_31  and  S_32
REMARK   10  A    between atoms: S_32  and  C_33
REMARK                            x       y       z     vdW  Elec       q    Type
REMARK                         _______ _______ _______ _____ _____    ______ ____
ROOT
ATOM      1  C   UNL     1      -1.339  -1.024   0.461  0.00  0.00    +0.162 A 
ATOM      2  C   UNL     1      -2.404  -0.178   0.229  0.00  0.00    +0.057 A 
ATOM      3  C   UNL     1      -3.714  -0.676   0.282  0.00  0.00    -0.021 A 
ATOM      4  C   UNL     1      -3.932  -2.030   0.572  0.00  0.00    +0.012 A 
ATOM      5  C   UNL     1      -2.862  -2.865   0.801  0.00  0.00    +0.050 A 
ATOM      6  C   UNL     1      -1.565  -2.371   0.743  0.00  0.00    +0.162 A 
ENDROOT
BRANCH   3   7
ATOM      7  C   UNL     1      -4.850   0.216   0.038  0.00  0.00    +0.024 C 
ATOM      8  C   UNL     1      -5.955  -0.248  -0.639  0.00  0.00    +0.079 C 
ATOM      9  C   UNL     1      -7.204   0.560  -0.753  0.00  0.00    +0.137 C 
ATOM     10  N   UNL     1      -7.214   1.864  -0.815  0.00  0.00    -0.284 NA
ATOM     11  N   UNL     1      -8.372  -0.228  -0.789  0.00  0.00    -0.211 N 
ATOM     12  C   UNL     1      -8.267  -1.541  -1.203  0.00  0.00    +0.183 C 
ATOM     13  N   UNL     1      -7.156  -2.188  -1.481  0.00  0.00    -0.152 NA
ATOM     14  C   UNL     1      -5.969  -1.576  -1.300  0.00  0.00    +0.273 C 
ATOM     15  O   UNL     1      -4.931  -2.102  -1.668  0.00  0.00    -0.268 OA
ATOM     16  S   UNL     1      -9.850  -2.063  -1.233  0.00  0.00    +0.048 S 
ATOM     17  N   UNL     1     -10.604  -0.691  -0.634  0.00  0.00    -0.185 NA
ATOM     18  C   UNL     1      -9.631   0.162  -0.464  0.00  0.00    +0.175 C 
ATOM     19  H   UNL     1      -6.380   2.357  -0.786  0.00  0.00    +0.188 HD
BRANCH  18  20
ATOM     20  S   UNL     1      -9.944   1.776   0.169  0.00  0.00    -0.093 S 
ATOM     21  C   UNL     1     -11.737   1.802   0.439  0.00  0.00    +0.093 C 
ENDBRANCH  18  20
ENDBRANCH   3   7
BRANCH   1  23
ATOM     22  C   UNL     1       0.091   0.845   0.116  0.00  0.00    +0.277 C 
ATOM     23  O   UNL     1      -0.067  -0.544   0.409  0.00  0.00    -0.491 OA
ENDBRANCH   1  23
BRANCH   6  24
ATOM     24  O   UNL     1      -0.514  -3.202   0.965  0.00  0.00    -0.485 OA
BRANCH  24  25
ATOM     25  C   UNL     1      -0.817  -4.569   1.248  0.00  0.00    +0.270 C 
BRANCH  25  26
ATOM     26  C   UNL     1       0.484  -5.344   1.469  0.00  0.00    +0.270 C 
BRANCH  26  27
ATOM     27  O   UNL     1       1.139  -4.852   2.639  0.00  0.00    -0.487 OA
BRANCH  27  28
ATOM     28  C   UNL     1       2.318  -5.437   2.979  0.00  0.00    +0.139 A 
ATOM     29  C   UNL     1       2.836  -6.460   2.199  0.00  0.00    +0.047 A 
ATOM     30  C   UNL     1       4.034  -7.054   2.546  0.00  0.00    +0.004 A 
ATOM     31  C   UNL     1       4.718  -6.629   3.671  0.00  0.00    +0.002 A 
ATOM     32  C   UNL     1       4.204  -5.610   4.451  0.00  0.00    +0.023 A 
ATOM     33  C   UNL     1       3.008  -5.009   4.105  0.00  0.00    +0.083 A 
ATOM     34 CL   UNL     1       2.367  -3.724   5.080  0.00  0.00    -0.080 Cl
ENDBRANCH  27  28
ENDBRANCH  26  27
ENDBRANCH  25  26
ENDBRANCH  24  25
ENDBRANCH   6  24
TORSDOF 8
