REMARK  Name = ZINC64871044
REMARK  4 active torsions:
REMARK  status: ('A' for Active; 'I' for Inactive)
REMARK    1  A    between atoms: C_6  and  C_7
REMARK    2  A    between atoms: C_7  and  N_8
REMARK    3  A    between atoms: C_14  and  C_21
REMARK    4  A    between atoms: C_24  and  C_28
REMARK                            x       y       z     vdW  Elec       q    Type
REMARK                         _______ _______ _______ _____ _____    ______ ____
ROOT
ATOM      1  N   UNL     1      -1.626  -0.949  -1.412  0.00  0.00    -0.256 N 
ATOM      2  C   UNL     1      -2.517  -0.109  -1.983  0.00  0.00    +0.265 A 
ATOM      3  O   UNL     1      -2.958   0.844  -1.370  0.00  0.00    -0.267 OA
ATOM      4  C   UNL     1      -2.941  -0.379  -3.369  0.00  0.00    +0.063 A 
ATOM      5  C   UNL     1      -3.856   0.440  -4.027  0.00  0.00    +0.016 A 
ATOM      6  C   UNL     1      -4.220   0.145  -5.324  0.00  0.00    +0.008 A 
ATOM      7  C   UNL     1      -3.683  -0.957  -5.971  0.00  0.00    -0.000 A 
ATOM      8  C   UNL     1      -2.776  -1.776  -5.330  0.00  0.00    +0.034 A 
ATOM      9  C   UNL     1      -2.397  -1.496  -4.026  0.00  0.00    +0.056 A 
ATOM     10  N   UNL     1      -1.488  -2.293  -3.345  0.00  0.00    -0.307 N 
ATOM     11  H   UNL     1      -1.104  -3.067  -3.786  0.00  0.00    +0.170 HD
ATOM     12  C   UNL     1      -1.130  -2.000  -2.083  0.00  0.00    +0.330 A 
ATOM     13  O   UNL     1      -0.327  -2.721  -1.523  0.00  0.00    -0.246 OA
ENDROOT
BRANCH   7  14
ATOM     14  C   UNL     1      -4.094  -1.264  -7.388  0.00  0.00    +0.242 C 
ATOM     15  N   UNL     1      -4.584  -2.657  -7.479  0.00  0.00    -0.265 NA
ATOM     16  C   UNL     1      -4.082  -3.132  -8.797  0.00  0.00    +0.180 C 
ATOM     17  N   UNL     1      -2.751  -2.473  -8.882  0.00  0.00    -0.177 NA
ATOM     18  O   UNL     1      -2.959  -1.150  -8.261  0.00  0.00    -0.274 OA
ATOM     19  H   UNL     1      -4.215  -3.221  -6.728  0.00  0.00    +0.127 HD
ATOM     20  H   UNL     1      -2.053  -3.003  -8.382  0.00  0.00    +0.156 HD
BRANCH  16  21
ATOM     21  C   UNL     1      -3.944  -4.632  -8.810  0.00  0.00    -0.013 A 
ATOM     22  C   UNL     1      -4.787  -5.410  -8.038  0.00  0.00    +0.009 A 
ATOM     23  C   UNL     1      -4.663  -6.786  -8.049  0.00  0.00    +0.040 A 
ATOM     24  C   UNL     1      -3.694  -7.387  -8.834  0.00  0.00    +0.142 A 
ATOM     25  C   UNL     1      -2.850  -6.607  -9.608  0.00  0.00    +0.076 A 
ATOM     26  C   UNL     1      -2.980  -5.230  -9.599  0.00  0.00    +0.029 A 
ATOM     27 CL   UNL     1      -1.634  -7.359 -10.593  0.00  0.00    -0.081 Cl
ATOM     28  F   UNL     1      -3.571  -8.732  -8.845  0.00  0.00    -0.204 F 
ENDBRANCH  16  21
ENDBRANCH   7  14
BRANCH   1  29
ATOM     29  C   UNL     1      -1.188  -0.703  -0.036  0.00  0.00    +0.165 C 
BRANCH  29  35
ATOM     30  C   UNL     1      -0.129   1.563   0.002  0.00  0.00    +0.009 A 
ATOM     31  C   UNL     1       0.982   2.388  -0.008  0.00  0.00    +0.050 A 
ATOM     32  C   UNL     1       2.252   1.839  -0.068  0.00  0.00    +0.166 A 
ATOM     33  C   UNL     1       2.407   0.455  -0.117  0.00  0.00    +0.167 A 
ATOM     34  C   UNL     1       1.291  -0.364  -0.107  0.00  0.00    +0.055 A 
ATOM     35  C   UNL     1       0.026   0.191  -0.047  0.00  0.00    -0.024 A 
ATOM     36  O   UNL     1       3.741   0.168  -0.171  0.00  0.00    -0.453 OA
ATOM     37  C   UNL     1       4.383   1.394  -0.566  0.00  0.00    +0.466 C 
ATOM     38  O   UNL     1       3.488   2.417  -0.090  0.00  0.00    -0.453 OA
ENDBRANCH  29  35
ENDBRANCH   1  29
TORSDOF 4
