REMARK  Name = ZINC08830122
REMARK  7 active torsions:
REMARK  status: ('A' for Active; 'I' for Inactive)
REMARK    1  A    between atoms: C_4  and  N_35
REMARK    2  A    between atoms: C_5  and  C_7
REMARK    3  A    between atoms: C_10  and  C_12
REMARK    4  A    between atoms: C_14  and  C_26
REMARK    5  A    between atoms: C_16  and  C_21
REMARK    6  A    between atoms: C_18  and  O_20
REMARK    7  A    between atoms: C_26  and  C_28
REMARK                            x       y       z     vdW  Elec       q    Type
REMARK                         _______ _______ _______ _____ _____    ______ ____
ROOT
ATOM      1  C   UNL     1       2.152  -5.249  -1.289  0.00  0.00    +0.156 C 
ATOM      2  C   UNL     1       1.354  -5.546  -2.568  0.00  0.00    +0.152 C 
ATOM      3  C   UNL     1       1.609  -4.418  -3.570  0.00  0.00    +0.284 C 
ATOM      4  N   UNL     1       3.038  -4.162  -3.701  0.00  0.00    -0.306 N 
ATOM      5  C   UNL     1       3.914  -4.509  -2.820  0.00  0.00    +0.256 C 
ATOM      6  N   UNL     1       3.573  -5.172  -1.665  0.00  0.00    -0.290 N 
ATOM      7  O   UNL     1       0.957  -3.230  -3.117  0.00  0.00    -0.194 OA
ATOM      8  H   UNL     1       4.254  -5.582  -1.108  0.00  0.00    +0.151 HD
ATOM      9  H   UNL     1       3.349  -3.704  -4.498  0.00  0.00    +0.167 HD
ENDROOT
BRANCH   1  13
ATOM     10  C   UNL     1       1.486  -1.776  -0.371  0.00  0.00    +0.137 A 
ATOM     11  C   UNL     1       0.722  -2.403   0.563  0.00  0.00    +0.050 A 
ATOM     12  C   UNL     1       0.869  -3.788   0.345  0.00  0.00    +0.047 A 
ATOM     13  C   UNL     1       1.706  -3.936  -0.701  0.00  0.00    +0.127 A 
ATOM     14  O   UNL     1       2.073  -2.719  -1.134  0.00  0.00    -0.458 OA
BRANCH  10  19
ATOM     15  C   UNL     1       0.664   1.871  -0.721  0.00  0.00    +0.001 A 
ATOM     16  C   UNL     1       1.929   2.424  -0.819  0.00  0.00    +0.002 A 
ATOM     17  C   UNL     1       3.049   1.615  -0.771  0.00  0.00    +0.033 A 
ATOM     18  C   UNL     1       2.913   0.249  -0.626  0.00  0.00    +0.137 A 
ATOM     19  C   UNL     1       1.640  -0.315  -0.526  0.00  0.00    +0.047 A 
ATOM     20  C   UNL     1       0.513   0.508  -0.575  0.00  0.00    +0.014 A 
BRANCH  18  21
ATOM     21  N   UNL     1       4.113  -0.615  -0.576  0.00  0.00    +0.057 N 
ATOM     22  O   UNL     1       5.215  -0.126  -0.662  0.00  0.00    -0.126 OA
ATOM     23  O   UNL     1       3.992  -1.812  -0.448  0.00  0.00    -0.126 OA
ENDBRANCH  18  21
ENDBRANCH  10  19
ENDBRANCH   1  13
BRANCH   3  24
ATOM     24  C   UNL     1       1.040  -4.816  -4.933  0.00  0.00    +0.441 C 
ATOM     25  F   UNL     1      -0.307  -5.166  -4.793  0.00  0.00    -0.166 F 
ATOM     26  F   UNL     1       1.153  -3.739  -5.819  0.00  0.00    -0.166 F 
ATOM     27  F   UNL     1       1.755  -5.909  -5.436  0.00  0.00    -0.166 F 
ENDBRANCH   3  24
BRANCH   5  28
ATOM     28  O   UNL     1       5.213  -4.211  -3.039  0.00  0.00    -0.483 OA
ATOM     29  H   UNL     1       5.375  -3.745  -3.871  0.00  0.00    +0.295 HD
ENDBRANCH   5  28
BRANCH   2  30
ATOM     30  C   UNL     1       1.807  -6.859  -3.155  0.00  0.00    +0.173 C 
ATOM     31  O   UNL     1       2.965  -7.010  -3.481  0.00  0.00    -0.292 OA
BRANCH  30  32
ATOM     32  C   UNL     1       0.843  -7.956  -3.331  0.00  0.00    +0.018 A 
ATOM     33  C   UNL     1      -0.511  -7.756  -3.042  0.00  0.00    +0.013 A 
ATOM     34  C   UNL     1      -1.408  -8.789  -3.211  0.00  0.00    +0.020 A 
ATOM     35  C   UNL     1      -0.971 -10.023  -3.664  0.00  0.00    +0.041 A 
ATOM     36  C   UNL     1       0.369 -10.229  -3.953  0.00  0.00    +0.020 A 
ATOM     37  C   UNL     1       1.276  -9.204  -3.795  0.00  0.00    +0.013 A 
ATOM     38 CL   UNL     1      -2.108 -11.319  -3.872  0.00  0.00    -0.084 Cl
ENDBRANCH  30  32
ENDBRANCH   2  30
TORSDOF 7
