REMARK  Name = ZINC16910278
REMARK  7 active torsions:
REMARK  status: ('A' for Active; 'I' for Inactive)
REMARK    1  A    between atoms: C_1  and  C_2
REMARK    2  A    between atoms: C_2  and  C_4
REMARK    3  A    between atoms: C_2  and  O_6
REMARK    4  A    between atoms: O_6  and  C_7
REMARK    5  A    between atoms: C_12  and  C_13
REMARK    6  A    between atoms: N_17  and  N_21
REMARK    7  A    between atoms: C_22  and  C_24
REMARK                            x       y       z     vdW  Elec       q    Type
REMARK                         _______ _______ _______ _____ _____    ______ ____
ROOT
ATOM      1  C   UNL     1       2.452   3.009   0.335  0.00  0.00    +0.032 C 
ATOM      2  C   UNL     1       1.886   1.821   0.671  0.00  0.00    +0.079 C 
ATOM      3  C   UNL     1       2.526   0.562   1.101  0.00  0.00    +0.275 C 
ATOM      4  O   UNL     1       3.735   0.462   1.205  0.00  0.00    -0.267 OA
ATOM      5  N   UNL     1       1.720  -0.452   1.368  0.00  0.00    -0.169 N 
ATOM      6  C   UNL     1       0.381  -0.336   1.253  0.00  0.00    +0.138 C 
ATOM      7  S   UNL     1      -0.818  -1.521   1.551  0.00  0.00    -0.026 S 
ATOM      8  S   UNL     1       0.162   1.352   0.715  0.00  0.00    -0.059 S 
ENDROOT
BRANCH   1  14
ATOM      9  C   UNL     1       4.584   4.224   0.757  0.00  0.00    +0.129 A 
ATOM     10  C   UNL     1       5.961   4.316   0.635  0.00  0.00    +0.046 A 
ATOM     11  C   UNL     1       6.668   3.324  -0.018  0.00  0.00    +0.004 A 
ATOM     12  C   UNL     1       6.008   2.231  -0.556  0.00  0.00    +0.001 A 
ATOM     13  C   UNL     1       4.640   2.118  -0.441  0.00  0.00    +0.011 A 
ATOM     14  C   UNL     1       3.910   3.118   0.213  0.00  0.00    +0.018 A 
BRANCH   9  15
ATOM     15  O   UNL     1       3.889   5.198   1.398  0.00  0.00    -0.477 OA
BRANCH  15  17
ATOM     16  C   UNL     1       5.011   7.291   0.948  0.00  0.00    +0.064 C 
ATOM     17  C   UNL     1       4.650   6.245   2.004  0.00  0.00    +0.282 C 
BRANCH  17  18
ATOM     18  C   UNL     1       3.833   6.893   3.093  0.00  0.00    +0.395 C 
ATOM     19  O   UNL     1       2.715   6.498   3.326  0.00  0.00    -0.242 OA
ATOM     20  O   UNL     1       4.348   7.908   3.805  0.00  0.00    -0.242 OA
ENDBRANCH  17  18
ENDBRANCH  15  17
ENDBRANCH   9  15
ENDBRANCH   1  14
BRANCH   5  21
ATOM     21  N   UNL     1       2.269  -1.673   1.781  0.00  0.00    -0.222 N 
ATOM     22  C   UNL     1       2.320  -2.712   0.925  0.00  0.00    +0.262 C 
ATOM     23  O   UNL     1       1.889  -2.591  -0.206  0.00  0.00    -0.269 OA
ATOM     24  H   UNL     1       2.612  -1.770   2.683  0.00  0.00    +0.174 HD
BRANCH  22  25
ATOM     25  C   UNL     1       2.898  -4.000   1.360  0.00  0.00    +0.057 A 
ATOM     26  C   UNL     1       3.399  -4.141   2.656  0.00  0.00    +0.016 A 
ATOM     27  C   UNL     1       3.933  -5.347   3.058  0.00  0.00    +0.021 A 
ATOM     28  C   UNL     1       3.984  -6.415   2.176  0.00  0.00    +0.042 A 
ATOM     29  C   UNL     1       3.495  -6.280   0.888  0.00  0.00    +0.040 A 
ATOM     30  C   UNL     1       2.952  -5.080   0.474  0.00  0.00    +0.054 A 
ATOM     31 CL   UNL     1       2.340  -4.912  -1.141  0.00  0.00    -0.083 Cl
ATOM     32 CL   UNL     1       4.665  -7.927   2.688  0.00  0.00    -0.083 Cl
ENDBRANCH  22  25
ENDBRANCH   5  21
TORSDOF 6
