REMARK  Name = ZINC46825329
REMARK  8 active torsions:
REMARK  status: ('A' for Active; 'I' for Inactive)
REMARK    1  A    between atoms: C_1  and  C_2
REMARK    2  A    between atoms: C_2  and  C_3
REMARK    3  A    between atoms: C_2  and  O_4
REMARK    4  A    between atoms: O_4  and  C_5
REMARK    5  A    between atoms: C_8  and  C_11
REMARK    6  A    between atoms: C_11  and  N_12
REMARK    7  A    between atoms: N_15  and  N_16
REMARK    8  A    between atoms: C_17  and  C_19
REMARK                            x       y       z     vdW  Elec       q    Type
REMARK                         _______ _______ _______ _____ _____    ______ ____
ROOT
ATOM      1  N   UNL     1      -2.458  -5.187  -3.932  0.00  0.00    -0.294 N 
ATOM      2  C   UNL     1      -2.663  -6.237  -4.752  0.00  0.00    +0.316 C 
ATOM      3  O   UNL     1      -2.596  -7.370  -4.317  0.00  0.00    -0.251 OA
ATOM      4  N   UNL     1      -2.943  -6.031  -6.054  0.00  0.00    -0.218 N 
ATOM      5  H   UNL     1      -2.512  -4.283  -4.280  0.00  0.00    +0.151 HD
ATOM      6  H   UNL     1      -3.090  -6.787  -6.644  0.00  0.00    +0.174 HD
ENDROOT
BRANCH   4   7
ATOM      7  N   UNL     1      -3.021  -4.725  -6.556  0.00  0.00    -0.228 N 
ATOM      8  C   UNL     1      -3.300  -4.519  -7.858  0.00  0.00    +0.279 C 
ATOM      9  O   UNL     1      -3.485  -5.466  -8.597  0.00  0.00    -0.267 OA
ATOM     10  H   UNL     1      -2.873  -3.969  -5.966  0.00  0.00    +0.173 HD
BRANCH   8  11
ATOM     11  C   UNL     1      -3.382  -3.137  -8.389  0.00  0.00    +0.127 A 
ATOM     12  C   UNL     1      -3.680  -2.941  -9.746  0.00  0.00    +0.034 A 
ATOM     13  C   UNL     1      -3.759  -1.673 -10.247  0.00  0.00    +0.012 A 
ATOM     14  C   UNL     1      -3.535  -0.595  -9.370  0.00  0.00    +0.000 A 
ATOM     15  C   UNL     1      -3.601   0.734  -9.818  0.00  0.00    +0.010 A 
ATOM     16  C   UNL     1      -3.379   1.752  -8.941  0.00  0.00    +0.001 A 
ATOM     17  C   UNL     1      -3.087   1.493  -7.603  0.00  0.00    +0.002 A 
ATOM     18  C   UNL     1      -3.015   0.218  -7.133  0.00  0.00    +0.028 A 
ATOM     19  C   UNL     1      -3.238  -0.862  -8.008  0.00  0.00    +0.072 A 
ATOM     20  N   UNL     1      -3.179  -2.120  -7.574  0.00  0.00    -0.242 NA
ENDBRANCH   8  11
ENDBRANCH   4   7
BRANCH   1  21
ATOM     21  C   UNL     1      -2.155  -5.411  -2.517  0.00  0.00    +0.142 C 
BRANCH  21  25
ATOM     22  C   UNL     1      -1.560  -1.691  -0.597  0.00  0.00    +0.215 A 
ATOM     23  C   UNL     1      -2.844  -2.221  -0.625  0.00  0.00    +0.067 A 
ATOM     24  C   UNL     1      -3.056  -3.438  -1.249  0.00  0.00    +0.012 A 
ATOM     25  C   UNL     1      -1.971  -4.084  -1.826  0.00  0.00    -0.012 A 
ATOM     26  C   UNL     1      -0.723  -3.498  -1.761  0.00  0.00    +0.119 A 
ATOM     27  N   UNL     1      -0.552  -2.334  -1.162  0.00  0.00    -0.221 NA
BRANCH  22  28
ATOM     28  O   UNL     1      -1.339  -0.499   0.012  0.00  0.00    -0.474 OA
BRANCH  28  30
ATOM     29  C   UNL     1      -0.019   1.526   0.010  0.00  0.00    +0.051 C 
ATOM     30  C   UNL     1       0.002  -0.004   0.002  0.00  0.00    +0.169 C 
ATOM     31  C   UNL     1       0.742  -0.511   1.242  0.00  0.00    +0.051 C 
ENDBRANCH  28  30
ENDBRANCH  22  28
ENDBRANCH  21  25
ENDBRANCH   1  21
TORSDOF 6
