REMARK  Name = ZINC36156904
REMARK  10 active torsions:
REMARK  status: ('A' for Active; 'I' for Inactive)
REMARK    1  A    between atoms: C_2  and  C_3
REMARK    2  A    between atoms: C_3  and  C_4
REMARK    3  A    between atoms: C_4  and  C_5
REMARK    4  A    between atoms: C_5  and  C_7
REMARK    5  A    between atoms: C_5  and  O_32
REMARK    6  A    between atoms: C_7  and  N_8
REMARK    7  A    between atoms: N_8  and  C_9
REMARK    8  A    between atoms: N_8  and  C_16
REMARK    9  A    between atoms: C_9  and  C_10
REMARK   10  A    between atoms: C_16  and  C_17
REMARK                            x       y       z     vdW  Elec       q    Type
REMARK                         _______ _______ _______ _____ _____    ______ ____
ROOT
ATOM      1  N   UNL     1       3.930  -3.839   2.163  0.00  0.00    +0.389 N 
ATOM      2  H   UNL     1       4.115  -4.123   1.212  0.00  0.00    -0.081 HD
ENDROOT
BRANCH   1   3
ATOM      3  C   UNL     1       2.528  -3.416   2.283  0.00  0.00    -0.046 C 
BRANCH   3   4
ATOM      4  C   UNL     1       2.235  -2.324   1.252  0.00  0.00    +0.098 C 
BRANCH   4   5
ATOM      5  O   UNL     1       2.354  -2.867  -0.064  0.00  0.00    -0.394 OA
ATOM      6  H   UNL     1       1.748  -3.599  -0.243  0.00  0.00    +0.210 HD
ENDBRANCH   4   5
BRANCH   4   7
ATOM      7  C   UNL     1       0.814  -1.795   1.460  0.00  0.00    +0.033 C 
BRANCH   7   8
ATOM      8  C   UNL     1       0.564  -0.620   0.513  0.00  0.00    +0.029 C 
BRANCH   8  10
ATOM      9  C   UNL     1      -1.030   1.166   0.995  0.00  0.00    +0.004 C 
ATOM     10  C   UNL     1      -0.836  -0.100   0.717  0.00  0.00    -0.034 C 
ENDBRANCH   8  10
ENDBRANCH   7   8
ENDBRANCH   4   7
ENDBRANCH   3   4
ENDBRANCH   1   3
BRANCH   1  11
ATOM     11  C   UNL     1       4.812  -2.720   2.520  0.00  0.00    -0.042 C 
BRANCH  11  12
ATOM     12  C   UNL     1       6.246  -3.115   2.280  0.00  0.00    -0.064 A 
ATOM     13  C   UNL     1       7.012  -3.605   3.321  0.00  0.00    +0.002 A 
ATOM     14  C   UNL     1       8.328  -3.967   3.101  0.00  0.00    +0.000 A 
ATOM     15  C   UNL     1       8.878  -3.839   1.840  0.00  0.00    +0.000 A 
ATOM     16  C   UNL     1       8.112  -3.349   0.798  0.00  0.00    +0.000 A 
ATOM     17  C   UNL     1       6.795  -2.991   1.018  0.00  0.00    +0.002 A 
ENDBRANCH  11  12
ENDBRANCH   1  11
BRANCH   1  18
ATOM     18  C   UNL     1       4.180  -4.968   3.068  0.00  0.00    -0.003 C 
BRANCH  18  19
ATOM     19  C   UNL     1       3.402  -6.171   2.599  0.00  0.00    +0.094 A 
ATOM     20  N   UNL     1       3.383  -7.293   3.363  0.00  0.00    -0.312 N 
ATOM     21  H   UNL     1       3.871  -7.305   4.201  0.00  0.00    +0.170 HD
ATOM     22  C   UNL     1       2.701  -8.389   2.981  0.00  0.00    +0.260 A 
ATOM     23  O   UNL     1       2.693  -9.388   3.679  0.00  0.00    -0.267 OA
ATOM     24  C   UNL     1       1.983  -8.361   1.741  0.00  0.00    +0.075 A 
ATOM     25  C   UNL     1       1.183  -9.421   1.130  0.00  0.00    -0.023 A 
ATOM     26  C   UNL     1       0.601  -9.143  -0.056  0.00  0.00    -0.004 A 
ATOM     27  S   UNL     1       1.078  -7.476  -0.422  0.00  0.00    -0.073 S 
ATOM     28  C   UNL     1       2.061  -7.158   1.021  0.00  0.00    +0.116 A 
ATOM     29  N   UNL     1       2.753  -6.113   1.466  0.00  0.00    -0.229 NA
ATOM     30  C   UNL     1      -0.260 -10.052  -0.879  0.00  0.00    +0.043 C 
ATOM     31  C   UNL     1      -0.087 -11.486  -0.359  0.00  0.00    +0.005 C 
ATOM     32  C   UNL     1      -0.217 -11.474   1.167  0.00  0.00    +0.005 C 
ATOM     33  C   UNL     1       1.001 -10.787   1.786  0.00  0.00    +0.037 C 
ENDBRANCH  18  19
ENDBRANCH   1  18
TORSDOF 10
