REMARK  Name = ZINC43221523
REMARK  9 active torsions:
REMARK  status: ('A' for Active; 'I' for Inactive)
REMARK    1  A    between atoms: C_1  and  C_2
REMARK    2  A    between atoms: C_2  and  C_3
REMARK    3  A    between atoms: C_7  and  C_38
REMARK    4  A    between atoms: C_8  and  N_9
REMARK    5  A    between atoms: C_14  and  C_31
REMARK    6  A    between atoms: C_17  and  C_22
REMARK    7  A    between atoms: C_17  and  C_28
REMARK    8  A    between atoms: C_36  and  O_37
REMARK    9  A    between atoms: C_38  and  C_39
REMARK                            x       y       z     vdW  Elec       q    Type
REMARK                         _______ _______ _______ _____ _____    ______ ____
ROOT
ATOM      1  N   UNL     1      -1.361   0.235  -2.824  0.00  0.00    -0.209 N 
ATOM      2  C   UNL     1      -1.629   1.522  -3.221  0.00  0.00    +0.229 C 
ATOM      3  O   UNL     1      -2.027   2.441  -2.538  0.00  0.00    -0.275 OA
ATOM      4  C   UNL     1      -1.333   1.536  -4.635  0.00  0.00    +0.078 C 
ATOM      5  C   UNL     1      -1.049   2.488  -5.718  0.00  0.00    -0.023 C 
ATOM      6  N   UNL     1      -0.399   1.654  -6.782  0.00  0.00    +0.398 N 
ATOM      7  C   UNL     1      -0.218   0.273  -6.227  0.00  0.00    +0.074 C 
ATOM      8  C   UNL     1      -0.101   0.549  -4.712  0.00  0.00    +0.090 C 
ATOM      9  C   UNL     1      -0.660  -0.471  -3.759  0.00  0.00    +0.229 C 
ATOM     10  O   UNL     1      -0.519  -1.674  -3.812  0.00  0.00    -0.275 OA
ATOM     11  H   UNL     1      -0.991   1.620  -7.599  0.00  0.00    -0.083 HD
ATOM     12  H   UNL     1       0.498   2.046  -7.024  0.00  0.00    -0.083 HD
ENDROOT
BRANCH   1  18
ATOM     13  C   UNL     1      -0.874  -0.302  -0.518  0.00  0.00    -0.026 A 
ATOM     14  C   UNL     1      -1.270  -0.819   0.700  0.00  0.00    +0.005 A 
ATOM     15  C   UNL     1      -2.544  -1.334   0.853  0.00  0.00    +0.001 A 
ATOM     16  C   UNL     1      -3.426  -1.332  -0.212  0.00  0.00    +0.005 A 
ATOM     17  C   UNL     1      -3.035  -0.816  -1.433  0.00  0.00    -0.026 A 
ATOM     18  C   UNL     1      -1.758  -0.294  -1.588  0.00  0.00    +0.050 A 
BRANCH  13  20
ATOM     19  C   UNL     1       0.485   1.771  -0.457  0.00  0.00    +0.009 C 
ATOM     20  C   UNL     1       0.515   0.258  -0.683  0.00  0.00    +0.033 C 
ENDBRANCH  13  20
BRANCH  17  21
ATOM     21  C   UNL     1      -3.997  -0.814  -2.593  0.00  0.00    +0.033 C 
ATOM     22  C   UNL     1      -3.786  -2.076  -3.432  0.00  0.00    +0.009 C 
ENDBRANCH  17  21
ENDBRANCH   1  18
BRANCH   7  23
ATOM     23  C   UNL     1      -1.410  -0.591  -6.546  0.00  0.00    -0.047 A 
ATOM     24  C   UNL     1      -2.570  -0.018  -7.034  0.00  0.00    +0.003 A 
ATOM     25  C   UNL     1      -3.663  -0.811  -7.328  0.00  0.00    +0.000 A 
ATOM     26  C   UNL     1      -3.597  -2.178  -7.133  0.00  0.00    +0.000 A 
ATOM     27  C   UNL     1      -2.438  -2.752  -6.646  0.00  0.00    +0.000 A 
ATOM     28  C   UNL     1      -1.343  -1.959  -6.357  0.00  0.00    +0.003 A 
ENDBRANCH   7  23
BRANCH   5  29
ATOM     29  C   UNL     1      -0.108   3.564  -5.240  0.00  0.00    -0.019 A 
ATOM     30  C   UNL     1       1.255   3.412  -5.402  0.00  0.00    +0.005 A 
ATOM     31  C   UNL     1       2.119   4.399  -4.963  0.00  0.00    +0.000 A 
ATOM     32  C   UNL     1       1.620   5.540  -4.363  0.00  0.00    +0.004 A 
ATOM     33  C   UNL     1       0.257   5.697  -4.200  0.00  0.00    +0.045 A 
ATOM     34  C   UNL     1      -0.612   4.711  -4.644  0.00  0.00    +0.118 A 
BRANCH  34  35
ATOM     35  O   UNL     1      -1.953   4.865  -4.489  0.00  0.00    -0.507 OA
ATOM     36  H   UNL     1      -2.295   4.519  -3.654  0.00  0.00    +0.292 HD
ENDBRANCH  34  35
ENDBRANCH   5  29
BRANCH   7  37
ATOM     37  C   UNL     1       1.051  -0.350  -6.748  0.00  0.00    +0.350 C 
ATOM     38  O   UNL     1       1.751   0.262  -7.537  0.00  0.00    -0.248 OA
ATOM     39  O   UNL     1       1.377  -1.466  -6.381  0.00  0.00    -0.248 OA
ENDBRANCH   7  37
TORSDOF 7
