REMARK  Name = ZINC12552731
REMARK  7 active torsions:
REMARK  status: ('A' for Active; 'I' for Inactive)
REMARK    1  A    between atoms: C_1  and  C_2
REMARK    2  A    between atoms: C_2  and  N_64
REMARK    3  A    between atoms: N_5  and  C_8
REMARK    4  A    between atoms: C_13  and  N_14
REMARK    5  A    between atoms: C_15  and  C_17
REMARK    6  A    between atoms: N_22  and  S_24
REMARK    7  A    between atoms: S_24  and  C_27
REMARK                            x       y       z     vdW  Elec       q    Type
REMARK                         _______ _______ _______ _____ _____    ______ ____
ROOT
ATOM      1  N   UNL     1      -2.590  -3.553   4.388  0.00  0.00    -0.284 N 
ATOM      2  C   UNL     1      -2.409  -2.373   3.762  0.00  0.00    +0.222 C 
ATOM      3  O   UNL     1      -3.231  -1.490   3.882  0.00  0.00    -0.275 OA
ATOM      4  H   UNL     1      -1.976  -4.286   4.228  0.00  0.00    +0.155 HD
ENDROOT
BRANCH   1  10
ATOM      5  C   UNL     1      -4.183  -4.994   5.509  0.00  0.00    +0.051 A 
ATOM      6  C   UNL     1      -5.246  -5.154   6.385  0.00  0.00    +0.025 A 
ATOM      7  C   UNL     1      -5.798  -4.051   7.009  0.00  0.00    +0.002 A 
ATOM      8  C   UNL     1      -5.291  -2.788   6.766  0.00  0.00    +0.002 A 
ATOM      9  C   UNL     1      -4.228  -2.620   5.899  0.00  0.00    +0.025 A 
ATOM     10  C   UNL     1      -3.668  -3.721   5.268  0.00  0.00    +0.055 A 
BRANCH   5  13
ATOM     11  C   UNL     1      -2.436  -8.234   5.119  0.00  0.00    -0.060 C 
ATOM     12  C   UNL     1      -3.107  -7.072   5.854  0.00  0.00    +0.086 C 
ATOM     13  N   UNL     1      -3.625  -6.108   4.872  0.00  0.00    -0.332 N 
ATOM     14  C   UNL     1      -4.600  -6.746   3.977  0.00  0.00    +0.086 C 
ATOM     15  C   UNL     1      -3.929  -7.909   3.242  0.00  0.00    -0.060 C 
ATOM     16  N   UNL     1      -3.433  -8.880   4.239  0.00  0.00    +0.382 N 
ATOM     17  H   UNL     1      -4.222  -9.205   4.811  0.00  0.00    -0.082 HD
BRANCH  16  19
ATOM     18  C   UNL     1      -3.927 -10.820   2.832  0.00  0.00    -0.017 C 
ATOM     19  C   UNL     1      -2.826 -10.042   3.555  0.00  0.00    -0.082 C 
ENDBRANCH  16  19
ENDBRANCH   5  13
ENDBRANCH   1  10
BRANCH   2  20
ATOM     20  C   UNL     1      -1.183  -2.151   2.914  0.00  0.00    +0.091 C 
ATOM     21  C   UNL     1       0.071  -2.305   3.777  0.00  0.00    +0.015 C 
ATOM     22  C   UNL     1       1.317  -2.112   2.909  0.00  0.00    +0.018 C 
ATOM     23  C   UNL     1       1.308  -0.705   2.315  0.00  0.00    +0.109 C 
ATOM     24  N   UNL     1       0.039  -0.492   1.606  0.00  0.00    -0.176 NA
ATOM     25  C   UNL     1      -1.220  -0.739   2.321  0.00  0.00    +0.122 C 
BRANCH  24  26
ATOM     26  S   UNL     1       0.028   0.008   0.027  0.00  0.00    +0.061 S 
ATOM     27  O   UNL     1      -1.212  -0.414  -0.524  0.00  0.00    -0.153 OA
ATOM     28  O   UNL     1       1.279  -0.375  -0.528  0.00  0.00    -0.153 OA
BRANCH  26  29
ATOM     29  C   UNL     1       0.000   1.769   0.039  0.00  0.00    +0.106 A 
ATOM     30  C   UNL     1      -1.208   2.441   0.040  0.00  0.00    +0.030 A 
ATOM     31  C   UNL     1      -1.230   3.823   0.055  0.00  0.00    +0.022 A 
ATOM     32  C   UNL     1      -0.043   4.534   0.058  0.00  0.00    +0.041 A 
ATOM     33  C   UNL     1       1.165   3.861   0.051  0.00  0.00    +0.022 A 
ATOM     34  C   UNL     1       1.187   2.479   0.042  0.00  0.00    +0.030 A 
ATOM     35 CL   UNL     1      -0.071   6.270   0.069  0.00  0.00    -0.084 Cl
ENDBRANCH  26  29
ENDBRANCH  24  26
ENDBRANCH   2  20
TORSDOF 6
