REMARK  Name = ZINC15732339
REMARK  8 active torsions:
REMARK  status: ('A' for Active; 'I' for Inactive)
REMARK    1  A    between atoms: C_1  and  C_2
REMARK    2  A    between atoms: C_8  and  C_9
REMARK    3  A    between atoms: C_8  and  N_71
REMARK    4  A    between atoms: C_9  and  C_10
REMARK    5  A    between atoms: C_10  and  N_11
REMARK    6  A    between atoms: C_12  and  C_14
REMARK    7  A    between atoms: C_20  and  C_22
REMARK    8  A    between atoms: C_25  and  N_27
REMARK                            x       y       z     vdW  Elec       q    Type
REMARK                         _______ _______ _______ _____ _____    ______ ____
ROOT
ATOM      1  C   UNL     1      -2.888   6.626   4.172  0.00  0.00    +0.078 C 
ATOM      2  C   UNL     1      -4.226   6.533   3.434  0.00  0.00    +0.032 C 
ATOM      3  C   UNL     1      -3.974   6.568   1.923  0.00  0.00    +0.109 C 
ATOM      4  N   UNL     1      -3.018   5.506   1.578  0.00  0.00    -0.297 N 
ATOM      5  C   UNL     1      -1.739   5.446   2.298  0.00  0.00    +0.109 C 
ATOM      6  C   UNL     1      -2.014   5.426   3.800  0.00  0.00    +0.032 C 
ATOM      7  C   UNL     1      -3.313   4.601   0.624  0.00  0.00    +0.253 C 
ATOM      8  O   UNL     1      -2.608   3.619   0.478  0.00  0.00    -0.269 OA
ENDROOT
BRANCH   7   9
ATOM      9  C   UNL     1      -4.478   4.799  -0.236  0.00  0.00    +0.076 A 
ATOM     10  C   UNL     1      -5.034   3.930  -1.165  0.00  0.00    +0.023 A 
ATOM     11  C   UNL     1      -6.142   4.362  -1.843  0.00  0.00    +0.035 A 
ATOM     12  C   UNL     1      -6.633   5.623  -1.579  0.00  0.00    +0.085 A 
ATOM     13  S   UNL     1      -5.551   6.218  -0.362  0.00  0.00    -0.066 S 
BRANCH  12  14
ATOM     14  N   UNL     1      -7.731   6.260  -2.146  0.00  0.00    -0.310 N 
ATOM     15  C   UNL     1      -7.971   6.371  -3.491  0.00  0.00    +0.093 A 
ATOM     16  C   UNL     1      -9.117   7.037  -3.698  0.00  0.00    +0.028 A 
ATOM     17  C   UNL     1      -9.658   7.382  -2.381  0.00  0.00    +0.000 A 
ATOM     18  C   UNL     1      -8.747   6.869  -1.439  0.00  0.00    +0.054 A 
ATOM     19  C   UNL     1      -8.999   7.043  -0.083  0.00  0.00    +0.027 A 
ATOM     20  C   UNL     1     -10.132   7.715   0.323  0.00  0.00    +0.002 A 
ATOM     21  C   UNL     1     -11.027   8.220  -0.610  0.00  0.00    +0.001 A 
ATOM     22  C   UNL     1     -10.800   8.059  -1.948  0.00  0.00    +0.010 A 
ENDBRANCH  12  14
ENDBRANCH   7   9
BRANCH   1  24
ATOM     23  N   UNL     1      -2.096   6.701   6.514  0.00  0.00    -0.315 N 
ATOM     24  C   UNL     1      -3.135   6.626   5.659  0.00  0.00    +0.216 C 
ATOM     25  O   UNL     1      -4.268   6.558   6.086  0.00  0.00    -0.276 OA
ATOM     26  H   UNL     1      -1.189   6.755   6.173  0.00  0.00    +0.149 HD
BRANCH  23  27
ATOM     27  C   UNL     1      -2.335   6.701   7.959  0.00  0.00    +0.102 C 
BRANCH  27  28
ATOM     28  C   UNL     1      -0.998   6.794   8.698  0.00  0.00    +0.000 C 
BRANCH  28  29
ATOM     29  C   UNL     1      -1.248   6.794  10.207  0.00  0.00    -0.077 C 
BRANCH  29  36
ATOM     30  C   UNL     1      -0.786   5.164  12.454  0.00  0.00    -0.013 C 
ATOM     31  C   UNL     1      -0.122   6.537  12.335  0.00  0.00    -0.072 C 
ATOM     32  C   UNL     1       1.252   6.499  13.007  0.00  0.00    -0.016 C 
ATOM     33  C   UNL     1       1.921   7.870  12.868  0.00  0.00    -0.003 C 
ATOM     34  C   UNL     1       2.029   8.228  11.383  0.00  0.00    -0.019 C 
ATOM     35  C   UNL     1       0.632   8.216  10.758  0.00  0.00    -0.078 C 
ATOM     36  N   UNL     1       0.053   6.863  10.903  0.00  0.00    +0.381 N 
ATOM     37  H   UNL     1       0.693   6.180  10.482  0.00  0.00    -0.081 HD
ENDBRANCH  29  36
ENDBRANCH  28  29
ENDBRANCH  27  28
ENDBRANCH  23  27
ENDBRANCH   1  24
TORSDOF 7
