REMARK  Name = ZINC35513097
REMARK  9 active torsions:
REMARK  status: ('A' for Active; 'I' for Inactive)
REMARK    1  A    between atoms: C_1  and  C_2
REMARK    2  A    between atoms: C_7  and  C_8
REMARK    3  A    between atoms: C_14  and  C_31
REMARK    4  A    between atoms: C_21  and  C_30
REMARK    5  A    between atoms: C_22  and  C_24
REMARK    6  A    between atoms: C_24  and  O_26
REMARK    7  A    between atoms: O_26  and  C_27
REMARK    8  A    between atoms: C_27  and  C_28
REMARK    9  A    between atoms: C_35  and  O_37
REMARK                            x       y       z     vdW  Elec       q    Type
REMARK                         _______ _______ _______ _____ _____    ______ ____
ROOT
ATOM      1  C   UNL     1      -0.018   1.503   0.010  0.00  0.00    +0.044 C 
ATOM      2  C   UNL     1       0.002  -0.004   0.002  0.00  0.00    -0.047 A 
ATOM      3  C   UNL     1       0.006  -0.685  -1.195  0.00  0.00    +0.019 A 
ATOM      4  C   UNL     1       0.024  -2.080  -1.194  0.00  0.00    +0.065 A 
ATOM      5  C   UNL     1       0.034  -2.793   0.015  0.00  0.00    +0.140 A 
ATOM      6  C   UNL     1       0.033  -2.080   1.214  0.00  0.00    +0.050 A 
ATOM      7  C   UNL     1       0.023  -0.703   1.200  0.00  0.00    -0.044 A 
ATOM      8  C   UNL     1       0.028   0.053   2.503  0.00  0.00    +0.044 C 
ATOM      9  O   UNL     1       0.038  -4.145   0.057  0.00  0.00    -0.450 OA
ATOM     10  C   UNL     1       0.274  -4.846  -1.070  0.00  0.00    +0.199 A 
ATOM     11  C   UNL     1       0.281  -4.268  -2.309  0.00  0.00    +0.072 A 
ATOM     12  C   UNL     1       0.037  -2.832  -2.474  0.00  0.00    +0.199 A 
ATOM     13  O   UNL     1      -0.140  -2.306  -3.559  0.00  0.00    -0.287 OA
ATOM     14  C   UNL     1       0.567  -5.340  -3.309  0.00  0.00    +0.152 C 
ATOM     15  N   UNL     1       0.729  -6.580  -2.533  0.00  0.00    -0.232 N 
ATOM     16  C   UNL     1       0.558  -6.282  -1.228  0.00  0.00    +0.289 C 
ATOM     17  O   UNL     1       0.627  -7.082  -0.317  0.00  0.00    -0.266 OA
ATOM     18  C   UNL     1       1.009  -7.831  -3.050  0.00  0.00    +0.169 A 
ATOM     19  N   UNL     1       1.158  -8.970  -2.397  0.00  0.00    -0.229 NA
ATOM     20  C   UNL     1       1.424 -10.088  -3.024  0.00  0.00    +0.062 A 
ATOM     21  C   UNL     1       1.539 -10.007  -4.406  0.00  0.00    +0.120 A 
ATOM     22  S   UNL     1       1.233  -8.266  -4.660  0.00  0.00    -0.045 S 
ATOM     23  C   UNL     1       1.596 -11.391  -2.287  0.00  0.00    +0.067 C 
ENDROOT
BRANCH  14  24
ATOM     24  C   UNL     1      -0.586  -5.474  -4.271  0.00  0.00    -0.019 A 
ATOM     25  C   UNL     1      -1.718  -6.176  -3.899  0.00  0.00    +0.006 A 
ATOM     26  C   UNL     1      -2.776  -6.301  -4.779  0.00  0.00    +0.004 A 
ATOM     27  C   UNL     1      -2.706  -5.725  -6.033  0.00  0.00    +0.045 A 
ATOM     28  C   UNL     1      -1.571  -5.021  -6.408  0.00  0.00    +0.117 A 
ATOM     29  C   UNL     1      -0.512  -4.891  -5.521  0.00  0.00    +0.051 A 
BRANCH  28  30
ATOM     30  O   UNL     1      -1.499  -4.453  -7.641  0.00  0.00    -0.507 OA
ATOM     31  H   UNL     1      -1.833  -3.546  -7.677  0.00  0.00    +0.292 HD
ENDBRANCH  28  30
ENDBRANCH  14  24
BRANCH  21  32
ATOM     32  C   UNL     1       1.825 -11.056  -5.382  0.00  0.00    +0.348 C 
ATOM     33  O   UNL     1       2.002 -12.201  -5.010  0.00  0.00    -0.244 OA
BRANCH  32  34
ATOM     34  O   UNL     1       1.893 -10.756  -6.696  0.00  0.00    -0.457 OA
BRANCH  34  35
ATOM     35  C   UNL     1       2.176 -11.831  -7.593  0.00  0.00    +0.259 C 
BRANCH  35  36
ATOM     36  C   UNL     1       2.212 -11.309  -9.007  0.00  0.00    +0.006 C 
ATOM     37  C   UNL     1       3.176 -11.675  -9.816  0.00  0.00    +0.007 C 
ENDBRANCH  35  36
ENDBRANCH  34  35
ENDBRANCH  32  34
ENDBRANCH  21  32
TORSDOF 6
