REMARK  Name = ZINC65452186
REMARK  3 active torsions:
REMARK  status: ('A' for Active; 'I' for Inactive)
REMARK    1  A    between atoms: C_8  and  C_23
REMARK    2  A    between atoms: N_10  and  C_11
REMARK    3  A    between atoms: C_23  and  O_24
REMARK                            x       y       z     vdW  Elec       q    Type
REMARK                         _______ _______ _______ _____ _____    ______ ____
ROOT
ATOM      1  C   UNL     1      -0.016   1.376   0.089  0.00  0.00    +0.002 A 
ATOM      2  C   UNL     1       1.171   2.086   0.091  0.00  0.00    +0.002 A 
ATOM      3  C   UNL     1       2.379   1.418   0.051  0.00  0.00    +0.025 A 
ATOM      4  C   UNL     1       2.408   0.029   0.008  0.00  0.00    +0.057 A 
ATOM      5  C   UNL     1       1.214  -0.686   0.005  0.00  0.00    +0.050 A 
ATOM      6  C   UNL     1       0.003  -0.005   0.046  0.00  0.00    +0.025 A 
ATOM      7  N   UNL     1       1.484  -2.060  -0.041  0.00  0.00    -0.322 N 
ATOM      8  C   UNL     1       2.942  -2.219  -0.070  0.00  0.00    +0.189 C 
ATOM      9  N   UNL     1       3.492  -0.858  -0.037  0.00  0.00    -0.277 N 
ATOM     10  H   UNL     1       0.828  -2.775  -0.052  0.00  0.00    +0.148 HD
ENDROOT
BRANCH   9  11
ATOM     11  C   UNL     1       4.846  -0.511  -0.049  0.00  0.00    +0.036 A 
ATOM     12  C   UNL     1       5.376   0.168  -1.146  0.00  0.00    +0.024 A 
ATOM     13  C   UNL     1       6.696   0.518  -1.181  0.00  0.00    +0.010 A 
ATOM     14  C   UNL     1       7.527   0.194  -0.107  0.00  0.00    -0.011 A 
ATOM     15  C   UNL     1       8.948   0.547  -0.096  0.00  0.00    +0.026 A 
ATOM     16  C   UNL     1       9.703   0.213   0.963  0.00  0.00    +0.086 A 
ATOM     17  N   UNL     1       9.195  -0.452   2.044  0.00  0.00    -0.329 N 
ATOM     18  H   UNL     1       9.787  -0.668   2.781  0.00  0.00    +0.168 HD
ATOM     19  C   UNL     1       7.900  -0.816   2.120  0.00  0.00    +0.257 A 
ATOM     20  O   UNL     1       7.483  -1.408   3.100  0.00  0.00    -0.267 OA
ATOM     21  C   UNL     1       6.998  -0.493   1.009  0.00  0.00    +0.048 A 
ATOM     22  C   UNL     1       5.647  -0.839   1.031  0.00  0.00    +0.037 A 
ENDBRANCH   9  11
BRANCH   8  23
ATOM     23  C   UNL     1       3.371  -2.932  -1.353  0.00  0.00    +0.198 C 
BRANCH  23  24
ATOM     24  O   UNL     1       2.932  -2.180  -2.486  0.00  0.00    -0.392 OA
ATOM     25  H   UNL     1       3.170  -2.574  -3.336  0.00  0.00    +0.210 HD
ENDBRANCH  23  24
ENDBRANCH   8  23
TORSDOF 3
