REMARK  Name = ZINC08911986
REMARK  6 active torsions:
REMARK  status: ('A' for Active; 'I' for Inactive)
REMARK    1  A    between atoms: C_5  and  N_8
REMARK    2  A    between atoms: C_9  and  C_11
REMARK    3  A    between atoms: N_16  and  S_18
REMARK    4  A    between atoms: S_18  and  N_21
REMARK    5  A    between atoms: C_25  and  C_28
REMARK    6  A    between atoms: N_30  and  C_31
REMARK                            x       y       z     vdW  Elec       q    Type
REMARK                         _______ _______ _______ _____ _____    ______ ____
ROOT
ATOM      1  S   UNL     1      -4.285   2.163   0.055  0.00  0.00    +0.100 S 
ATOM      2  O   UNL     1      -4.370   2.834   1.305  0.00  0.00    -0.141 OA
ATOM      3  O   UNL     1      -4.395   2.847  -1.186  0.00  0.00    -0.141 OA
ENDROOT
BRANCH   1   8
ATOM      4  C   UNL     1      -0.729   1.579   1.268  0.00  0.00    +0.091 C 
ATOM      5  C   UNL     1      -0.013   1.086   0.008  0.00  0.00    +0.015 C 
ATOM      6  C   UNL     1      -0.752   1.593  -1.232  0.00  0.00    +0.018 C 
ATOM      7  C   UNL     1      -2.178   1.033  -1.236  0.00  0.00    +0.110 C 
ATOM      8  N   UNL     1      -2.826   1.380   0.037  0.00  0.00    -0.166 NA
ATOM      9  C   UNL     1      -2.154   1.019   1.293  0.00  0.00    +0.123 C 
BRANCH   4  11
ATOM     10  N   UNL     1       1.301   1.475   2.678  0.00  0.00    -0.312 N 
ATOM     11  C   UNL     1       0.018   1.107   2.488  0.00  0.00    +0.218 C 
ATOM     12  O   UNL     1      -0.534   0.395   3.300  0.00  0.00    -0.275 OA
ATOM     13  H   UNL     1       1.743   2.044   2.029  0.00  0.00    +0.149 HD
BRANCH  10  18
ATOM     14  C   UNL     1       3.416   1.531   6.856  0.00  0.00    +0.000 C 
ATOM     15  C   UNL     1       4.477   1.557   5.739  0.00  0.00    +0.000 C 
ATOM     16  C   UNL     1       4.289   0.447   4.741  0.00  0.00    +0.002 C 
ATOM     17  C   UNL     1       3.451   0.985   3.563  0.00  0.00    +0.022 C 
ATOM     18  C   UNL     1       2.027   1.016   3.864  0.00  0.00    +0.073 C 
ATOM     19  C   UNL     1       1.698   1.952   5.045  0.00  0.00    +0.022 C 
ATOM     20  C   UNL     1       2.001   1.227   6.329  0.00  0.00    +0.002 C 
ENDBRANCH  10  18
ENDBRANCH   4  11
ENDBRANCH   1   8
BRANCH   1  21
ATOM     21  N   UNL     1      -5.464   1.000   0.061  0.00  0.00    -0.166 NA
ATOM     22  C   UNL     1      -5.985   0.468   1.327  0.00  0.00    +0.110 C 
ATOM     23  C   UNL     1      -7.511   0.604   1.329  0.00  0.00    +0.018 C 
ATOM     24  C   UNL     1      -8.081  -0.074   0.081  0.00  0.00    +0.015 C 
ATOM     25  C   UNL     1      -7.535   0.617  -1.171  0.00  0.00    +0.091 C 
ATOM     26  C   UNL     1      -6.014   0.485  -1.201  0.00  0.00    +0.123 C 
BRANCH  25  27
ATOM     27  C   UNL     1      -8.122  -0.030  -2.399  0.00  0.00    +0.218 C 
ATOM     28  O   UNL     1      -7.393  -0.547  -3.219  0.00  0.00    -0.275 OA
ATOM     29  N   UNL     1      -9.457  -0.036  -2.586  0.00  0.00    -0.312 N 
ATOM     30  H   UNL     1     -10.040   0.377  -1.929  0.00  0.00    +0.149 HD
BRANCH  29  31
ATOM     31  C   UNL     1     -10.027  -0.665  -3.779  0.00  0.00    +0.073 C 
ATOM     32  C   UNL     1      -9.978   0.342  -4.947  0.00  0.00    +0.022 C 
ATOM     33  C   UNL     1     -10.067  -0.423  -6.240  0.00  0.00    +0.002 C 
ATOM     34  C   UNL     1     -11.512  -0.522  -6.766  0.00  0.00    +0.000 C 
ATOM     35  C   UNL     1     -12.535  -0.810  -5.651  0.00  0.00    +0.000 C 
ATOM     36  C   UNL     1     -12.040  -1.836  -4.666  0.00  0.00    +0.002 C 
ATOM     37  C   UNL     1     -11.384  -1.100  -3.480  0.00  0.00    +0.022 C 
ENDBRANCH  29  31
ENDBRANCH  25  27
ENDBRANCH   1  21
TORSDOF 6
