REMARK  Name = ZINC01478375
REMARK  7 active torsions:
REMARK  status: ('A' for Active; 'I' for Inactive)
REMARK    1  A    between atoms: C_1  and  O_2
REMARK    2  A    between atoms: O_2  and  C_3
REMARK    3  A    between atoms: C_6  and  N_9
REMARK    4  A    between atoms: C_19  and  S_20
REMARK    5  A    between atoms: S_20  and  C_21
REMARK    6  A    between atoms: C_21  and  C_22
REMARK    7  A    between atoms: N_24  and  N_25
REMARK                            x       y       z     vdW  Elec       q    Type
REMARK                         _______ _______ _______ _____ _____    ______ ____
ROOT
ATOM      1  N   UNL     1       2.647  -2.520   4.186  0.00  0.00    -0.255 N 
ATOM      2  C   UNL     1       3.330  -1.784   5.093  0.00  0.00    +0.267 A 
ATOM      3  O   UNL     1       3.362  -0.569   5.026  0.00  0.00    -0.267 OA
ATOM      4  C   UNL     1       4.031  -2.506   6.163  0.00  0.00    +0.065 A 
ATOM      5  C   UNL     1       4.761  -1.839   7.146  0.00  0.00    +0.015 A 
ATOM      6  C   UNL     1       5.395  -2.561   8.120  0.00  0.00    +0.001 A 
ATOM      7  C   UNL     1       5.318  -3.947   8.140  0.00  0.00    +0.002 A 
ATOM      8  C   UNL     1       4.610  -4.626   7.189  0.00  0.00    +0.028 A 
ATOM      9  C   UNL     1       3.951  -3.918   6.180  0.00  0.00    +0.079 A 
ATOM     10  N   UNL     1       3.240  -4.548   5.223  0.00  0.00    -0.223 NA
ATOM     11  C   UNL     1       2.618  -3.884   4.280  0.00  0.00    +0.177 A 
ENDROOT
BRANCH   1  15
ATOM     12  C   UNL     1       0.605  -0.613   1.089  0.00  0.00    +0.120 A 
ATOM     13  C   UNL     1      -0.103  -1.224   2.114  0.00  0.00    +0.047 A 
ATOM     14  C   UNL     1       0.572  -1.856   3.139  0.00  0.00    +0.030 A 
ATOM     15  C   UNL     1       1.960  -1.879   3.144  0.00  0.00    +0.052 A 
ATOM     16  C   UNL     1       2.668  -1.268   2.118  0.00  0.00    +0.030 A 
ATOM     17  C   UNL     1       1.992  -0.641   1.091  0.00  0.00    +0.047 A 
BRANCH  12  19
ATOM     18  C   UNL     1      -1.489  -0.002   0.142  0.00  0.00    +0.277 C 
ATOM     19  O   UNL     1      -0.061   0.008   0.080  0.00  0.00    -0.495 OA
ENDBRANCH  12  19
ENDBRANCH   1  15
BRANCH  11  20
ATOM     20  S   UNL     1       1.707  -4.790   3.075  0.00  0.00    -0.078 S 
BRANCH  20  21
ATOM     21  C   UNL     1       1.931  -6.522   3.567  0.00  0.00    +0.174 C 
BRANCH  21  22
ATOM     22  C   UNL     1       1.193  -7.417   2.605  0.00  0.00    +0.242 C 
ATOM     23  O   UNL     1       0.576  -6.934   1.679  0.00  0.00    -0.273 OA
ATOM     24  N   UNL     1       1.217  -8.754   2.774  0.00  0.00    -0.206 N 
ATOM     25  H   UNL     1       1.710  -9.140   3.515  0.00  0.00    +0.177 HD
BRANCH  24  26
ATOM     26  N   UNL     1       0.531  -9.586   1.880  0.00  0.00    -0.175 NA
ATOM     27  C   UNL     1       0.465 -10.876   2.104  0.00  0.00    +0.152 C 
ATOM     28  C   UNL     1       0.918 -11.606   3.311  0.00  0.00    +0.028 A 
ATOM     29  C   UNL     1       1.509 -11.202   4.502  0.00  0.00    +0.012 A 
ATOM     30  C   UNL     1       1.823 -12.142   5.464  0.00  0.00    +0.001 A 
ATOM     31  C   UNL     1       1.550 -13.481   5.241  0.00  0.00    +0.002 A 
ATOM     32  C   UNL     1       0.962 -13.892   4.062  0.00  0.00    +0.024 A 
ATOM     33  C   UNL     1       0.639 -12.960   3.081  0.00  0.00    +0.043 A 
ATOM     34  N   UNL     1       0.053 -13.103   1.828  0.00  0.00    -0.280 N 
ATOM     35  C   UNL     1      -0.081 -11.917   1.210  0.00  0.00    +0.269 C 
ATOM     36  O   UNL     1      -0.564 -11.734   0.108  0.00  0.00    -0.268 OA
ATOM     37  H   UNL     1      -0.228 -13.951   1.450  0.00  0.00    +0.155 HD
ENDBRANCH  24  26
ENDBRANCH  21  22
ENDBRANCH  20  21
ENDBRANCH  11  20
TORSDOF 6
