REMARK  Name = ZINC39469658
REMARK  7 active torsions:
REMARK  status: ('A' for Active; 'I' for Inactive)
REMARK    1  A    between atoms: C_1  and  S_2
REMARK    2  A    between atoms: S_2  and  C_3
REMARK    3  A    between atoms: P_12  and  S_28
REMARK    4  A    between atoms: C_20  and  C_21
REMARK    5  A    between atoms: C_21  and  C_22
REMARK    6  A    between atoms: S_28  and  O_31
REMARK    7  A    between atoms: O_31  and  C_32
REMARK                            x       y       z     vdW  Elec       q    Type
REMARK                         _______ _______ _______ _____ _____    ______ ____
ROOT
ATOM      1  C   UNL     1      -1.702  -0.454   0.016  0.00  0.00    +0.007 C 
ATOM      2  C   UNL     1      -2.651   0.492   0.025  0.00  0.00    -0.008 C 
ATOM      3  C   UNL     1      -4.099   0.083   0.049  0.00  0.00    +0.017 C 
ATOM      4  C   UNL     1      -4.963   1.203   0.613  0.00  0.00    -0.003 C 
ATOM      5  C   UNL     1      -4.620   1.466   2.084  0.00  0.00    -0.020 C 
ATOM      6  C   UNL     1      -5.555   2.581   2.572  0.00  0.00    +0.158 C 
ATOM      7  O   UNL     1      -5.245   2.906   3.939  0.00  0.00    -0.301 OA
ATOM      8  P   UNL     1      -5.148   1.678   5.003  0.00  0.00    +0.431 P 
ATOM      9  O   UNL     1      -6.502   1.270   5.440  0.00  0.00    -0.246 OA
ATOM     10  N   UNL     1      -4.417   0.449   4.179  0.00  0.00    -0.271 NA
ATOM     11  N   UNL     1      -4.795   0.242   2.869  0.00  0.00    +0.398 N 
ATOM     12  C   UNL     1      -3.917  -0.823   2.359  0.00  0.00    -0.046 C 
ATOM     13  C   UNL     1      -4.265  -1.161   0.926  0.00  0.00    +0.005 C 
ATOM     14  C   UNL     1      -3.304  -2.224   0.451  0.00  0.00    -0.020 C 
ATOM     15  C   UNL     1      -2.098  -1.876   0.012  0.00  0.00    -0.034 C 
ATOM     16  H   UNL     1      -3.747  -0.109   4.603  0.00  0.00    +0.113 HD
ATOM     17  H   UNL     1      -5.761  -0.050   2.833  0.00  0.00    -0.055 HD
ENDROOT
BRANCH   8  18
ATOM     18  S   UNL     1      -3.977   2.246   6.676  0.00  0.00    +0.209 S 
ATOM     19  O   UNL     1      -4.062   1.180   7.612  0.00  0.00    -0.126 OA
ATOM     20  O   UNL     1      -2.736   2.712   6.164  0.00  0.00    -0.126 OA
BRANCH  18  21
ATOM     21  O   UNL     1      -4.660   3.445   7.318  0.00  0.00    -0.339 OA
BRANCH  21  22
ATOM     22  C   UNL     1      -5.777   3.131   8.025  0.00  0.00    +0.157 A 
ATOM     23  C   UNL     1      -7.014   3.114   7.397  0.00  0.00    +0.048 A 
ATOM     24  C   UNL     1      -8.149   2.794   8.118  0.00  0.00    +0.004 A 
ATOM     25  C   UNL     1      -8.052   2.492   9.464  0.00  0.00    +0.000 A 
ATOM     26  C   UNL     1      -6.820   2.509  10.091  0.00  0.00    +0.004 A 
ATOM     27  C   UNL     1      -5.682   2.822   9.374  0.00  0.00    +0.048 A 
ENDBRANCH  21  22
ENDBRANCH  18  21
ENDBRANCH   8  18
BRANCH   1  29
ATOM     28  C   UNL     1      -0.022   1.810   0.012  0.00  0.00    +0.090 C 
ATOM     29  S   UNL     1       0.002  -0.004   0.002  0.00  0.00    -0.129 S 
ENDBRANCH   1  29
BRANCH  15  30
ATOM     30  C   UNL     1      -1.137  -2.927  -0.481  0.00  0.00    +0.071 C 
BRANCH  30  31
ATOM     31  C   UNL     1      -1.246  -3.043  -1.980  0.00  0.00    -0.043 A 
ATOM     32  C   UNL     1      -2.148  -3.927  -2.541  0.00  0.00    +0.004 A 
ATOM     33  C   UNL     1      -2.248  -4.034  -3.916  0.00  0.00    +0.000 A 
ATOM     34  C   UNL     1      -1.446  -3.256  -4.729  0.00  0.00    +0.000 A 
ATOM     35  C   UNL     1      -0.544  -2.371  -4.168  0.00  0.00    +0.000 A 
ATOM     36  C   UNL     1      -0.447  -2.262  -2.794  0.00  0.00    +0.004 A 
ENDBRANCH  30  31
ENDBRANCH  15  30
TORSDOF 6
