REMARK  Name = ZINC14160056
REMARK  9 active torsions:
REMARK  status: ('A' for Active; 'I' for Inactive)
REMARK    1  A    between atoms: C_1  and  C_2
REMARK    2  A    between atoms: C_2  and  C_3
REMARK    3  A    between atoms: C_10  and  C_12
REMARK    4  A    between atoms: C_12  and  C_14
REMARK    5  A    between atoms: C_12  and  N_59
REMARK    6  A    between atoms: C_15  and  C_16
REMARK    7  A    between atoms: C_15  and  N_59
REMARK    8  A    between atoms: C_16  and  C_18
REMARK    9  A    between atoms: C_16  and  C_23
REMARK                            x       y       z     vdW  Elec       q    Type
REMARK                         _______ _______ _______ _____ _____    ______ ____
ROOT
ATOM      1  C   UNL     1      -5.067   4.634  -0.892  0.00  0.00    -0.068 C 
ENDROOT
BRANCH   1   2
ATOM      2  N   UNL     1      -5.240   6.099  -0.872  0.00  0.00    +0.387 N 
ATOM      3  H   UNL     1      -5.940   6.348  -0.163  0.00  0.00    -0.085 HD
ATOM      4  H   UNL     1      -4.344   6.543  -0.639  0.00  0.00    -0.085 HD
BRANCH   2   5
ATOM      5  C   UNL     1      -5.692   6.579  -2.192  0.00  0.00    +0.013 C 
ATOM      6  C   UNL     1      -4.479   6.797  -3.098  0.00  0.00    -0.004 C 
BRANCH   5  13
ATOM      7  C   UNL     1      -7.873   9.656  -2.891  0.00  0.00    +0.076 C 
ATOM      8  C   UNL     1      -9.376   9.492  -3.107  0.00  0.00    +0.022 C 
ATOM      9  C   UNL     1      -9.623   8.782  -4.440  0.00  0.00    +0.003 C 
ATOM     10  C   UNL     1      -8.984   7.392  -4.405  0.00  0.00    +0.019 C 
ATOM     11  C   UNL     1      -7.472   7.534  -4.206  0.00  0.00    +0.108 C 
ATOM     12  N   UNL     1      -7.227   8.341  -3.002  0.00  0.00    -0.300 N 
ATOM     13  C   UNL     1      -6.430   7.882  -2.018  0.00  0.00    +0.202 C 
ATOM     14  O   UNL     1      -6.306   8.516  -0.992  0.00  0.00    -0.277 OA
BRANCH   7  16
ATOM     15  C   UNL     1      -8.259  11.622  -1.397  0.00  0.00    +0.006 C 
ATOM     16  C   UNL     1      -7.617  10.236  -1.498  0.00  0.00    +0.019 C 
ENDBRANCH   7  16
ENDBRANCH   5  13
ENDBRANCH   2   5
ENDBRANCH   1   2
BRANCH   1  17
ATOM     17  C   UNL     1      -4.599   4.166   0.487  0.00  0.00    +0.041 C 
BRANCH  17  18
ATOM     18  C   UNL     1      -4.302   2.689   0.442  0.00  0.00    -0.016 A 
ATOM     19  C   UNL     1      -5.164   1.711   0.120  0.00  0.00    +0.087 A 
ATOM     20  N   UNL     1      -4.537   0.496   0.187  0.00  0.00    -0.360 N 
ATOM     21  H   UNL     1      -4.957  -0.358   0.003  0.00  0.00    +0.165 HD
ATOM     22  C   UNL     1      -3.220   0.669   0.552  0.00  0.00    +0.047 A 
ATOM     23  C   UNL     1      -3.015   2.050   0.726  0.00  0.00    +0.003 A 
ATOM     24  C   UNL     1      -1.756   2.526   1.096  0.00  0.00    +0.010 A 
ATOM     25  C   UNL     1      -0.729   1.646   1.292  0.00  0.00    +0.001 A 
ATOM     26  C   UNL     1      -0.927   0.282   1.126  0.00  0.00    +0.002 A 
ATOM     27  C   UNL     1      -2.162  -0.209   0.761  0.00  0.00    +0.026 A 
ENDBRANCH  17  18
BRANCH  17  28
ATOM     28  C   UNL     1      -5.682   4.430   1.502  0.00  0.00    -0.005 A 
ATOM     29  C   UNL     1      -5.638   5.202   2.615  0.00  0.00    +0.012 A 
ATOM     30  C   UNL     1      -6.767   5.298   3.408  0.00  0.00    +0.008 A 
ATOM     31  C   UNL     1      -7.883   4.619   3.048  0.00  0.00    +0.045 A 
ATOM     32  S   UNL     1      -7.357   3.814   1.544  0.00  0.00    -0.101 S 
ENDBRANCH  17  28
ENDBRANCH   1  17
TORSDOF 7
