REMARK  Name = ZINC11991455
REMARK  4 active torsions:
REMARK  status: ('A' for Active; 'I' for Inactive)
REMARK    1  A    between atoms: C_1  and  N_2
REMARK    2  A    between atoms: N_2  and  C_3
REMARK    3  A    between atoms: N_2  and  C_4
REMARK    4  A    between atoms: C_7  and  N_10
REMARK                            x       y       z     vdW  Elec       q    Type
REMARK                         _______ _______ _______ _____ _____    ______ ____
ROOT
ATOM      1  N   UNL     1      -0.017   1.397   0.010  0.00  0.00    -0.285 N 
ATOM      2  C   UNL     1       1.143   2.125  -0.022  0.00  0.00    +0.200 A 
ATOM      3  N   UNL     1       1.087   3.481   0.086  0.00  0.00    -0.295 N 
ATOM      4  H   UNL     1       0.232   3.928   0.188  0.00  0.00    +0.172 HD
ATOM      5  C   UNL     1       2.228   4.197   0.055  0.00  0.00    +0.256 A 
ATOM      6  O   UNL     1       2.199   5.412   0.156  0.00  0.00    -0.267 OA
ATOM      7  C   UNL     1       3.458   3.522  -0.102  0.00  0.00    +0.038 A 
ATOM      8  C   UNL     1       3.456   2.168  -0.201  0.00  0.00    +0.053 A 
ATOM      9  N   UNL     1       2.294   1.504  -0.162  0.00  0.00    -0.220 NA
ATOM     10  C   UNL     1       4.720   1.362  -0.347  0.00  0.00    +0.056 C 
ATOM     11  C   UNL     1       5.873   2.250  -0.809  0.00  0.00    +0.006 C 
ATOM     12  C   UNL     1       5.941   3.474   0.112  0.00  0.00    +0.005 C 
ATOM     13  C   UNL     1       4.716   4.346  -0.157  0.00  0.00    +0.042 C 
ATOM     14  H   UNL     1      -0.862   1.838   0.191  0.00  0.00    +0.155 HD
ENDROOT
BRANCH   1  18
ATOM     15  C   UNL     1       0.081  -2.713  -0.689  0.00  0.00    +0.029 A 
ATOM     16  C   UNL     1      -0.845  -2.182   0.198  0.00  0.00    +0.025 A 
ATOM     17  C   UNL     1      -0.878  -0.821   0.429  0.00  0.00    +0.025 A 
ATOM     18  C   UNL     1       0.016   0.016  -0.225  0.00  0.00    +0.034 A 
ATOM     19  C   UNL     1       0.939  -0.515  -1.116  0.00  0.00    +0.025 A 
ATOM     20  C   UNL     1       0.975  -1.876  -1.344  0.00  0.00    +0.025 A 
BRANCH  15  22
ATOM     21  C   UNL     1      -0.829  -4.976  -0.233  0.00  0.00    +0.129 C 
ATOM     22  N   UNL     1       0.114  -4.093  -0.924  0.00  0.00    -0.336 N 
ATOM     23  C   UNL     1       1.092  -4.653  -1.860  0.00  0.00    +0.129 C 
ENDBRANCH  15  22
ENDBRANCH   1  18
TORSDOF 2
