REMARK  Name = ZINC21526708
REMARK  15 active torsions:
REMARK  status: ('A' for Active; 'I' for Inactive)
REMARK    1  A    between atoms: C_1  and  C_2
REMARK    2  A    between atoms: C_2  and  C_3
REMARK    3  A    between atoms: C_2  and  C_4
REMARK    4  A    between atoms: C_4  and  N_5
REMARK    5  A    between atoms: N_5  and  C_6
REMARK    6  A    between atoms: N_5  and  C_33
REMARK    7  A    between atoms: C_6  and  C_7
REMARK    8  A    between atoms: C_7  and  C_8
REMARK    9  A    between atoms: C_8  and  N_9
REMARK   10  A    between atoms: C_18  and  C_19
REMARK   11  A    between atoms: C_18  and  C_20
REMARK   12  A    between atoms: N_22  and  C_23
REMARK   13  A    between atoms: C_33  and  C_34
REMARK   14  A    between atoms: C_34  and  C_35
REMARK   15  A    between atoms: C_34  and  C_36
REMARK                            x       y       z     vdW  Elec       q    Type
REMARK                         _______ _______ _______ _____ _____    ______ ____
ROOT
ATOM      1  N   UNL     1       2.366   0.447   2.247  0.00  0.00    -0.281 N 
ATOM      2  C   UNL     1       1.242  -0.307   2.260  0.00  0.00    +0.264 C 
ATOM      3  O   UNL     1       1.225  -1.440   1.816  0.00  0.00    -0.268 OA
ATOM      4  C   UNL     1       0.045   0.315   2.838  0.00  0.00    +0.109 A 
ATOM      5  C   UNL     1      -1.165  -0.223   3.164  0.00  0.00    +0.079 A 
ATOM      6  C   UNL     1      -1.950   0.805   3.707  0.00  0.00    +0.153 A 
ATOM      7  C   UNL     1      -1.185   1.971   3.695  0.00  0.00    +0.088 A 
ATOM      8  N   UNL     1       0.029   1.671   3.157  0.00  0.00    -0.331 N 
ATOM      9  C   UNL     1       1.186   2.534   2.900  0.00  0.00    +0.157 C 
ATOM     10  C   UNL     1       2.464   1.700   2.986  0.00  0.00    +0.128 C 
ATOM     11  C   UNL     1       2.748   1.386   4.456  0.00  0.00    +0.043 C 
ATOM     12  C   UNL     1      -2.004   2.983   4.253  0.00  0.00    +0.067 A 
ATOM     13  C   UNL     1      -3.183   2.417   4.564  0.00  0.00    +0.198 A 
ATOM     14  O   UNL     1      -3.153   1.114   4.236  0.00  0.00    -0.461 OA
ENDROOT
BRANCH  10  15
ATOM     15  C   UNL     1       3.609   2.506   2.430  0.00  0.00    +0.238 C 
ATOM     16  O   UNL     1       4.708   2.428   2.938  0.00  0.00    -0.273 OA
ATOM     17  N   UNL     1       3.413   3.313   1.369  0.00  0.00    -0.311 N 
ATOM     18  H   UNL     1       2.403   3.436   0.951  0.00  0.00    +0.149 HD
BRANCH  17  19
ATOM     19  C   UNL     1       4.545   4.027   0.773  0.00  0.00    +0.073 C 
ATOM     20  C   UNL     1       4.821   5.302   1.595  0.00  0.00    +0.022 C 
ATOM     21  C   UNL     1       6.232   5.748   1.327  0.00  0.00    +0.002 C 
ATOM     22  C   UNL     1       6.315   6.800   0.203  0.00  0.00    +0.000 C 
ATOM     23  C   UNL     1       5.391   6.476  -0.986  0.00  0.00    +0.000 C 
ATOM     24  C   UNL     1       5.405   5.016  -1.347  0.00  0.00    +0.002 C 
ATOM     25  C   UNL     1       4.237   4.320  -0.619  0.00  0.00    +0.022 C 
ENDBRANCH  17  19
ENDBRANCH  10  15
BRANCH   1  26
ATOM     26  C   UNL     1       3.519  -0.009   1.466  0.00  0.00    +0.107 C 
BRANCH  26  27
ATOM     27  C   UNL     1       3.335   0.396   0.002  0.00  0.00    +0.000 C 
BRANCH  27  28
ATOM     28  C   UNL     1       4.539  -0.080  -0.814  0.00  0.00    -0.077 C 
BRANCH  28  29
ATOM     29  N   UNL     1       4.410   0.394  -2.199  0.00  0.00    +0.380 N 
ATOM     30  H   UNL     1       4.328   1.490  -2.175  0.00  0.00    -0.082 HD
BRANCH  29  31
ATOM     31  C   UNL     1       5.601   0.048  -2.986  0.00  0.00    -0.076 C 
BRANCH  31  33
ATOM     32  C   UNL     1       8.023   0.552  -3.340  0.00  0.00    +0.005 C 
ATOM     33  C   UNL     1       6.748   0.992  -2.618  0.00  0.00    -0.034 C 
ATOM     34  C   UNL     1       6.389   2.418  -3.039  0.00  0.00    +0.005 C 
ENDBRANCH  31  33
ENDBRANCH  29  31
BRANCH  29  35
ATOM     35  C   UNL     1       3.192  -0.137  -2.826  0.00  0.00    -0.076 C 
BRANCH  35  36
ATOM     36  C   UNL     1       2.019   0.802  -2.537  0.00  0.00    -0.034 C 
ATOM     37  C   UNL     1       2.292   2.168  -3.169  0.00  0.00    +0.005 C 
ATOM     38  C   UNL     1       0.737   0.213  -3.128  0.00  0.00    +0.005 C 
ENDBRANCH  35  36
ENDBRANCH  29  35
ENDBRANCH  28  29
ENDBRANCH  27  28
ENDBRANCH  26  27
ENDBRANCH   1  26
TORSDOF 10
