REMARK  Name = ZINC14733737
REMARK  10 active torsions:
REMARK  status: ('A' for Active; 'I' for Inactive)
REMARK    1  A    between atoms: C_1  and  O_2
REMARK    2  A    between atoms: O_2  and  C_3
REMARK    3  A    between atoms: C_3  and  C_4
REMARK    4  A    between atoms: C_4  and  C_5
REMARK    5  A    between atoms: C_5  and  N_6
REMARK    6  A    between atoms: N_9  and  C_25
REMARK    7  A    between atoms: C_17  and  C_18
REMARK    8  A    between atoms: C_17  and  N_69
REMARK    9  A    between atoms: C_22  and  O_24
REMARK   10  A    between atoms: C_25  and  C_26
REMARK                            x       y       z     vdW  Elec       q    Type
REMARK                         _______ _______ _______ _____ _____    ______ ____
ROOT
ATOM      1  N   UNL     1       2.285   5.457  -5.779  0.00  0.00    -0.271 N 
ATOM      2  C   UNL     1       1.797   6.522  -6.444  0.00  0.00    +0.312 C 
ATOM      3  O   UNL     1       1.207   6.446  -7.503  0.00  0.00    -0.252 OA
ATOM      4  N   UNL     1       2.035   7.674  -5.805  0.00  0.00    -0.220 N 
ATOM      5  C   UNL     1       2.706   7.474  -4.652  0.00  0.00    +0.247 C 
ATOM      6  O   UNL     1       3.065   8.315  -3.856  0.00  0.00    -0.273 OA
ATOM      7  C   UNL     1       2.916   5.981  -4.562  0.00  0.00    +0.112 C 
ATOM      8  C   UNL     1       4.405   5.650  -4.545  0.00  0.00    +0.017 C 
ATOM      9  C   UNL     1       4.586   4.134  -4.427  0.00  0.00    -0.076 C 
ATOM     10  C   UNL     1       2.482   3.910  -3.241  0.00  0.00    -0.076 C 
ATOM     11  C   UNL     1       2.231   5.419  -3.320  0.00  0.00    +0.017 C 
ATOM     12  N   UNL     1       3.941   3.671  -3.179  0.00  0.00    +0.382 N 
ATOM     13  H   UNL     1       4.330   4.197  -2.388  0.00  0.00    -0.081 HD
ENDROOT
BRANCH   1  14
ATOM     14  C   UNL     1       2.203   4.053  -6.191  0.00  0.00    +0.112 C 
BRANCH  14  15
ATOM     15  C   UNL     1       3.038   3.842  -7.455  0.00  0.00    +0.047 C 
BRANCH  15  16
ATOM     16  C   UNL     1       3.056   2.355  -7.813  0.00  0.00    +0.161 C 
BRANCH  16  18
ATOM     17  C   UNL     1       3.917   0.795  -9.416  0.00  0.00    +0.193 C 
ATOM     18  O   UNL     1       3.836   2.158  -8.994  0.00  0.00    -0.383 OA
ENDBRANCH  16  18
ENDBRANCH  15  16
ENDBRANCH  14  15
ENDBRANCH   1  14
BRANCH  12  19
ATOM     19  C   UNL     1       4.208   2.233  -2.977  0.00  0.00    -0.043 C 
BRANCH  19  20
ATOM     20  C   UNL     1       3.730   1.840  -1.603  0.00  0.00    -0.061 A 
ATOM     21  C   UNL     1       4.583   1.942  -0.519  0.00  0.00    +0.002 A 
ATOM     22  C   UNL     1       4.148   1.583   0.743  0.00  0.00    +0.004 A 
ATOM     23  C   UNL     1       2.858   1.125   0.925  0.00  0.00    +0.045 A 
ATOM     24  C   UNL     1       2.002   1.016  -0.161  0.00  0.00    +0.117 A 
ATOM     25  C   UNL     1       2.441   1.377  -1.427  0.00  0.00    +0.047 A 
BRANCH  24  26
ATOM     26  O   UNL     1       0.733   0.561   0.015  0.00  0.00    -0.507 OA
ATOM     27  H   UNL     1       0.643  -0.398  -0.074  0.00  0.00    +0.292 HD
ENDBRANCH  24  26
ENDBRANCH  19  20
ENDBRANCH  12  19
BRANCH   4  28
ATOM     28  C   UNL     1       1.618   8.990  -6.297  0.00  0.00    +0.153 C 
BRANCH  28  29
ATOM     29  C   UNL     1       2.707   9.572  -7.160  0.00  0.00    -0.029 A 
ATOM     30  C   UNL     1       2.708   9.314  -8.530  0.00  0.00    +0.006 A 
ATOM     31  C   UNL     1       3.677   9.824  -9.338  0.00  0.00    +0.009 A 
ATOM     32  C   UNL     1       4.694  10.623  -8.787  0.00  0.00    -0.018 A 
ATOM     33  C   UNL     1       5.711  11.167  -9.589  0.00  0.00    +0.008 A 
ATOM     34  C   UNL     1       6.679  11.936  -9.020  0.00  0.00    +0.001 A 
ATOM     35  C   UNL     1       6.677  12.194  -7.650  0.00  0.00    +0.001 A 
ATOM     36  C   UNL     1       5.708  11.684  -6.842  0.00  0.00    +0.008 A 
ATOM     37  C   UNL     1       4.692  10.884  -7.394  0.00  0.00    -0.018 A 
ATOM     38  C   UNL     1       3.672  10.345  -6.592  0.00  0.00    +0.013 A 
ENDBRANCH  28  29
ENDBRANCH   4  28
TORSDOF 9
