REMARK  Name = ZINC15974283
REMARK  6 active torsions:
REMARK  status: ('A' for Active; 'I' for Inactive)
REMARK    1  A    between atoms: C_1  and  C_2
REMARK    2  A    between atoms: C_6  and  N_8
REMARK    3  A    between atoms: C_9  and  O_27
REMARK    4  A    between atoms: C_10  and  C_14
REMARK    5  A    between atoms: C_11  and  C_13
REMARK    6  A    between atoms: N_15  and  C_16
REMARK                            x       y       z     vdW  Elec       q    Type
REMARK                         _______ _______ _______ _____ _____    ______ ____
ROOT
ATOM      1  N   UNL     1       0.051  -2.798   2.395  0.00  0.00    -0.200 N 
ATOM      2  C   UNL     1      -0.557  -3.983   2.622  0.00  0.00    +0.225 A 
ATOM      3  C   UNL     1      -0.293  -4.332   3.942  0.00  0.00    +0.077 A 
ATOM      4  C   UNL     1       0.502  -3.299   4.493  0.00  0.00    +0.073 A 
ATOM      5  N   UNL     1       0.703  -2.402   3.567  0.00  0.00    -0.168 NA
ATOM      6  C   UNL     1       1.031  -3.247   5.903  0.00  0.00    +0.068 C 
ENDROOT
BRANCH   1  12
ATOM      7  C   UNL     1      -0.018   1.503   0.010  0.00  0.00    +0.044 C 
ATOM      8  C   UNL     1       0.002  -0.004   0.002  0.00  0.00    -0.048 A 
ATOM      9  C   UNL     1       0.006  -0.688  -1.200  0.00  0.00    +0.003 A 
ATOM     10  C   UNL     1       0.024  -2.071  -1.212  0.00  0.00    +0.002 A 
ATOM     11  C   UNL     1       0.039  -2.773  -0.022  0.00  0.00    +0.028 A 
ATOM     12  C   UNL     1       0.035  -2.089   1.186  0.00  0.00    +0.069 A 
ATOM     13  C   UNL     1       0.023  -0.700   1.194  0.00  0.00    +0.031 A 
ENDBRANCH   1  12
BRANCH   3  14
ATOM     14  C   UNL     1      -0.752  -5.542   4.633  0.00  0.00    +0.126 C 
ATOM     15  N   UNL     1      -1.485  -6.417   4.000  0.00  0.00    -0.255 NA
BRANCH  15  16
ATOM     16  C   UNL     1      -1.913  -7.546   4.645  0.00  0.00    +0.066 A 
ATOM     17  C   UNL     1      -1.026  -8.276   5.441  0.00  0.00    +0.030 A 
ATOM     18  C   UNL     1      -1.455  -9.413   6.092  0.00  0.00    +0.030 A 
ATOM     19  C   UNL     1      -2.770  -9.836   5.958  0.00  0.00    +0.067 A 
ATOM     20  C   UNL     1      -3.662  -9.112   5.163  0.00  0.00    +0.069 A 
ATOM     21  C   UNL     1      -3.237  -7.966   4.513  0.00  0.00    +0.055 A 
ATOM     22  N   UNL     1      -4.886  -9.774   5.226  0.00  0.00    -0.306 N 
ATOM     23  C   UNL     1      -4.745 -10.852   6.020  0.00  0.00    +0.325 A 
ATOM     24  N   UNL     1      -3.481 -10.917   6.477  0.00  0.00    -0.306 N 
ATOM     25  H   UNL     1      -3.125 -11.599   7.067  0.00  0.00    +0.170 HD
ATOM     26  O   UNL     1      -5.628 -11.646   6.286  0.00  0.00    -0.247 OA
ATOM     27  H   UNL     1      -5.701  -9.505   4.774  0.00  0.00    +0.170 HD
ENDBRANCH  15  16
ENDBRANCH   3  14
BRANCH   2  28
ATOM     28  O   UNL     1      -1.287  -4.697   1.732  0.00  0.00    -0.492 OA
ATOM     29  H   UNL     1      -0.769  -5.328   1.215  0.00  0.00    +0.294 HD
ENDBRANCH   2  28
TORSDOF 4
