REMARK  Name = ZINC38904615
REMARK  11 active torsions:
REMARK  status: ('A' for Active; 'I' for Inactive)
REMARK    1  A    between atoms: C_1  and  C_2
REMARK    2  A    between atoms: C_2  and  C_4
REMARK    3  A    between atoms: C_2  and  N_14
REMARK    4  A    between atoms: C_7  and  C_10
REMARK    5  A    between atoms: C_10  and  C_11
REMARK    6  A    between atoms: C_10  and  C_12
REMARK    7  A    between atoms: C_10  and  C_13
REMARK    8  A    between atoms: C_15  and  C_17
REMARK    9  A    between atoms: N_22  and  C_24
REMARK   10  A    between atoms: C_24  and  C_25
REMARK   11  A    between atoms: C_27  and  C_30
REMARK                            x       y       z     vdW  Elec       q    Type
REMARK                         _______ _______ _______ _____ _____    ______ ____
ROOT
ATOM      1  C   UNL     1       0.712  -1.094  -3.598  0.00  0.00    +0.058 C 
ATOM      2  C   UNL     1       1.282  -2.493  -3.347  0.00  0.00    +0.009 C 
ATOM      3  C   UNL     1       1.928  -3.009  -4.636  0.00  0.00    -0.018 C 
ATOM      4  C   UNL     1       0.890  -3.000  -5.760  0.00  0.00    -0.078 C 
ATOM      5  N   UNL     1       0.402  -1.632  -5.969  0.00  0.00    +0.386 N 
ATOM      6  C   UNL     1      -0.282  -1.155  -4.761  0.00  0.00    -0.065 C 
ATOM      7  H   UNL     1       1.182  -1.025  -6.173  0.00  0.00    -0.081 HD
ENDROOT
BRANCH   1   9
ATOM      8  N   UNL     1       0.688  -0.476  -1.203  0.00  0.00    -0.309 N 
ATOM      9  C   UNL     1       0.006  -0.608  -2.358  0.00  0.00    +0.215 C 
ATOM     10  O   UNL     1      -1.175  -0.336  -2.400  0.00  0.00    -0.276 OA
ATOM     11  H   UNL     1       1.632  -0.695  -1.170  0.00  0.00    +0.149 HD
BRANCH   8  13
ATOM     12  C   UNL     1      -0.019   1.526   0.010  0.00  0.00    +0.033 C 
ATOM     13  C   UNL     1       0.002  -0.004   0.002  0.00  0.00    +0.100 C 
BRANCH  13  14
ATOM     14  C   UNL     1       0.731  -0.503   1.223  0.00  0.00    -0.027 A 
ATOM     15  C   UNL     1       2.113  -0.514   1.247  0.00  0.00    +0.006 A 
ATOM     16  C   UNL     1       2.782  -0.972   2.366  0.00  0.00    +0.004 A 
ATOM     17  C   UNL     1       2.068  -1.419   3.463  0.00  0.00    -0.042 A 
ATOM     18  C   UNL     1       0.686  -1.407   3.439  0.00  0.00    +0.004 A 
ATOM     19  C   UNL     1       0.017  -0.945   2.321  0.00  0.00    +0.006 A 
BRANCH  17  20
ATOM     20  C   UNL     1       2.797  -1.919   4.683  0.00  0.00    -0.013 C 
ATOM     21  C   UNL     1       3.677  -0.801   5.246  0.00  0.00    +0.015 C 
ATOM     22  C   UNL     1       1.781  -2.350   5.743  0.00  0.00    +0.015 C 
ATOM     23  C   UNL     1       3.673  -3.113   4.301  0.00  0.00    +0.015 C 
ENDBRANCH  17  20
ENDBRANCH  13  14
ENDBRANCH   8  13
ENDBRANCH   1   9
BRANCH   5  24
ATOM     24  C   UNL     1      -0.536  -1.615  -7.099  0.00  0.00    +0.022 C 
BRANCH  24  25
ATOM     25  C   UNL     1       0.197  -1.976  -8.366  0.00  0.00    +0.211 A 
ATOM     26  N   UNL     1       0.345  -3.179  -8.842  0.00  0.00    -0.193 NA
ATOM     27  C   UNL     1       1.051  -3.137  -9.987  0.00  0.00    +0.202 A 
ATOM     28  N   UNL     1       1.357  -1.890 -10.244  0.00  0.00    -0.056 NA
ATOM     29  O   UNL     1       0.800  -1.114  -9.194  0.00  0.00    -0.340 OA
BRANCH  27  30
ATOM     30  C   UNL     1       1.421  -4.309 -10.819  0.00  0.00    +0.023 A 
ATOM     31  C   UNL     1       1.028  -5.590 -10.437  0.00  0.00    +0.012 A 
ATOM     32  C   UNL     1       1.375  -6.677 -11.214  0.00  0.00    +0.002 A 
ATOM     33  C   UNL     1       2.111  -6.496 -12.371  0.00  0.00    +0.015 A 
ATOM     34  C   UNL     1       2.505  -5.226 -12.756  0.00  0.00    +0.019 A 
ATOM     35  C   UNL     1       2.157  -4.131 -11.988  0.00  0.00    +0.027 A 
ATOM     36 BR   UNL     1       3.512  -4.988 -14.338  0.00  0.00    -0.050 Br
ENDBRANCH  27  30
ENDBRANCH  24  25
ENDBRANCH   5  24
TORSDOF 7
