REMARK  Name = ZINC06135927
REMARK  11 active torsions:
REMARK  status: ('A' for Active; 'I' for Inactive)
REMARK    1  A    between atoms: C_1  and  N_2
REMARK    2  A    between atoms: N_2  and  C_3
REMARK    3  A    between atoms: N_2  and  C_4
REMARK    4  A    between atoms: C_7  and  C_10
REMARK    5  A    between atoms: C_10  and  C_12
REMARK    6  A    between atoms: C_10  and  N_20
REMARK    7  A    between atoms: N_14  and  C_15
REMARK    8  A    between atoms: N_20  and  C_21
REMARK    9  A    between atoms: C_28  and  C_30
REMARK   10  A    between atoms: C_31  and  N_38
REMARK   11  A    between atoms: C_32  and  C_35
REMARK                            x       y       z     vdW  Elec       q    Type
REMARK                         _______ _______ _______ _____ _____    ______ ____
ROOT
ATOM      1  N   UNL     1      -0.700   2.029  -1.145  0.00  0.00    -0.248 N 
ATOM      2  C   UNL     1       0.014   2.641  -2.112  0.00  0.00    +0.262 C 
ATOM      3  O   UNL     1       1.211   2.806  -1.972  0.00  0.00    -0.269 OA
ENDROOT
BRANCH   1   4
ATOM      4  C   UNL     1      -2.077   1.839  -1.306  0.00  0.00    +0.073 A 
ATOM      5  C   UNL     1      -2.968   2.818  -0.891  0.00  0.00    +0.026 A 
ATOM      6  C   UNL     1      -4.327   2.628  -1.052  0.00  0.00    +0.002 A 
ATOM      7  C   UNL     1      -4.801   1.463  -1.626  0.00  0.00    +0.003 A 
ATOM      8  C   UNL     1      -3.918   0.484  -2.042  0.00  0.00    +0.040 A 
ATOM      9  C   UNL     1      -2.556   0.670  -1.888  0.00  0.00    +0.145 A 
ATOM     10  F   UNL     1      -1.692  -0.285  -2.299  0.00  0.00    -0.204 F 
ENDBRANCH   1   4
BRANCH   2  11
ATOM     11  C   UNL     1      -0.652   3.106  -3.330  0.00  0.00    +0.116 A 
ATOM     12  C   UNL     1      -0.112   3.760  -4.439  0.00  0.00    +0.076 A 
ATOM     13  C   UNL     1      -1.071   4.042  -5.412  0.00  0.00    +0.155 A 
ATOM     14  N   UNL     1      -2.322   3.695  -5.202  0.00  0.00    -0.203 NA
ATOM     15  S   UNL     1      -2.369   2.996  -3.790  0.00  0.00    +0.019 S 
BRANCH  13  16
ATOM     16  C   UNL     1      -0.687   4.726  -6.660  0.00  0.00    +0.262 C 
ATOM     17  O   UNL     1       0.471   5.044  -6.848  0.00  0.00    -0.269 OA
ATOM     18  N   UNL     1      -1.621   5.000  -7.593  0.00  0.00    -0.324 N 
ATOM     19  H   UNL     1      -2.545   4.746  -7.444  0.00  0.00    +0.145 HD
ATOM     20  H   UNL     1      -1.368   5.450  -8.414  0.00  0.00    +0.145 HD
ENDBRANCH  13  16
BRANCH  12  21
ATOM     21  N   UNL     1       1.231   4.090  -4.561  0.00  0.00    -0.355 N 
ATOM     22  H   UNL     1       1.852   3.866  -3.851  0.00  0.00    +0.142 HD
ATOM     23  H   UNL     1       1.548   4.546  -5.357  0.00  0.00    +0.142 HD
ENDBRANCH  12  21
ENDBRANCH   2  11
BRANCH   1  24
ATOM     24  C   UNL     1      -0.033   1.563   0.073  0.00  0.00    +0.198 C 
BRANCH  24  28
ATOM     25  C   UNL     1      -0.939  -2.566   0.703  0.00  0.00    +0.029 A 
ATOM     26  C   UNL     1       0.358  -2.177   0.397  0.00  0.00    +0.023 A 
ATOM     27  C   UNL     1       0.648  -0.842   0.194  0.00  0.00    +0.008 A 
ATOM     28  C   UNL     1      -0.353   0.107   0.295  0.00  0.00    -0.018 A 
ATOM     29  C   UNL     1      -1.645  -0.276   0.606  0.00  0.00    +0.008 A 
ATOM     30  C   UNL     1      -1.942  -1.610   0.805  0.00  0.00    +0.023 A 
BRANCH  25  32
ATOM     31  C   UNL     1      -0.176  -4.922   0.803  0.00  0.00    +0.129 C 
ATOM     32  N   UNL     1      -1.235  -3.915   0.910  0.00  0.00    -0.336 N 
ATOM     33  C   UNL     1      -2.604  -4.324   1.233  0.00  0.00    +0.129 C 
ENDBRANCH  25  32
ENDBRANCH  24  28
BRANCH  24  34
ATOM     34  C   UNL     1      -0.519   2.369   1.250  0.00  0.00    +0.239 C 
ATOM     35  O   UNL     1      -1.340   3.246   1.087  0.00  0.00    -0.273 OA
ATOM     36  N   UNL     1      -0.040   2.115   2.484  0.00  0.00    -0.311 N 
ATOM     37  H   UNL     1       0.617   1.414   2.615  0.00  0.00    +0.149 HD
BRANCH  36  38
ATOM     38  C   UNL     1      -0.512   2.899   3.629  0.00  0.00    +0.073 C 
ATOM     39  C   UNL     1       0.350   4.168   3.792  0.00  0.00    +0.022 C 
ATOM     40  C   UNL     1       0.473   4.349   5.325  0.00  0.00    +0.002 C 
ATOM     41  C   UNL     1       0.605   2.892   5.832  0.00  0.00    +0.002 C 
ATOM     42  C   UNL     1      -0.350   2.088   4.926  0.00  0.00    +0.022 C 
ENDBRANCH  36  38
ENDBRANCH  24  34
ENDBRANCH   1  24
TORSDOF 9
