REMARK  Name = ZINC38564996
REMARK  12 active torsions:
REMARK  status: ('A' for Active; 'I' for Inactive)
REMARK    1  A    between atoms: CG2_1  and  CB_2
REMARK    2  A    between atoms: CB_2  and  CA_4
REMARK    3  A    between atoms: CB_2  and  OG1_38
REMARK    4  A    between atoms: CA_4  and  C_6
REMARK    5  A    between atoms: CA_4  and  N_9
REMARK    6  A    between atoms: C_10  and  C_12
REMARK    7  A    between atoms: C_12  and  C_14
REMARK    8  A    between atoms: C_12  and  N_18
REMARK    9  A    between atoms: C_14  and  C_15
REMARK   10  A    between atoms: C_15  and  C_16
REMARK   11  A    between atoms: C_15  and  C_17
REMARK   12  A    between atoms: C_21  and  C_37
REMARK                            x       y       z     vdW  Elec       q    Type
REMARK                         _______ _______ _______ _____ _____    ______ ____
ROOT
ATOM      1  N   UNK A   0       4.555   0.864   3.916  0.00  0.00    -0.212 N 
ATOM      2  C   UNK A   0       4.872   1.992   4.590  0.00  0.00    +0.253 C 
ATOM      3  O   UNK A   0       4.883   3.125   4.160  0.00  0.00    -0.272 OA
ATOM      4  C   UNK A   0       5.208   1.543   5.992  0.00  0.00    +0.153 C 
ATOM      5  C   UNK A   0       6.603   1.962   6.391  0.00  0.00    +0.053 A 
ATOM      6  H   UNK A   0       6.628   4.026   6.104  0.00  0.00    +0.166 HD
ATOM      7  C   UNK A   0       7.540   1.086   6.819  0.00  0.00    -0.015 A 
ATOM      8  C   UNK A   0       8.728   1.866   7.119  0.00  0.00    +0.003 A 
ATOM      9  C   UNK A   0       9.992   1.511   7.601  0.00  0.00    +0.010 A 
ATOM     10  C   UNK A   0      10.899   2.528   7.770  0.00  0.00    +0.001 A 
ATOM     11  C   UNK A   0      10.588   3.846   7.480  0.00  0.00    +0.002 A 
ATOM     12  C   UNK A   0       9.345   4.225   7.002  0.00  0.00    +0.026 A 
ATOM     13  C   UNK A   0       8.404   3.213   6.822  0.00  0.00    +0.047 A 
ATOM     14  N   UNK A   0       7.112   3.232   6.382  0.00  0.00    -0.356 N 
ATOM     15  C   UNK A   0       7.380  -0.408   6.936  0.00  0.00    +0.056 C 
ATOM     16  C   UNK A   0       5.894  -0.792   6.862  0.00  0.00    +0.115 C 
ATOM     17  N   UNK A   0       5.261   0.068   5.859  0.00  0.00    -0.266 N 
ATOM     18  C   UNK A   0       4.720  -0.230   4.677  0.00  0.00    +0.313 C 
ATOM     19  O   UNK A   0       4.416  -1.354   4.330  0.00  0.00    -0.252 OA
ATOM     20  C   UNK A   0       4.154   1.993   7.006  0.00  0.00    +0.048 C 
ENDROOT
BRANCH   1  21
ATOM     21  C   UNK A   0       4.085   0.839   2.529  0.00  0.00    +0.171 C 
BRANCH  21  23
ATOM     22  N   THR A   1       2.077   0.091   1.294  0.00  0.00    -0.299 N 
ATOM     23  C   UNK A   0       2.712   0.220   2.475  0.00  0.00    +0.235 C 
ATOM     24  O   UNK A   0       2.179  -0.163   3.495  0.00  0.00    -0.274 OA
ATOM     25  H   THR A   1       2.503   0.397   0.478  0.00  0.00    +0.150 HD
BRANCH  22  26
ATOM     26  CA  THR A   1       0.742  -0.511   1.242  0.00  0.00    +0.215 C 
BRANCH  26  27
ATOM     27  C   THR A   1       0.870  -2.011   1.172  0.00  0.00    +0.378 C 
ATOM     28  O   THR A   1       1.842  -2.516   0.636  0.00  0.00    -0.244 OA
ATOM     29  OXT THR A   1       0.002  -2.720   1.651  0.00  0.00    -0.244 OA
ENDBRANCH  26  27
BRANCH  26  31
ATOM     30  CG2 THR A   1      -0.019   1.526   0.010  0.00  0.00    +0.040 C 
ATOM     31  CB  THR A   1       0.002  -0.004   0.002  0.00  0.00    +0.143 C 
BRANCH  31  32
ATOM     32  OG1 THR A   1       0.671  -0.465  -1.174  0.00  0.00    -0.390 OA
ATOM     33  HG1 THR A   1       1.588  -0.167  -1.247  0.00  0.00    +0.210 HD
ENDBRANCH  31  32
ENDBRANCH  26  31
ENDBRANCH  22  26
ENDBRANCH  21  23
BRANCH  21  34
ATOM     34  C   UNK A   0       5.051   0.013   1.678  0.00  0.00    +0.035 C 
BRANCH  34  35
ATOM     35  C   UNK A   0       6.413   0.708   1.631  0.00  0.00    -0.015 C 
ATOM     36  C   UNK A   0       7.413  -0.178   0.885  0.00  0.00    +0.007 C 
ATOM     37  C   UNK A   0       6.276   2.047   0.903  0.00  0.00    +0.007 C 
ENDBRANCH  34  35
ENDBRANCH  21  34
ENDBRANCH   1  21
TORSDOF 8
