REMARK  Name = ZINC12901148
REMARK  8 active torsions:
REMARK  status: ('A' for Active; 'I' for Inactive)
REMARK    1  A    between atoms: C_1  and  C_2
REMARK    2  A    between atoms: C_5  and  S_9
REMARK    3  A    between atoms: C_6  and  C_8
REMARK    4  A    between atoms: S_9  and  N_12
REMARK    5  A    between atoms: C_15  and  C_18
REMARK    6  A    between atoms: N_20  and  C_21
REMARK    7  A    between atoms: C_26  and  C_31
REMARK    8  A    between atoms: C_28  and  C_30
REMARK                            x       y       z     vdW  Elec       q    Type
REMARK                         _______ _______ _______ _____ _____    ______ ____
ROOT
ATOM      1  N   UNL     1      -6.475   4.086  -2.568  0.00  0.00    -0.177 NA
ATOM      2  C   UNL     1      -6.856   2.693  -2.297  0.00  0.00    +0.110 C 
ATOM      3  C   UNL     1      -6.115   2.214  -1.045  0.00  0.00    +0.030 C 
ATOM      4  C   UNL     1      -4.612   2.428  -1.234  0.00  0.00    +0.077 C 
ATOM      5  C   UNL     1      -4.328   3.921  -1.422  0.00  0.00    +0.030 C 
ATOM      6  C   UNL     1      -5.049   4.419  -2.678  0.00  0.00    +0.110 C 
ENDROOT
BRANCH   4   7
ATOM      7  C   UNL     1      -3.876   1.926  -0.018  0.00  0.00    +0.216 C 
ATOM      8  O   UNL     1      -4.493   1.445   0.908  0.00  0.00    -0.276 OA
ATOM      9  N   UNL     1      -2.532   2.013   0.039  0.00  0.00    -0.312 N 
ATOM     10  H   UNL     1      -2.039   2.398  -0.701  0.00  0.00    +0.149 HD
BRANCH   9  11
ATOM     11  C   UNL     1      -1.817   1.524   1.221  0.00  0.00    +0.076 C 
ATOM     12  C   UNL     1      -1.568   0.021   1.082  0.00  0.00    +0.022 C 
ATOM     13  C   UNL     1      -0.821  -0.488   2.316  0.00  0.00    +0.002 C 
ATOM     14  C   UNL     1       0.518   0.241   2.439  0.00  0.00    +0.003 C 
ATOM     15  C   UNL     1       0.269   1.744   2.579  0.00  0.00    -0.009 C 
ATOM     16  C   UNL     1      -0.478   2.254   1.344  0.00  0.00    +0.009 C 
ATOM     17  C   UNL     1       0.363   1.990   0.094  0.00  0.00    +0.009 C 
ATOM     18  C   UNL     1       1.608   2.474   2.702  0.00  0.00    +0.008 C 
ENDBRANCH   9  11
ENDBRANCH   4   7
BRANCH   1  19
ATOM     19  S   UNL     1      -7.632   5.258  -2.746  0.00  0.00    +0.061 S 
ATOM     20  O   UNL     1      -7.079   6.247  -3.604  0.00  0.00    -0.153 OA
ATOM     21  O   UNL     1      -8.848   4.586  -3.042  0.00  0.00    -0.153 OA
BRANCH  19  26
ATOM     22  C   UNL     1      -8.370   7.869   2.643  0.00  0.00    +0.044 C 
ATOM     23  C   UNL     1      -8.186   7.217   1.297  0.00  0.00    -0.050 A 
ATOM     24  C   UNL     1      -7.627   7.931   0.253  0.00  0.00    +0.005 A 
ATOM     25  C   UNL     1      -7.453   7.331  -0.980  0.00  0.00    +0.029 A 
ATOM     26  C   UNL     1      -7.848   6.021  -1.173  0.00  0.00    +0.108 A 
ATOM     27  C   UNL     1      -8.407   5.306  -0.129  0.00  0.00    -0.024 A 
ATOM     28  C   UNL     1      -8.576   5.905   1.105  0.00  0.00    +0.008 A 
ATOM     29  C   UNL     1      -8.831   3.876  -0.338  0.00  0.00    +0.046 C 
ENDBRANCH  19  26
ENDBRANCH   1  19
TORSDOF 4
