REMARK  Name = ZINC19798601
REMARK  16 active torsions:
REMARK  status: ('A' for Active; 'I' for Inactive)
REMARK    1  A    between atoms: C_1  and  C_2
REMARK    2  A    between atoms: C_3  and  C_37
REMARK    3  A    between atoms: C_4  and  C_25
REMARK    4  A    between atoms: C_10  and  C_15
REMARK    5  A    between atoms: C_18  and  O_23
REMARK    6  A    between atoms: C_19  and  O_21
REMARK    7  A    between atoms: O_21  and  C_22
REMARK    8  A    between atoms: O_23  and  C_24
REMARK    9  A    between atoms: C_27  and  O_35
REMARK   10  A    between atoms: C_28  and  O_33
REMARK   11  A    between atoms: C_29  and  O_31
REMARK   12  A    between atoms: O_31  and  C_32
REMARK   13  A    between atoms: O_33  and  C_34
REMARK   14  A    between atoms: O_35  and  C_36
REMARK   15  A    between atoms: C_37  and  O_39
REMARK   16  A    between atoms: O_39  and  C_40
REMARK                            x       y       z     vdW  Elec       q    Type
REMARK                         _______ _______ _______ _____ _____    ______ ____
ROOT
ATOM      1  C   UNL     1      -8.921  -4.668  -3.804  0.00  0.00    +0.061 C 
ATOM      2  C   UNL     1      -8.667  -4.067  -2.446  0.00  0.00    +0.016 C 
ATOM      3  C   UNL     1      -9.426  -4.436  -1.400  0.00  0.00    +0.065 C 
ATOM      4  C   UNL     1      -9.206  -3.853  -0.035  0.00  0.00    +0.092 C 
ATOM      5  C   UNL     1      -7.845  -3.212   0.067  0.00  0.00    +0.024 C 
ATOM      6  C   UNL     1      -7.152  -2.886  -1.045  0.00  0.00    +0.016 C 
ATOM      7  N   UNL     1      -7.666  -3.150  -2.286  0.00  0.00    -0.321 N 
ATOM      8  C   UNL     1      -5.798  -2.227  -0.951  0.00  0.00    +0.059 C 
ATOM      9  C   UNL     1      -5.089  -2.690   0.323  0.00  0.00    +0.032 C 
ATOM     10  C   UNL     1      -5.967  -2.332   1.526  0.00  0.00    +0.088 C 
ATOM     11  C   UNL     1      -7.322  -2.960   1.347  0.00  0.00    +0.162 C 
ATOM     12  O   UNL     1      -7.977  -3.256   2.328  0.00  0.00    -0.292 OA
ATOM     13  H   UNL     1      -7.264  -2.616  -3.160  0.00  0.00    +0.152 HD
ENDROOT
BRANCH   9  14
ATOM     14  C   UNL     1      -3.758  -1.993   0.443  0.00  0.00    -0.040 A 
ATOM     15  C   UNL     1      -3.705  -0.614   0.515  0.00  0.00    +0.008 A 
ATOM     16  C   UNL     1      -2.487   0.029   0.632  0.00  0.00    +0.049 A 
ATOM     17  C   UNL     1      -1.315  -0.708   0.664  0.00  0.00    +0.161 A 
ATOM     18  C   UNL     1      -1.367  -2.097   0.590  0.00  0.00    +0.162 A 
ATOM     19  C   UNL     1      -2.592  -2.735   0.480  0.00  0.00    +0.053 A 
BRANCH  18  20
ATOM     20  O   UNL     1      -0.220  -2.825   0.627  0.00  0.00    -0.491 OA
ATOM     21  C   UNL     1      -0.350  -4.246   0.547  0.00  0.00    +0.277 C 
ENDBRANCH  18  20
BRANCH  17  22
ATOM     22  O   UNL     1      -0.115  -0.076   0.772  0.00  0.00    -0.491 OA
ATOM     23  C   UNL     1      -0.137   1.351   0.842  0.00  0.00    +0.277 C 
ENDBRANCH  17  22
ENDBRANCH   9  14
BRANCH   4  24
ATOM     24  C   UNL     1     -10.264  -2.815   0.236  0.00  0.00    -0.028 A 
ATOM     25  C   UNL     1     -10.352  -1.694  -0.568  0.00  0.00    +0.054 A 
ATOM     26  C   UNL     1     -11.328  -0.739  -0.326  0.00  0.00    +0.165 A 
ATOM     27  C   UNL     1     -12.212  -0.905   0.733  0.00  0.00    +0.204 A 
ATOM     28  C   UNL     1     -12.117  -2.031   1.543  0.00  0.00    +0.165 A 
ATOM     29  C   UNL     1     -11.142  -2.983   1.291  0.00  0.00    +0.054 A 
BRANCH  28  30
ATOM     30  O   UNL     1     -12.979  -2.197   2.581  0.00  0.00    -0.491 OA
ATOM     31  C   UNL     1     -12.823  -3.377   3.372  0.00  0.00    +0.277 C 
ENDBRANCH  28  30
BRANCH  27  32
ATOM     32  O   UNL     1     -13.167   0.033   0.977  0.00  0.00    -0.488 OA
ATOM     33  C   UNL     1     -12.818   1.100   1.862  0.00  0.00    +0.277 C 
ENDBRANCH  27  32
BRANCH  26  34
ATOM     34  O   UNL     1     -11.416   0.360  -1.121  0.00  0.00    -0.491 OA
ATOM     35  C   UNL     1     -10.475   0.465  -2.192  0.00  0.00    +0.277 C 
ENDBRANCH  26  34
ENDBRANCH   4  24
BRANCH   3  36
ATOM     36  C   UNL     1     -10.451  -5.391  -1.590  0.00  0.00    +0.337 C 
ATOM     37  O   UNL     1     -10.710  -5.792  -2.709  0.00  0.00    -0.245 OA
BRANCH  36  38
ATOM     38  O   UNL     1     -11.143  -5.859  -0.529  0.00  0.00    -0.465 OA
ATOM     39  C   UNL     1     -12.165  -6.822  -0.794  0.00  0.00    +0.280 C 
ENDBRANCH  36  38
ENDBRANCH   3  36
TORSDOF 9
