REMARK  Name = ZINC40744497
REMARK  9 active torsions:
REMARK  status: ('A' for Active; 'I' for Inactive)
REMARK    1  A    between atoms: C_9  and  O_24
REMARK    2  A    between atoms: C_10  and  C_11
REMARK    3  A    between atoms: C_11  and  N_12
REMARK    4  A    between atoms: N_12  and  C_13
REMARK    5  A    between atoms: C_13  and  C_14
REMARK    6  A    between atoms: C_14  and  N_15
REMARK    7  A    between atoms: C_16  and  C_18
REMARK    8  A    between atoms: O_24  and  C_25
REMARK    9  A    between atoms: C_25  and  C_26
REMARK                            x       y       z     vdW  Elec       q    Type
REMARK                         _______ _______ _______ _____ _____    ______ ____
ROOT
ATOM      1  C   UNL     1      -0.016   1.357   0.009  0.00  0.00    +0.001 A 
ATOM      2  C   UNL     1       1.168   2.091   0.002  0.00  0.00    +0.001 A 
ATOM      3  C   UNL     1       2.378   1.468  -0.013  0.00  0.00    +0.009 A 
ATOM      4  C   UNL     1       2.438   0.064  -0.021  0.00  0.00    -0.013 A 
ATOM      5  C   UNL     1       1.232  -0.683  -0.013  0.00  0.00    -0.017 A 
ATOM      6  C   UNL     1       0.002  -0.004   0.002  0.00  0.00    +0.008 A 
ATOM      7  C   UNL     1       1.290  -2.087  -0.021  0.00  0.00    +0.012 A 
ATOM      8  C   UNL     1       2.497  -2.713  -0.036  0.00  0.00    +0.046 A 
ATOM      9  C   UNL     1       3.687  -1.979  -0.043  0.00  0.00    +0.123 A 
ATOM     10  C   UNL     1       3.668  -0.613  -0.037  0.00  0.00    -0.015 A 
ENDROOT
BRANCH  10  11
ATOM     11  C   UNL     1       4.960   0.163  -0.046  0.00  0.00    -0.042 C 
BRANCH  11  12
ATOM     12  N   UNL     1       5.393   0.408   1.336  0.00  0.00    +0.383 N 
ATOM     13  H   UNL     1       4.685   0.939   1.821  0.00  0.00    -0.085 HD
ATOM     14  H   UNL     1       5.534  -0.473   1.806  0.00  0.00    -0.085 HD
BRANCH  12  15
ATOM     15  C   UNL     1       6.652   1.165   1.327  0.00  0.00    -0.063 C 
BRANCH  15  16
ATOM     16  C   UNL     1       7.104   1.421   2.766  0.00  0.00    +0.085 C 
BRANCH  16  17
ATOM     17  N   UNL     1       8.360   2.175   2.757  0.00  0.00    -0.312 N 
ATOM     18  C   UNL     1       8.949   2.517   3.921  0.00  0.00    +0.269 C 
ATOM     19  O   UNL     1       8.438   2.199   4.976  0.00  0.00    -0.268 OA
ATOM     20  H   UNL     1       8.767   2.429   1.915  0.00  0.00    +0.149 HD
BRANCH  18  21
ATOM     21  C   UNL     1      10.219   3.279   3.912  0.00  0.00    +0.209 A 
ATOM     22  C   UNL     1      10.970   3.712   5.095  0.00  0.00    +0.192 A 
ATOM     23  N   UNL     1      12.032   4.356   4.694  0.00  0.00    -0.033 NA
ATOM     24  O   UNL     1      12.022   4.373   3.277  0.00  0.00    -0.240 OA
ATOM     25  N   UNL     1      10.865   3.679   2.847  0.00  0.00    -0.042 NA
ATOM     26  N   UNL     1      10.613   3.475   6.416  0.00  0.00    -0.339 N 
ATOM     27  H   UNL     1       9.802   2.985   6.618  0.00  0.00    +0.144 HD
ATOM     28  H   UNL     1      11.176   3.801   7.136  0.00  0.00    +0.144 HD
ENDBRANCH  18  21
ENDBRANCH  16  17
ENDBRANCH  15  16
ENDBRANCH  12  15
ENDBRANCH  11  12
ENDBRANCH  10  11
BRANCH   9  29
ATOM     29  O   UNL     1       4.878  -2.633  -0.057  0.00  0.00    -0.487 OA
BRANCH  29  30
ATOM     30  C   UNL     1       4.834  -4.061  -0.064  0.00  0.00    +0.264 C 
BRANCH  30  31
ATOM     31  C   UNL     1       6.239  -4.607  -0.079  0.00  0.00    -0.009 A 
ATOM     32  C   UNL     1       6.874  -4.846  -1.284  0.00  0.00    +0.008 A 
ATOM     33  C   UNL     1       8.162  -5.347  -1.299  0.00  0.00    +0.022 A 
ATOM     34  C   UNL     1       8.816  -5.609  -0.109  0.00  0.00    +0.059 A 
ATOM     35  C   UNL     1       8.181  -5.369   1.097  0.00  0.00    +0.060 A 
ATOM     36  C   UNL     1       6.893  -4.863   1.111  0.00  0.00    +0.028 A 
ATOM     37 CL   UNL     1       9.001  -5.698   2.592  0.00  0.00    -0.082 Cl
ATOM     38 CL   UNL     1      10.434  -6.239  -0.128  0.00  0.00    -0.082 Cl
ENDBRANCH  30  31
ENDBRANCH  29  30
ENDBRANCH   9  29
TORSDOF 9
