REMARK  Name = ZINC24716512
REMARK  8 active torsions:
REMARK  status: ('A' for Active; 'I' for Inactive)
REMARK    1  A    between atoms: C_1  and  O_2
REMARK    2  A    between atoms: O_2  and  C_3
REMARK    3  A    between atoms: C_6  and  C_9
REMARK    4  A    between atoms: C_17  and  C_19
REMARK    5  A    between atoms: C_19  and  N_20
REMARK    6  A    between atoms: N_23  and  C_26
REMARK    7  A    between atoms: C_26  and  C_27
REMARK    8  A    between atoms: C_28  and  C_29
REMARK                            x       y       z     vdW  Elec       q    Type
REMARK                         _______ _______ _______ _____ _____    ______ ____
ROOT
ATOM      1  C   UNL     1       2.493  -2.492  -4.362  0.00  0.00    +0.022 A 
ATOM      2  C   UNL     1       2.638  -3.825  -4.615  0.00  0.00    +0.044 A 
ATOM      3  C   UNL     1       3.297  -4.248  -5.772  0.00  0.00    +0.086 A 
ATOM      4  C   UNL     1       3.773  -3.223  -6.611  0.00  0.00    +0.102 A 
ATOM      5  S   UNL     1       3.287  -1.738  -5.772  0.00  0.00    -0.081 S 
ATOM      6  C   UNL     1       4.448  -3.510  -7.797  0.00  0.00    +0.266 A 
ATOM      7  O   UNL     1       4.858  -2.615  -8.518  0.00  0.00    -0.267 OA
ATOM      8  N   UNL     1       4.636  -4.811  -8.127  0.00  0.00    -0.309 N 
ATOM      9  C   UNL     1       4.166  -5.782  -7.301  0.00  0.00    +0.125 A 
ATOM     10  N   UNL     1       3.539  -5.533  -6.197  0.00  0.00    -0.232 NA
ATOM     11  H   UNL     1       5.101  -5.046  -8.945  0.00  0.00    +0.170 HD
ENDROOT
BRANCH   1  15
ATOM     12  C   UNL     1       0.606  -0.607  -1.055  0.00  0.00    +0.120 A 
ATOM     13  C   UNL     1       1.172   0.165  -2.061  0.00  0.00    +0.046 A 
ATOM     14  C   UNL     1       1.786  -0.443  -3.136  0.00  0.00    +0.012 A 
ATOM     15  C   UNL     1       1.837  -1.836  -3.212  0.00  0.00    -0.011 A 
ATOM     16  C   UNL     1       1.266  -2.608  -2.198  0.00  0.00    +0.012 A 
ATOM     17  C   UNL     1       0.659  -1.993  -1.124  0.00  0.00    +0.046 A 
BRANCH  12  19
ATOM     18  C   UNL     1      -0.017   1.425   0.010  0.00  0.00    +0.277 C 
ATOM     19  O   UNL     1       0.002  -0.004   0.002  0.00  0.00    -0.495 OA
ENDBRANCH  12  19
ENDBRANCH   1  15
BRANCH   9  20
ATOM     20  C   UNL     1       4.387  -7.222  -7.689  0.00  0.00    +0.158 C 
BRANCH  20  21
ATOM     21  N   UNL     1       3.805  -8.100  -6.666  0.00  0.00    -0.299 NA
ATOM     22  C   UNL     1       2.341  -7.973  -6.633  0.00  0.00    +0.066 C 
ATOM     23  C   UNL     1       1.781  -8.857  -5.516  0.00  0.00    -0.063 C 
ATOM     24  N   UNL     1       2.163 -10.254  -5.760  0.00  0.00    +0.384 N 
ATOM     25  C   UNL     1       3.627 -10.369  -5.765  0.00  0.00    -0.063 C 
ATOM     26  C   UNL     1       4.203  -9.498  -6.884  0.00  0.00    +0.066 C 
ATOM     27  H   UNL     1       1.799 -10.552  -6.652  0.00  0.00    -0.081 HD
BRANCH  24  28
ATOM     28  C   UNL     1       1.609 -11.105  -4.697  0.00  0.00    -0.051 C 
BRANCH  28  29
ATOM     29  C   UNL     1       1.896 -12.551  -5.011  0.00  0.00    -0.045 C 
ATOM     30  C   UNL     1       2.526 -13.309  -4.125  0.00  0.00    +0.002 C 
BRANCH  30  31
ATOM     31  C   UNL     1       2.808 -14.727  -4.433  0.00  0.00    -0.025 A 
ATOM     32  C   UNL     1       2.415 -15.269  -5.657  0.00  0.00    +0.008 A 
ATOM     33  C   UNL     1       2.681 -16.594  -5.938  0.00  0.00    +0.001 A 
ATOM     34  C   UNL     1       3.334 -17.384  -5.009  0.00  0.00    +0.000 A 
ATOM     35  C   UNL     1       3.725 -16.852  -3.793  0.00  0.00    +0.001 A 
ATOM     36  C   UNL     1       3.471 -15.527  -3.502  0.00  0.00    +0.008 A 
ENDBRANCH  30  31
ENDBRANCH  28  29
ENDBRANCH  24  28
ENDBRANCH  20  21
ENDBRANCH   9  20
TORSDOF 7
