REMARK  Name = ZINC04270468
REMARK  6 active torsions:
REMARK  status: ('A' for Active; 'I' for Inactive)
REMARK    1  A    between atoms: C_1  and  C_2
REMARK    2  A    between atoms: C_6  and  N_9
REMARK    3  A    between atoms: C_7  and  C_8
REMARK    4  A    between atoms: N_9  and  S_10
REMARK    5  A    between atoms: S_10  and  C_13
REMARK    6  A    between atoms: C_19  and  C_27
REMARK                            x       y       z     vdW  Elec       q    Type
REMARK                         _______ _______ _______ _____ _____    ______ ____
ROOT
ATOM      1  C   UNL     1       2.524  -4.003   2.334  0.00  0.00    +0.109 A 
ATOM      2  C   UNL     1       3.101  -4.000   1.073  0.00  0.00    +0.034 A 
ATOM      3  C   UNL     1       4.451  -3.791   0.920  0.00  0.00    -0.024 A 
ATOM      4  C   UNL     1       5.192  -3.588   2.084  0.00  0.00    +0.043 A 
ATOM      5  C   UNL     1       4.618  -3.589   3.347  0.00  0.00    -0.012 A 
ATOM      6  C   UNL     1       3.264  -3.793   3.496  0.00  0.00    +0.035 A 
ATOM      7  C   UNL     1       5.748  -3.335   4.296  0.00  0.00    +0.104 C 
ATOM      8  C   UNL     1       6.972  -3.203   3.398  0.00  0.00    +0.227 C 
ATOM      9  O   UNL     1       8.108  -2.989   3.764  0.00  0.00    -0.275 OA
ATOM     10  N   UNL     1       6.565  -3.365   2.130  0.00  0.00    -0.270 N 
ATOM     11  C   UNL     1       7.354  -3.336   0.886  0.00  0.00    +0.114 C 
ATOM     12  C   UNL     1       6.645  -4.207  -0.157  0.00  0.00    +0.024 C 
ATOM     13  C   UNL     1       5.197  -3.760  -0.382  0.00  0.00    +0.038 C 
ATOM     14  C   UNL     1       5.913  -4.513   5.259  0.00  0.00    +0.022 C 
ENDROOT
BRANCH   1  15
ATOM     15  S   UNL     1       0.788  -4.277   2.472  0.00  0.00    +0.072 S 
ATOM     16  O   UNL     1       0.558  -4.774   3.783  0.00  0.00    -0.150 OA
ATOM     17  O   UNL     1       0.396  -4.991   1.307  0.00  0.00    -0.150 OA
BRANCH  15  18
ATOM     18  N   UNL     1       0.051  -2.796   2.390  0.00  0.00    -0.216 N 
ATOM     19  H   UNL     1      -0.486  -2.481   3.133  0.00  0.00    +0.174 HD
BRANCH  18  25
ATOM     20  C   UNL     1       0.514   1.661   0.374  0.00  0.00    +0.044 C 
ATOM     21  C   UNL     1       0.431   0.162   0.244  0.00  0.00    -0.046 A 
ATOM     22  C   UNL     1       0.506  -0.428  -1.004  0.00  0.00    +0.004 A 
ATOM     23  C   UNL     1       0.430  -1.803  -1.128  0.00  0.00    +0.002 A 
ATOM     24  C   UNL     1       0.279  -2.592  -0.004  0.00  0.00    +0.025 A 
ATOM     25  C   UNL     1       0.204  -2.002   1.252  0.00  0.00    +0.051 A 
ATOM     26  C   UNL     1       0.286  -0.621   1.373  0.00  0.00    -0.025 A 
ATOM     27  C   UNL     1       0.211   0.024   2.733  0.00  0.00    +0.046 C 
ENDBRANCH  18  25
ENDBRANCH  15  18
ENDBRANCH   1  15
TORSDOF 3
