REMARK  Name = ZINC41511528
REMARK  6 active torsions:
REMARK  status: ('A' for Active; 'I' for Inactive)
REMARK    1  A    between atoms: C_1  and  C_2
REMARK    2  A    between atoms: C_4  and  O_33
REMARK    3  A    between atoms: C_5  and  C_24
REMARK    4  A    between atoms: C_11  and  C_12
REMARK    5  A    between atoms: C_24  and  N_25
REMARK    6  A    between atoms: C_30  and  C_32
REMARK                            x       y       z     vdW  Elec       q    Type
REMARK                         _______ _______ _______ _____ _____    ______ ____
ROOT
ATOM      1  C   UNL     1      -0.718   1.600   0.144  0.00  0.00    +0.045 C 
ATOM      2  C   UNL     1      -0.779   0.095   0.115  0.00  0.00    -0.033 A 
ATOM      3  C   UNL     1      -1.029  -0.558  -1.060  0.00  0.00    +0.050 A 
ATOM      4  C   UNL     1      -1.085  -1.948  -1.089  0.00  0.00    +0.122 A 
ATOM      5  C   UNL     1      -0.889  -2.686   0.068  0.00  0.00    +0.020 A 
ATOM      6  C   UNL     1      -0.634  -2.038   1.270  0.00  0.00    +0.145 A 
ATOM      7  C   UNL     1      -0.574  -0.635   1.286  0.00  0.00    +0.071 A 
ATOM      8  C   UNL     1      -0.284  -0.247   2.678  0.00  0.00    +0.232 C 
ATOM      9  O   UNL     1      -0.155   0.878   3.128  0.00  0.00    -0.283 OA
ATOM     10  C   UNL     1      -0.188  -1.522   3.404  0.00  0.00    +0.176 C 
ATOM     11  C   UNL     1       0.068  -1.674   4.729  0.00  0.00    +0.061 C 
ATOM     12  O   UNL     1      -0.412  -2.517   2.513  0.00  0.00    -0.451 OA
ENDROOT
BRANCH  11  13
ATOM     13  C   UNL     1      -0.019  -3.002   5.345  0.00  0.00    +0.022 A 
ATOM     14  C   UNL     1      -0.011  -4.152   4.546  0.00  0.00    +0.031 A 
ATOM     15  C   UNL     1      -0.095  -5.396   5.133  0.00  0.00    +0.042 A 
ATOM     16  C   UNL     1      -0.189  -5.513   6.512  0.00  0.00    +0.029 A 
ATOM     17  C   UNL     1      -0.198  -4.387   7.313  0.00  0.00    +0.022 A 
ATOM     18  C   UNL     1      -0.105  -3.129   6.742  0.00  0.00    +0.136 A 
ATOM     19  O   UNL     1      -0.096  -2.015   7.519  0.00  0.00    -0.465 OA
ATOM     20  C   UNL     1      -0.543  -2.165   8.870  0.00  0.00    +0.395 C 
ATOM     21  O   UNL     1       0.098  -3.314   9.438  0.00  0.00    -0.339 OA
ATOM     22  C   UNL     1      -0.305  -4.539   8.810  0.00  0.00    +0.202 C 
ATOM     23 CL   UNL     1      -0.084  -6.822   4.143  0.00  0.00    -0.084 Cl
ENDBRANCH  11  13
BRANCH   4  24
ATOM     24  O   UNL     1      -1.335  -2.587  -2.260  0.00  0.00    -0.506 OA
ATOM     25  H   UNL     1      -0.541  -2.804  -2.767  0.00  0.00    +0.292 HD
ENDBRANCH   4  24
BRANCH   5  26
ATOM     26  C   UNL     1      -0.954  -4.191   0.022  0.00  0.00    -0.035 C 
BRANCH  26  27
ATOM     27  N   UNL     1       0.384  -4.730  -0.256  0.00  0.00    +0.384 N 
ATOM     28  C   UNL     1       1.281  -4.406   0.860  0.00  0.00    -0.078 C 
ATOM     29  C   UNL     1       2.696  -4.894   0.540  0.00  0.00    -0.019 C 
ATOM     30  C   UNL     1       2.670  -6.411   0.327  0.00  0.00    -0.003 C 
ATOM     31  C   UNL     1       1.675  -6.743  -0.788  0.00  0.00    -0.016 C 
ATOM     32  C   UNL     1       0.299  -6.186  -0.419  0.00  0.00    -0.071 C 
ATOM     33  C   UNL     1      -0.699  -6.517  -1.531  0.00  0.00    -0.013 C 
ATOM     34  H   UNL     1       0.742  -4.318  -1.104  0.00  0.00    -0.081 HD
ENDBRANCH  26  27
ENDBRANCH   5  26
TORSDOF 4
