REMARK  Name = ZINC40172174
REMARK  11 active torsions:
REMARK  status: ('A' for Active; 'I' for Inactive)
REMARK    1  A    between atoms: C_1  and  C_2
REMARK    2  A    between atoms: C_3  and  C_25
REMARK    3  A    between atoms: C_5  and  N_11
REMARK    4  A    between atoms: C_6  and  C_7
REMARK    5  A    between atoms: C_7  and  O_9
REMARK    6  A    between atoms: O_9  and  C_10
REMARK    7  A    between atoms: C_12  and  C_14
REMARK    8  A    between atoms: C_14  and  C_16
REMARK    9  A    between atoms: C_14  and  N_17
REMARK   10  A    between atoms: C_21  and  S_22
REMARK   11  A    between atoms: S_22  and  C_23
REMARK                            x       y       z     vdW  Elec       q    Type
REMARK                         _______ _______ _______ _____ _____    ______ ____
ROOT
ATOM      1  N   UNL     1       0.055  -3.118   2.081  0.00  0.00    -0.278 N 
ATOM      2  C   UNL     1       0.072  -4.427   1.760  0.00  0.00    +0.240 C 
ATOM      3  O   UNL     1       0.072  -4.765   0.595  0.00  0.00    -0.273 OA
ATOM      4  H   UNL     1       0.055  -2.848   3.013  0.00  0.00    +0.155 HD
ENDROOT
BRANCH   1   9
ATOM      5  C   UNL     1      -0.018   1.503   0.010  0.00  0.00    +0.045 C 
ATOM      6  C   UNL     1       0.002  -0.004   0.002  0.00  0.00    -0.025 A 
ATOM      7  C   UNL     1       0.007  -0.712  -1.142  0.00  0.00    -0.008 A 
ATOM      8  S   UNL     1       0.033  -2.400  -0.580  0.00  0.00    -0.078 S 
ATOM      9  C   UNL     1       0.037  -2.159   1.081  0.00  0.00    +0.086 A 
ATOM     10  C   UNL     1       0.024  -0.778   1.223  0.00  0.00    +0.091 A 
ATOM     11  C   UNL     1      -0.007  -0.199  -2.559  0.00  0.00    +0.052 C 
BRANCH  10  12
ATOM     12  C   UNL     1       0.028  -0.139   2.540  0.00  0.00    +0.342 C 
ATOM     13  O   UNL     1      -1.024   0.112   3.097  0.00  0.00    -0.245 OA
BRANCH  12  14
ATOM     14  O   UNL     1       1.198   0.171   3.136  0.00  0.00    -0.464 OA
ATOM     15  C   UNL     1       1.127   0.793   4.420  0.00  0.00    +0.280 C 
ENDBRANCH  12  14
ENDBRANCH  10  12
ENDBRANCH   1   9
BRANCH   2  16
ATOM     16  C   UNL     1       0.092  -5.470   2.847  0.00  0.00    +0.175 C 
ATOM     17  C   UNL     1      -1.156  -5.320   3.720  0.00  0.00    +0.041 C 
BRANCH  16  18
ATOM     18  N   UNL     1       0.108  -6.805   2.244  0.00  0.00    -0.279 N 
ATOM     19  C   UNL     1      -0.842  -7.320   1.409  0.00  0.00    +0.216 A 
ATOM     20  N   UNL     1      -0.477  -8.534   1.079  0.00  0.00    -0.113 NA
ATOM     21  N   UNL     1       0.740  -8.809   1.717  0.00  0.00    -0.121 NA
ATOM     22  C   UNL     1       1.080  -7.751   2.412  0.00  0.00    +0.193 A 
ATOM     23  N   UNL     1      -1.994  -6.671   0.984  0.00  0.00    -0.328 N 
ATOM     24  H   UNL     1      -2.180  -5.767   1.284  0.00  0.00    +0.145 HD
ATOM     25  H   UNL     1      -2.613  -7.121   0.388  0.00  0.00    +0.145 HD
BRANCH  22  26
ATOM     26  S   UNL     1       2.533  -7.580   3.394  0.00  0.00    -0.089 S 
ATOM     27  C   UNL     1       3.388  -9.168   3.194  0.00  0.00    +0.093 C 
ENDBRANCH  22  26
ENDBRANCH  16  18
ENDBRANCH   2  16
TORSDOF 6
