REMARK  Name = ZINC49650988
REMARK  11 active torsions:
REMARK  status: ('A' for Active; 'I' for Inactive)
REMARK    1  A    between atoms: C_1  and  C_2
REMARK    2  A    between atoms: C_2  and  C_3
REMARK    3  A    between atoms: C_3  and  O_4
REMARK    4  A    between atoms: O_4  and  C_5
REMARK    5  A    between atoms: C_6  and  O_28
REMARK    6  A    between atoms: C_8  and  C_12
REMARK    7  A    between atoms: C_12  and  N_14
REMARK    8  A    between atoms: C_17  and  C_20
REMARK    9  A    between atoms: C_20  and  N_21
REMARK   10  A    between atoms: C_24  and  C_27
REMARK   11  A    between atoms: O_28  and  C_29
REMARK                            x       y       z     vdW  Elec       q    Type
REMARK                         _______ _______ _______ _____ _____    ______ ____
ROOT
ATOM      1  N   UNL     1       2.211  -4.772   6.691  0.00  0.00    -0.152 NA
ATOM      2  C   UNL     1       2.913  -5.391   7.639  0.00  0.00    +0.163 A 
ATOM      3  N   UNL     1       2.498  -5.793   8.872  0.00  0.00    -0.341 N 
ATOM      4  C   UNL     1       3.388  -6.415   9.692  0.00  0.00    +0.008 A 
ATOM      5  C   UNL     1       4.629  -6.594   9.228  0.00  0.00    +0.067 A 
ATOM      6  S   UNL     1       4.524  -5.872   7.601  0.00  0.00    -0.061 S 
ATOM      7  H   UNL     1       1.585  -5.638   9.161  0.00  0.00    +0.167 HD
ENDROOT
BRANCH   1   8
ATOM      8  C   UNL     1       2.791  -4.458   5.530  0.00  0.00    +0.270 C 
ATOM      9  O   UNL     1       3.962  -4.738   5.337  0.00  0.00    -0.268 OA
BRANCH   8  13
ATOM     10  C   UNL     1       0.545  -2.483   2.504  0.00  0.00    +0.176 A 
ATOM     11  C   UNL     1       1.884  -2.800   2.280  0.00  0.00    +0.163 A 
ATOM     12  C   UNL     1       2.615  -3.442   3.261  0.00  0.00    +0.062 A 
ATOM     13  C   UNL     1       2.011  -3.771   4.476  0.00  0.00    +0.044 A 
ATOM     14  C   UNL     1       0.671  -3.451   4.695  0.00  0.00    +0.032 A 
ATOM     15  C   UNL     1      -0.054  -2.805   3.715  0.00  0.00    +0.064 A 
ATOM     16 BR   UNL     1      -1.868  -2.366   4.016  0.00  0.00    -0.046 Br
BRANCH  11  17
ATOM     17  O   UNL     1       2.470  -2.479   1.096  0.00  0.00    -0.491 OA
ATOM     18  C   UNL     1       3.845  -2.834   0.935  0.00  0.00    +0.277 C 
ENDBRANCH  11  17
BRANCH  10  19
ATOM     19  O   UNL     1      -0.173  -1.853   1.539  0.00  0.00    -0.487 OA
BRANCH  19  20
ATOM     20  C   UNL     1      -0.164  -0.424   1.552  0.00  0.00    +0.229 C 
BRANCH  20  22
ATOM     21  C   UNL     1      -1.011   1.633   0.414  0.00  0.00    +0.007 C 
ATOM     22  C   UNL     1      -1.021   0.103   0.400  0.00  0.00    +0.038 C 
ENDBRANCH  20  22
ENDBRANCH  19  20
ENDBRANCH  10  19
ENDBRANCH   8  13
ENDBRANCH   1   8
BRANCH   4  23
ATOM     23  C   UNL     1       2.990  -6.882  11.069  0.00  0.00    -0.024 C 
BRANCH  23  24
ATOM     24  N   UNL     1       2.661  -5.720  11.904  0.00  0.00    +0.383 N 
ATOM     25  C   UNL     1       2.134  -6.181  13.195  0.00  0.00    -0.078 C 
ATOM     26  C   UNL     1       1.714  -4.976  14.038  0.00  0.00    -0.016 C 
ATOM     27  C   UNL     1       2.929  -4.075  14.274  0.00  0.00    -0.018 C 
ATOM     28  C   UNL     1       3.515  -3.660  12.921  0.00  0.00    -0.016 C 
ATOM     29  C   UNL     1       3.869  -4.915  12.118  0.00  0.00    -0.078 C 
ATOM     30  C   UNL     1       2.500  -2.828  15.049  0.00  0.00    +0.007 C 
ATOM     31  H   UNL     1       1.962  -5.160  11.439  0.00  0.00    -0.081 HD
ENDBRANCH  23  24
ENDBRANCH   4  23
TORSDOF 8
