REMARK  Name = ZINC12522743
REMARK  13 active torsions:
REMARK  status: ('A' for Active; 'I' for Inactive)
REMARK    1  A    between atoms: C_1  and  C_2
REMARK    2  A    between atoms: C_2  and  C_3
REMARK    3  A    between atoms: C_2  and  C_4
REMARK    4  A    between atoms: C_4  and  N_5
REMARK    5  A    between atoms: N_5  and  C_6
REMARK    6  A    between atoms: C_7  and  N_22
REMARK    7  A    between atoms: N_8  and  C_15
REMARK    8  A    between atoms: C_15  and  C_16
REMARK    9  A    between atoms: C_23  and  C_25
REMARK   10  A    between atoms: C_25  and  O_26
REMARK   11  A    between atoms: O_26  and  C_27
REMARK   12  A    between atoms: C_27  and  C_29
REMARK   13  A    between atoms: C_30  and  C_31
REMARK                            x       y       z     vdW  Elec       q    Type
REMARK                         _______ _______ _______ _____ _____    ______ ____
ROOT
ATOM      1  N   UNL     1      -3.071  13.805   0.258  0.00  0.00    -0.261 N 
ATOM      2  C   UNL     1      -3.270  12.493   0.502  0.00  0.00    +0.258 C 
ATOM      3  O   UNL     1      -4.343  12.110   0.920  0.00  0.00    -0.272 OA
ENDROOT
BRANCH   1   4
ATOM      4  C   UNL     1      -4.138  14.718   0.393  0.00  0.00    +0.140 A 
ATOM      5  C   UNL     1      -5.271  14.593  -0.384  0.00  0.00    +0.128 A 
ATOM      6  N   UNL     1      -6.297  15.495  -0.226  0.00  0.00    -0.276 N 
ATOM      7  C   UNL     1      -6.193  16.494   0.669  0.00  0.00    +0.331 A 
ATOM      8  O   UNL     1      -7.110  17.284   0.791  0.00  0.00    -0.246 OA
ATOM      9  N   UNL     1      -5.095  16.635   1.432  0.00  0.00    -0.273 N 
ATOM     10  H   UNL     1      -5.042  17.386   2.089  0.00  0.00    +0.173 HD
ATOM     11  C   UNL     1      -4.063  15.775   1.319  0.00  0.00    +0.277 A 
ATOM     12  O   UNL     1      -3.072  15.911   2.016  0.00  0.00    -0.266 OA
BRANCH   5  13
ATOM     13  N   UNL     1      -5.375  13.576  -1.303  0.00  0.00    -0.343 N 
ATOM     14  H   UNL     1      -4.620  12.989  -1.464  0.00  0.00    +0.144 HD
ATOM     15  H   UNL     1      -6.204  13.445  -1.790  0.00  0.00    +0.144 HD
ENDBRANCH   5  13
BRANCH   6  16
ATOM     16  C   UNL     1      -7.508  15.371  -1.041  0.00  0.00    +0.163 C 
BRANCH  16  17
ATOM     17  C   UNL     1      -7.339  16.158  -2.315  0.00  0.00    -0.028 A 
ATOM     18  C   UNL     1      -7.727  17.484  -2.365  0.00  0.00    +0.005 A 
ATOM     19  C   UNL     1      -7.567  18.207  -3.532  0.00  0.00    +0.000 A 
ATOM     20  C   UNL     1      -7.030  17.602  -4.652  0.00  0.00    +0.000 A 
ATOM     21  C   UNL     1      -6.647  16.274  -4.604  0.00  0.00    +0.000 A 
ATOM     22  C   UNL     1      -6.802  15.553  -3.435  0.00  0.00    +0.005 A 
ENDBRANCH  16  17
ENDBRANCH   6  16
ENDBRANCH   1   4
BRANCH   1  23
ATOM     23  C   UNL     1      -1.746  14.282  -0.147  0.00  0.00    +0.117 C 
BRANCH  23  25
ATOM     24  C   UNL     1      -2.573  15.089  -2.362  0.00  0.00    +0.009 C 
ATOM     25  C   UNL     1      -1.595  14.142  -1.663  0.00  0.00    +0.001 C 
ATOM     26  C   UNL     1      -0.163  14.497  -2.068  0.00  0.00    +0.009 C 
ENDBRANCH  23  25
ENDBRANCH   1  23
BRANCH   2  27
ATOM     27  C   UNL     1      -2.160  11.503   0.255  0.00  0.00    +0.328 C 
BRANCH  27  28
ATOM     28  O   UNL     1      -2.620  10.168   0.591  0.00  0.00    -0.452 OA
BRANCH  28  29
ATOM     29  C   UNL     1      -1.740   9.158   0.426  0.00  0.00    +0.332 C 
ATOM     30  O   UNL     1      -0.621   9.389   0.012  0.00  0.00    -0.246 OA
BRANCH  29  31
ATOM     31  C   UNL     1      -2.135   7.783   0.745  0.00  0.00    +0.093 C 
ATOM     32  C   UNL     1      -1.257   6.775   0.580  0.00  0.00    +0.035 C 
BRANCH  32  33
ATOM     33  C   UNL     1      -1.653   5.392   0.900  0.00  0.00    +0.065 A 
ATOM     34  C   UNL     1      -0.724   4.351   0.723  0.00  0.00    +0.028 A 
ATOM     35  C   UNL     1      -1.079   3.068   1.016  0.00  0.00    +0.012 A 
ATOM     36  C   UNL     1      -2.383   2.829   1.493  0.00  0.00    +0.000 A 
ATOM     37  C   UNL     1      -2.814   1.532   1.814  0.00  0.00    +0.010 A 
ATOM     38  C   UNL     1      -4.082   1.337   2.272  0.00  0.00    +0.001 A 
ATOM     39  C   UNL     1      -4.961   2.409   2.424  0.00  0.00    +0.002 A 
ATOM     40  C   UNL     1      -4.576   3.680   2.129  0.00  0.00    +0.028 A 
ATOM     41  C   UNL     1      -3.274   3.922   1.652  0.00  0.00    +0.072 A 
ATOM     42  N   UNL     1      -2.874   5.157   1.349  0.00  0.00    -0.247 NA
ENDBRANCH  32  33
ENDBRANCH  29  31
ENDBRANCH  28  29
ENDBRANCH  27  28
ENDBRANCH   2  27
TORSDOF 11
