REMARK  Name = ZINC26726617
REMARK  3 active torsions:
REMARK  status: ('A' for Active; 'I' for Inactive)
REMARK    1  A    between atoms: N_10  and  C_11
REMARK    2  A    between atoms: C_11  and  C_12
REMARK    3  A    between atoms: C_12  and  C_13
REMARK                            x       y       z     vdW  Elec       q    Type
REMARK                         _______ _______ _______ _____ _____    ______ ____
ROOT
ATOM      1  C   UNL     1      -1.146   1.298   0.315  0.00  0.00    +0.044 A 
ATOM      2  C   UNL     1      -1.475   2.640   0.364  0.00  0.00    +0.126 A 
ATOM      3  C   UNL     1      -0.476   3.597   0.308  0.00  0.00    +0.078 A 
ATOM      4  C   UNL     1       0.843   3.209   0.197  0.00  0.00    +0.147 A 
ATOM      5  C   UNL     1       1.180   1.854   0.139  0.00  0.00    +0.069 A 
ATOM      6  C   UNL     1       0.178   0.902   0.200  0.00  0.00    -0.021 A 
ATOM      7  C   UNL     1       0.475  -0.575   0.150  0.00  0.00    +0.039 C 
ATOM      8  C   UNL     1       1.904  -0.797  -0.352  0.00  0.00    +0.024 C 
ATOM      9  C   UNL     1       2.829   0.150   0.421  0.00  0.00    +0.105 C 
ATOM     10  N   UNL     1       2.533   1.526   0.018  0.00  0.00    -0.327 N 
ATOM     11  F   UNL     1       1.816   4.145   0.142  0.00  0.00    -0.203 F 
ATOM     12  F   UNL     1      -2.768   3.016   0.471  0.00  0.00    -0.205 F 
ENDROOT
BRANCH  10  13
ATOM     13  C   UNL     1       3.373   2.482   0.751  0.00  0.00    +0.114 C 
BRANCH  13  14
ATOM     14  C   UNL     1       2.928   2.537   2.214  0.00  0.00    +0.115 C 
BRANCH  14  15
ATOM     15  C   UNL     1       3.837   3.460   2.982  0.00  0.00    +0.222 C 
ATOM     16  O   UNL     1       4.752   4.019   2.416  0.00  0.00    -0.275 OA
ATOM     17  N   UNL     1       3.634   3.664   4.299  0.00  0.00    -0.240 N 
ATOM     18  C   UNL     1       4.448   4.490   4.986  0.00  0.00    +0.303 C 
ATOM     19  O   UNL     1       5.365   5.051   4.419  0.00  0.00    -0.253 OA
ATOM     20  N   UNL     1       4.245   4.694   6.303  0.00  0.00    -0.313 N 
ATOM     21  H   UNL     1       2.804   3.157   4.812  0.00  0.00    +0.159 HD
ATOM     22  H   UNL     1       4.909   5.368   6.864  0.00  0.00    +0.146 HD
ATOM     23  H   UNL     1       3.415   4.186   6.816  0.00  0.00    +0.146 HD
ENDBRANCH  14  15
ENDBRANCH  13  14
ENDBRANCH  10  13
TORSDOF 3
