REMARK  Name = ZINC18707267
REMARK  5 active torsions:
REMARK  status: ('A' for Active; 'I' for Inactive)
REMARK    1  A    between atoms: C_3  and  N_23
REMARK    2  A    between atoms: C_4  and  N_20
REMARK    3  A    between atoms: C_6  and  N_7
REMARK    4  A    between atoms: N_7  and  S_8
REMARK    5  A    between atoms: S_8  and  C_11
REMARK                            x       y       z     vdW  Elec       q    Type
REMARK                         _______ _______ _______ _____ _____    ______ ____
ROOT
ATOM      1  N   UNL     1      -1.339  -0.859   0.164  0.00  0.00    -0.216 N 
ATOM      2  H   UNL     1      -1.026  -0.014  -0.197  0.00  0.00    +0.174 HD
ENDROOT
BRANCH   1   8
ATOM      3  C   UNL     1      -2.804  -1.590   1.939  0.00  0.00    +0.026 A 
ATOM      4  C   UNL     1      -3.091  -1.702   3.285  0.00  0.00    +0.027 A 
ATOM      5  C   UNL     1      -2.206  -1.196   4.228  0.00  0.00    +0.055 A 
ATOM      6  C   UNL     1      -1.032  -0.578   3.818  0.00  0.00    +0.148 A 
ATOM      7  C   UNL     1      -0.745  -0.466   2.472  0.00  0.00    +0.059 A 
ATOM      8  C   UNL     1      -1.630  -0.972   1.528  0.00  0.00    +0.050 A 
BRANCH   6   9
ATOM      9  N   UNL     1      -0.089  -0.039   4.823  0.00  0.00    +0.058 N 
ATOM     10  O   UNL     1       0.882   0.602   4.464  0.00  0.00    -0.126 OA
ATOM     11  O   UNL     1      -0.284  -0.238   6.009  0.00  0.00    -0.126 OA
ENDBRANCH   6   9
BRANCH   5  12
ATOM     12  N   UNL     1      -2.497  -1.310   5.593  0.00  0.00    -0.356 N 
ATOM     13  H   UNL     1      -3.082  -2.017   5.907  0.00  0.00    +0.142 HD
ATOM     14  H   UNL     1      -2.114  -0.681   6.224  0.00  0.00    +0.142 HD
ENDBRANCH   5  12
ENDBRANCH   1   8
BRANCH   1  15
ATOM     15  S   UNL     1      -1.528  -2.166  -0.835  0.00  0.00    +0.072 S 
ATOM     16  O   UNL     1      -2.849  -2.647  -0.627  0.00  0.00    -0.150 OA
ATOM     17  O   UNL     1      -1.053  -1.772  -2.115  0.00  0.00    -0.150 OA
BRANCH  15  18
ATOM     18  C   UNL     1      -0.437  -3.424  -0.258  0.00  0.00    +0.109 A 
ATOM     19  C   UNL     1      -0.902  -4.402   0.602  0.00  0.00    +0.029 A 
ATOM     20  C   UNL     1      -0.045  -5.387   1.052  0.00  0.00    +0.006 A 
ATOM     21  C   UNL     1       1.278  -5.400   0.645  0.00  0.00    -0.044 A 
ATOM     22  C   UNL     1       1.743  -4.422  -0.215  0.00  0.00    -0.042 A 
ATOM     23  C   UNL     1       0.881  -3.438  -0.670  0.00  0.00    +0.032 A 
ATOM     24  C   UNL     1       3.210  -4.653  -0.508  0.00  0.00    +0.036 C 
ATOM     25  C   UNL     1       3.480  -6.114  -0.089  0.00  0.00    +0.009 C 
ATOM     26  C   UNL     1       2.402  -6.354   0.988  0.00  0.00    +0.036 C 
ENDBRANCH  15  18
ENDBRANCH   1  15
TORSDOF 5
