REMARK  Name = ZINC22108004
REMARK  10 active torsions:
REMARK  status: ('A' for Active; 'I' for Inactive)
REMARK    1  A    between atoms: C_4  and  N_7
REMARK    2  A    between atoms: C_8  and  S_12
REMARK    3  A    between atoms: S_12  and  C_13
REMARK    4  A    between atoms: C_13  and  C_14
REMARK    5  A    between atoms: C_14  and  N_15
REMARK    6  A    between atoms: N_15  and  C_16
REMARK    7  A    between atoms: C_16  and  C_17
REMARK    8  A    between atoms: C_26  and  O_27
REMARK    9  A    between atoms: O_27  and  C_28
REMARK   10  A    between atoms: C_28  and  C_29
REMARK                            x       y       z     vdW  Elec       q    Type
REMARK                         _______ _______ _______ _____ _____    ______ ____
ROOT
ATOM      1  C   UNL     1      -0.112   5.253   0.031  0.00  0.00    -0.015 A 
ATOM      2  C   UNL     1      -0.095   3.849   0.024  0.00  0.00    -0.013 A 
ATOM      3  C   UNL     1      -1.288   3.105   0.031  0.00  0.00    +0.009 A 
ATOM      4  C   UNL     1      -1.235   1.746   0.018  0.00  0.00    +0.001 A 
ATOM      5  C   UNL     1      -0.013   1.076   0.008  0.00  0.00    +0.001 A 
ATOM      6  C   UNL     1       1.163   1.762   0.000  0.00  0.00    +0.008 A 
ATOM      7  C   UNL     1       1.148   3.167   0.008  0.00  0.00    -0.017 A 
ATOM      8  C   UNL     1       2.342   3.909   0.000  0.00  0.00    +0.012 A 
ATOM      9  C   UNL     1       2.292   5.268   0.007  0.00  0.00    +0.046 A 
ATOM     10  C   UNL     1       1.067   5.942   0.023  0.00  0.00    +0.123 A 
ENDROOT
BRANCH   1  11
ATOM     11  C   UNL     1      -1.423   5.995   0.048  0.00  0.00    -0.042 C 
BRANCH  11  12
ATOM     12  N   UNL     1      -1.835   6.229   1.438  0.00  0.00    +0.382 N 
ATOM     13  H   UNL     1      -1.057   6.821   1.942  0.00  0.00    -0.085 HD
ATOM     14  H   UNL     1      -1.941   5.258   1.943  0.00  0.00    -0.085 HD
BRANCH  12  15
ATOM     15  C   UNL     1      -3.113   6.952   1.494  0.00  0.00    -0.071 C 
BRANCH  15  16
ATOM     16  C   UNL     1      -3.508   7.177   2.955  0.00  0.00    +0.058 C 
BRANCH  16  17
ATOM     17  S   UNL     1      -5.082   8.068   3.023  0.00  0.00    -0.086 S 
BRANCH  17  19
ATOM     18  N   UNL     1      -6.324   8.779   5.420  0.00  0.00    -0.187 N 
ATOM     19  C   UNL     1      -5.290   8.187   4.769  0.00  0.00    +0.214 A 
ATOM     20  N   UNL     1      -4.471   7.724   5.688  0.00  0.00    -0.101 NA
ATOM     21  N   UNL     1      -4.921   7.981   6.863  0.00  0.00    -0.022 NA
ATOM     22  N   UNL     1      -6.040   8.615   6.787  0.00  0.00    -0.038 NA
BRANCH  18  26
ATOM     23  C   UNL     1      -9.630  10.673   3.728  0.00  0.00    +0.000 A 
ATOM     24  C   UNL     1      -9.770   9.960   4.905  0.00  0.00    +0.002 A 
ATOM     25  C   UNL     1      -8.677   9.332   5.468  0.00  0.00    +0.028 A 
ATOM     26  C   UNL     1      -7.436   9.416   4.851  0.00  0.00    +0.070 A 
ATOM     27  C   UNL     1      -7.297  10.136   3.672  0.00  0.00    +0.028 A 
ATOM     28  C   UNL     1      -8.396  10.758   3.111  0.00  0.00    +0.002 A 
ENDBRANCH  18  26
ENDBRANCH  17  19
ENDBRANCH  16  17
ENDBRANCH  15  16
ENDBRANCH  12  15
ENDBRANCH  11  12
ENDBRANCH   1  11
BRANCH  10  29
ATOM     29  O   UNL     1       1.050   7.301   0.029  0.00  0.00    -0.487 OA
BRANCH  29  30
ATOM     30  C   UNL     1       2.315   7.966   0.020  0.00  0.00    +0.267 C 
BRANCH  30  31
ATOM     31  C   UNL     1       2.098   9.457   0.029  0.00  0.00    +0.025 A 
ATOM     32  C   UNL     1       0.814   9.969   0.038  0.00  0.00    +0.010 A 
ATOM     33  C   UNL     1       0.616  11.337   0.052  0.00  0.00    +0.001 A 
ATOM     34  C   UNL     1       1.700  12.195   0.046  0.00  0.00    +0.003 A 
ATOM     35  C   UNL     1       2.984  11.685   0.031  0.00  0.00    +0.039 A 
ATOM     36  C   UNL     1       3.185  10.315   0.023  0.00  0.00    +0.130 A 
ATOM     37  F   UNL     1       4.440   9.815   0.008  0.00  0.00    -0.205 F 
ENDBRANCH  30  31
ENDBRANCH  29  30
ENDBRANCH  10  29
TORSDOF 10
