REMARK  Name = ZINC34678715
REMARK  4 active torsions:
REMARK  status: ('A' for Active; 'I' for Inactive)
REMARK    1  A    between atoms: C_1  and  N_2
REMARK    2  A    between atoms: N_2  and  C_3
REMARK    3  A    between atoms: N_13  and  C_16
REMARK    4  A    between atoms: C_27  and  C_29
REMARK                            x       y       z     vdW  Elec       q    Type
REMARK                         _______ _______ _______ _____ _____    ______ ____
ROOT
ATOM      1  C   UNL     1       0.794   0.684   1.335  0.00  0.00    +0.130 C 
ATOM      2  N   UNL     1       0.177   0.231   0.086  0.00  0.00    -0.321 N 
ATOM      3  C   UNL     1       0.702   0.695  -1.201  0.00  0.00    +0.130 C 
ATOM      4  C   UNL     1      -0.902  -0.637   0.121  0.00  0.00    +0.131 A 
ATOM      5  C   UNL     1      -2.211  -0.141   0.070  0.00  0.00    +0.029 A 
ATOM      6  C   UNL     1      -3.255  -1.032   0.102  0.00  0.00    +0.028 A 
ATOM      7  N   UNL     1      -2.987  -2.334   0.194  0.00  0.00    -0.331 N 
ATOM      8  C   UNL     1      -1.741  -2.776   0.243  0.00  0.00    +0.198 A 
ATOM      9  N   UNL     1      -0.708  -1.948   0.199  0.00  0.00    -0.201 NA
ATOM     10  N   UNL     1      -1.512  -4.138   0.337  0.00  0.00    -0.298 N 
ATOM     11  C   UNL     1      -2.626  -5.092   0.244  0.00  0.00    +0.127 C 
ATOM     12  C   UNL     1      -2.319  -6.096  -0.874  0.00  0.00    +0.124 C 
ATOM     13  N   UNL     1      -0.957  -6.613  -0.680  0.00  0.00    -0.325 N 
ATOM     14  C   UNL     1       0.157  -5.659  -0.588  0.00  0.00    +0.124 C 
ATOM     15  C   UNL     1      -0.149  -4.655   0.525  0.00  0.00    +0.127 C 
ATOM     16  C   UNL     1      -4.696  -0.607   0.021  0.00  0.00    +0.072 C 
ATOM     17  C   UNL     1      -4.848   0.866   0.400  0.00  0.00    +0.114 C 
ATOM     18  N   UNL     1      -3.822   1.632  -0.327  0.00  0.00    -0.293 N 
ATOM     19  C   UNL     1      -2.417   1.348  -0.011  0.00  0.00    +0.148 C 
ATOM     20  C   UNL     1      -4.159   2.558  -1.246  0.00  0.00    +0.250 C 
ATOM     21  O   UNL     1      -5.323   2.699  -1.568  0.00  0.00    -0.270 OA
ATOM     22  H   UNL     1      -3.719  -2.969   0.226  0.00  0.00    +0.168 HD
ENDROOT
BRANCH  20  23
ATOM     23  C   UNL     1      -3.116   3.401  -1.862  0.00  0.00    +0.072 A 
ATOM     24  C   UNL     1      -2.222   4.111  -1.056  0.00  0.00    +0.019 A 
ATOM     25  C   UNL     1      -1.250   4.896  -1.636  0.00  0.00    +0.039 A 
ATOM     26  C   UNL     1      -1.157   4.985  -3.018  0.00  0.00    +0.126 A 
ATOM     27  C   UNL     1      -2.039   4.285  -3.823  0.00  0.00    +0.077 A 
ATOM     28  C   UNL     1      -3.015   3.489  -3.254  0.00  0.00    +0.138 A 
ATOM     29  F   UNL     1      -3.872   2.801  -4.040  0.00  0.00    -0.205 F 
ATOM     30  F   UNL     1      -0.202   5.758  -3.579  0.00  0.00    -0.205 F 
ENDBRANCH  20  23
BRANCH  13  31
ATOM     31  C   UNL     1      -0.725  -7.989  -0.586  0.00  0.00    +0.065 A 
ATOM     32  C   UNL     1      -0.456  -8.729  -1.729  0.00  0.00    +0.026 A 
ATOM     33  C   UNL     1      -0.227 -10.088  -1.632  0.00  0.00    +0.002 A 
ATOM     34  C   UNL     1      -0.265 -10.712  -0.398  0.00  0.00    +0.003 A 
ATOM     35  C   UNL     1      -0.533  -9.979   0.743  0.00  0.00    +0.040 A 
ATOM     36  C   UNL     1      -0.757  -8.617   0.655  0.00  0.00    +0.144 A 
ATOM     37  F   UNL     1      -1.013  -7.900   1.770  0.00  0.00    -0.204 F 
ENDBRANCH  13  31
TORSDOF 2
