REMARK  Name = ZINC15221980
REMARK  8 active torsions:
REMARK  status: ('A' for Active; 'I' for Inactive)
REMARK    1  A    between atoms: C_1  and  C_2
REMARK    2  A    between atoms: C_2  and  C_3
REMARK    3  A    between atoms: C_3  and  O_4
REMARK    4  A    between atoms: O_4  and  C_5
REMARK    5  A    between atoms: C_10  and  N_11
REMARK    6  A    between atoms: C_20  and  C_34
REMARK    7  A    between atoms: C_34  and  C_36
REMARK    8  A    between atoms: C_34  and  O_37
REMARK                            x       y       z     vdW  Elec       q    Type
REMARK                         _______ _______ _______ _____ _____    ______ ____
ROOT
ATOM      1  N   UNL     1      -1.615  -4.925  -0.094  0.00  0.00    -0.206 N 
ATOM      2  C   UNL     1      -0.984  -5.308   1.054  0.00  0.00    +0.231 C 
ATOM      3  O   UNL     1      -1.216  -4.920   2.179  0.00  0.00    -0.274 OA
ATOM      4  C   UNL     1       0.072  -6.325   0.632  0.00  0.00    +0.101 C 
ATOM      5  C   UNL     1       0.381  -5.626  -0.719  0.00  0.00    +0.106 C 
ATOM      6  C   UNL     1      -0.937  -5.285  -1.239  0.00  0.00    +0.231 C 
ATOM      7  O   UNL     1      -1.335  -5.310  -2.384  0.00  0.00    -0.274 OA
ATOM      8  C   UNL     1       1.707  -5.960  -1.330  0.00  0.00    +0.059 C 
ATOM      9  C   UNL     1       2.510  -4.945  -0.464  0.00  0.00    -0.030 A 
ATOM     10  C   UNL     1       3.394  -4.048  -0.973  0.00  0.00    +0.005 A 
ATOM     11  C   UNL     1       3.987  -3.142  -0.099  0.00  0.00    +0.000 A 
ATOM     12  C   UNL     1       3.661  -3.167   1.244  0.00  0.00    +0.000 A 
ATOM     13  C   UNL     1       2.777  -4.108   1.749  0.00  0.00    +0.004 A 
ATOM     14  C   UNL     1       2.223  -5.030   0.891  0.00  0.00    -0.035 A 
ATOM     15  C   UNL     1       1.413  -6.220   1.417  0.00  0.00    +0.062 C 
ATOM     16  C   UNL     1       2.132  -7.384   0.700  0.00  0.00    -0.035 A 
ATOM     17  C   UNL     1       2.216  -7.268  -0.694  0.00  0.00    -0.030 A 
ATOM     18  C   UNL     1       2.755  -8.281  -1.445  0.00  0.00    +0.005 A 
ATOM     19  C   UNL     1       3.243  -9.407  -0.796  0.00  0.00    +0.000 A 
ATOM     20  C   UNL     1       3.191  -9.505   0.582  0.00  0.00    +0.000 A 
ATOM     21  C   UNL     1       2.624  -8.477   1.351  0.00  0.00    +0.004 A 
ENDROOT
BRANCH   1  27
ATOM     22  C   UNL     1      -2.854  -2.843  -0.095  0.00  0.00    +0.142 A 
ATOM     23  C   UNL     1      -4.064  -2.167  -0.114  0.00  0.00    +0.047 A 
ATOM     24  C   UNL     1      -5.251  -2.876  -0.141  0.00  0.00    +0.004 A 
ATOM     25  C   UNL     1      -5.235  -4.258  -0.148  0.00  0.00    +0.002 A 
ATOM     26  C   UNL     1      -4.033  -4.939  -0.129  0.00  0.00    +0.027 A 
ATOM     27  C   UNL     1      -2.838  -4.235  -0.108  0.00  0.00    +0.085 A 
BRANCH  22  28
ATOM     28  O   UNL     1      -1.686  -2.148  -0.069  0.00  0.00    -0.490 OA
BRANCH  28  29
ATOM     29  C   UNL     1      -1.780  -0.722  -0.057  0.00  0.00    +0.229 C 
BRANCH  29  31
ATOM     30  C   UNL     1      -0.474   1.408  -0.015  0.00  0.00    +0.007 C 
ATOM     31  C   UNL     1      -0.374  -0.118  -0.028  0.00  0.00    +0.038 C 
ENDBRANCH  29  31
ENDBRANCH  28  29
ENDBRANCH  22  28
ENDBRANCH   1  27
BRANCH   8  32
ATOM     32  C   UNL     1       1.805  -5.861  -2.854  0.00  0.00    +0.127 C 
ATOM     33  C   UNL     1       1.434  -4.445  -3.298  0.00  0.00    +0.039 C 
BRANCH  32  34
ATOM     34  O   UNL     1       3.142  -6.155  -3.265  0.00  0.00    -0.391 OA
ATOM     35  H   UNL     1       3.807  -5.557  -2.897  0.00  0.00    +0.210 HD
ENDBRANCH  32  34
ENDBRANCH   8  32
TORSDOF 6
