REMARK  Name = ZINC36066387
REMARK  14 active torsions:
REMARK  status: ('A' for Active; 'I' for Inactive)
REMARK    1  A    between atoms: C_1  and  C_2
REMARK    2  A    between atoms: C_2  and  C_3
REMARK    3  A    between atoms: C_2  and  C_4
REMARK    4  A    between atoms: C_7  and  N_10
REMARK    5  A    between atoms: C_11  and  C_13
REMARK    6  A    between atoms: N_24  and  C_36
REMARK    7  A    between atoms: C_25  and  C_27
REMARK    8  A    between atoms: N_29  and  C_30
REMARK    9  A    between atoms: C_36  and  C_37
REMARK   10  A    between atoms: C_37  and  C_38
REMARK   11  A    between atoms: C_38  and  O_39
REMARK   12  A    between atoms: O_39  and  C_40
REMARK   13  A    between atoms: C_40  and  C_41
REMARK   14  A    between atoms: C_40  and  C_42
REMARK                            x       y       z     vdW  Elec       q    Type
REMARK                         _______ _______ _______ _____ _____    ______ ____
ROOT
ATOM      1  C   UNL     1      -7.236  -3.087  -1.052  0.00  0.00    +0.123 C 
ATOM      2  C   UNL     1      -8.182  -1.845  -1.109  0.00  0.00    +0.155 C 
ATOM      3  C   UNL     1      -7.703  -0.974  -2.276  0.00  0.00    +0.004 C 
ATOM      4  C   UNL     1      -8.049  -1.600  -3.408  0.00  0.00    +0.009 C 
ATOM      5  C   UNL     1      -8.693  -2.854  -2.935  0.00  0.00    +0.127 C 
ATOM      6  C   UNL     1      -7.565  -3.797  -2.377  0.00  0.00    +0.128 C 
ATOM      7  C   UNL     1      -8.298  -5.101  -2.231  0.00  0.00    +0.223 C 
ATOM      8  O   UNL     1      -7.999  -5.993  -1.465  0.00  0.00    -0.275 OA
ATOM      9  N   UNL     1      -9.348  -5.123  -3.090  0.00  0.00    -0.286 N 
ATOM     10  C   UNL     1      -9.468  -3.794  -3.804  0.00  0.00    +0.198 C 
ATOM     11  O   UNL     1      -9.382  -2.467  -1.696  0.00  0.00    -0.358 OA
ENDROOT
BRANCH   1  13
ATOM     12  N   UNL     1      -5.320  -1.968   0.042  0.00  0.00    -0.285 N 
ATOM     13  C   UNL     1      -5.790  -2.663  -1.013  0.00  0.00    +0.224 C 
ATOM     14  O   UNL     1      -5.050  -2.946  -1.931  0.00  0.00    -0.275 OA
ATOM     15  H   UNL     1      -5.894  -1.799   0.806  0.00  0.00    +0.155 HD
BRANCH  12  19
ATOM     16  C   UNL     1      -1.405  -0.544   0.021  0.00  0.00    -0.045 A 
ATOM     17  C   UNL     1      -1.701  -1.757  -0.574  0.00  0.00    +0.006 A 
ATOM     18  C   UNL     1      -2.998  -2.232  -0.568  0.00  0.00    +0.023 A 
ATOM     19  C   UNL     1      -4.005  -1.490   0.035  0.00  0.00    +0.033 A 
ATOM     20  C   UNL     1      -3.704  -0.272   0.632  0.00  0.00    +0.023 A 
ATOM     21  C   UNL     1      -2.404   0.195   0.627  0.00  0.00    +0.006 A 
BRANCH  16  23
ATOM     22  C   UNL     1       0.922  -1.030   0.727  0.00  0.00    +0.012 C 
ATOM     23  C   UNL     1       0.011  -0.029   0.013  0.00  0.00    +0.013 C 
ATOM     24  C   UNL     1       0.482   0.148  -1.432  0.00  0.00    +0.012 C 
ENDBRANCH  16  23
ENDBRANCH  12  19
ENDBRANCH   1  13
BRANCH  10  25
ATOM     25  C   UNL     1      -8.874  -3.844  -5.189  0.00  0.00    +0.237 C 
ATOM     26  O   UNL     1      -8.147  -4.763  -5.503  0.00  0.00    -0.274 OA
ATOM     27  N   UNL     1      -9.151  -2.869  -6.077  0.00  0.00    -0.311 N 
ATOM     28  H   UNL     1      -9.732  -2.134  -5.825  0.00  0.00    +0.149 HD
BRANCH  27  29
ATOM     29  C   UNL     1      -8.573  -2.918  -7.422  0.00  0.00    +0.073 C 
ATOM     30  C   UNL     1      -7.174  -2.299  -7.400  0.00  0.00    +0.022 C 
ATOM     31  C   UNL     1      -6.571  -2.350  -8.805  0.00  0.00    +0.002 C 
ATOM     32  C   UNL     1      -7.461  -1.565  -9.771  0.00  0.00    +0.000 C 
ATOM     33  C   UNL     1      -8.860  -2.184  -9.793  0.00  0.00    +0.002 C 
ATOM     34  C   UNL     1      -9.463  -2.133  -8.388  0.00  0.00    +0.022 C 
ENDBRANCH  27  29
ENDBRANCH  10  25
BRANCH   9  35
ATOM     35  C   UNL     1     -10.218  -6.281  -3.311  0.00  0.00    +0.111 C 
BRANCH  35  36
ATOM     36  C   UNL     1     -11.393  -6.231  -2.334  0.00  0.00    +0.047 C 
BRANCH  36  37
ATOM     37  C   UNL     1     -12.301  -7.441  -2.565  0.00  0.00    +0.161 C 
BRANCH  37  38
ATOM     38  O   UNL     1     -13.399  -7.394  -1.651  0.00  0.00    -0.377 OA
BRANCH  38  39
ATOM     39  C   UNL     1     -14.313  -8.485  -1.784  0.00  0.00    +0.112 C 
ATOM     40  C   UNL     1     -13.873  -9.632  -0.872  0.00  0.00    +0.037 C 
ATOM     41  C   UNL     1     -15.717  -8.025  -1.386  0.00  0.00    +0.037 C 
ENDBRANCH  38  39
ENDBRANCH  37  38
ENDBRANCH  36  37
ENDBRANCH  35  36
ENDBRANCH   9  35
TORSDOF 10
