REMARK  Name = ZINC36548718
REMARK  11 active torsions:
REMARK  status: ('A' for Active; 'I' for Inactive)
REMARK    1  A    between atoms: C_1  and  C_2
REMARK    2  A    between atoms: C_5  and  C_8
REMARK    3  A    between atoms: C_8  and  C_10
REMARK    4  A    between atoms: C_8  and  N_17
REMARK    5  A    between atoms: N_12  and  C_13
REMARK    6  A    between atoms: C_13  and  C_14
REMARK    7  A    between atoms: C_13  and  C_15
REMARK    8  A    between atoms: C_13  and  C_16
REMARK    9  A    between atoms: N_17  and  C_18
REMARK   10  A    between atoms: C_25  and  C_27
REMARK   11  A    between atoms: C_31  and  N_33
REMARK                            x       y       z     vdW  Elec       q    Type
REMARK                         _______ _______ _______ _____ _____    ______ ____
ROOT
ATOM      1  N   UNL     1       1.035  -4.852   1.062  0.00  0.00    -0.250 N 
ATOM      2  C   UNL     1       1.666  -6.010   0.781  0.00  0.00    +0.252 C 
ATOM      3  O   UNL     1       1.164  -6.804   0.010  0.00  0.00    -0.270 OA
ENDROOT
BRANCH   1   4
ATOM      4  C   UNL     1       1.568  -3.980   2.018  0.00  0.00    +0.056 A 
ATOM      5  C   UNL     1       2.135  -2.776   1.621  0.00  0.00    +0.025 A 
ATOM      6  C   UNL     1       2.659  -1.916   2.567  0.00  0.00    +0.002 A 
ATOM      7  C   UNL     1       2.620  -2.253   3.907  0.00  0.00    +0.002 A 
ATOM      8  C   UNL     1       2.057  -3.451   4.306  0.00  0.00    +0.022 A 
ATOM      9  C   UNL     1       1.525  -4.313   3.366  0.00  0.00    +0.062 A 
ATOM     10 CL   UNL     1       0.811  -5.814   3.868  0.00  0.00    -0.082 Cl
ENDBRANCH   1   4
BRANCH   2  11
ATOM     11  C   UNL     1       2.969  -6.313   1.410  0.00  0.00    +0.039 A 
ATOM     12  C   UNL     1       3.854  -5.280   1.724  0.00  0.00    +0.013 A 
ATOM     13  C   UNL     1       5.068  -5.570   2.311  0.00  0.00    +0.003 A 
ATOM     14  C   UNL     1       5.410  -6.882   2.588  0.00  0.00    +0.033 A 
ATOM     15  C   UNL     1       4.538  -7.911   2.279  0.00  0.00    +0.127 A 
ATOM     16  C   UNL     1       3.317  -7.634   1.698  0.00  0.00    +0.045 A 
BRANCH  15  17
ATOM     17  N   UNL     1       4.912  -9.311   2.579  0.00  0.00    +0.056 N 
ATOM     18  O   UNL     1       5.979  -9.555   3.092  0.00  0.00    -0.126 OA
ATOM     19  O   UNL     1       4.151 -10.211   2.309  0.00  0.00    -0.126 OA
ENDBRANCH  15  17
ENDBRANCH   2  11
BRANCH   1  20
ATOM     20  C   UNL     1      -0.208  -4.508   0.368  0.00  0.00    +0.198 C 
BRANCH  20  25
ATOM     21  C   UNL     1      -1.739   0.895   1.730  0.00  0.00    +0.044 C 
ATOM     22  C   UNL     1      -1.340  -0.514   1.374  0.00  0.00    -0.050 A 
ATOM     23  C   UNL     1      -1.097  -1.436   2.375  0.00  0.00    +0.004 A 
ATOM     24  C   UNL     1      -0.731  -2.729   2.049  0.00  0.00    +0.006 A 
ATOM     25  C   UNL     1      -0.608  -3.099   0.723  0.00  0.00    -0.018 A 
ATOM     26  C   UNL     1      -0.851  -2.177  -0.278  0.00  0.00    +0.006 A 
ATOM     27  C   UNL     1      -1.222  -0.885   0.048  0.00  0.00    +0.004 A 
ENDBRANCH  20  25
BRANCH  20  28
ATOM     28  C   UNL     1      -1.298  -5.460   0.787  0.00  0.00    +0.239 C 
ATOM     29  O   UNL     1      -1.060  -6.340   1.587  0.00  0.00    -0.273 OA
ATOM     30  N   UNL     1      -2.537  -5.335   0.273  0.00  0.00    -0.309 N 
ATOM     31  H   UNL     1      -2.728  -4.631  -0.367  0.00  0.00    +0.149 HD
BRANCH  30  32
ATOM     32  C   UNL     1      -3.597  -6.261   0.681  0.00  0.00    +0.026 C 
ATOM     33  C   UNL     1      -3.811  -6.157   2.192  0.00  0.00    +0.031 C 
ATOM     34  C   UNL     1      -4.895  -5.901  -0.044  0.00  0.00    +0.031 C 
ATOM     35  C   UNL     1      -3.191  -7.691   0.320  0.00  0.00    +0.031 C 
ENDBRANCH  30  32
ENDBRANCH  20  28
ENDBRANCH   1  20
TORSDOF 7
