REMARK  Name = ZINC33276651
REMARK  9 active torsions:
REMARK  status: ('A' for Active; 'I' for Inactive)
REMARK    1  A    between atoms: C_1  and  C_2
REMARK    2  A    between atoms: C_2  and  C_3
REMARK    3  A    between atoms: C_4  and  C_15
REMARK    4  A    between atoms: C_18  and  C_33
REMARK    5  A    between atoms: C_19  and  S_21
REMARK    6  A    between atoms: S_21  and  N_24
REMARK    7  A    between atoms: N_24  and  C_25
REMARK    8  A    between atoms: C_25  and  C_26
REMARK    9  A    between atoms: C_29  and  C_32
REMARK                            x       y       z     vdW  Elec       q    Type
REMARK                         _______ _______ _______ _____ _____    ______ ____
ROOT
ATOM      1  C   UNL     1      -1.650  -0.724  -0.846  0.00  0.00    -0.011 A 
ATOM      2  C   UNL     1      -1.881  -1.721  -1.793  0.00  0.00    +0.009 A 
ATOM      3  C   UNL     1      -2.696  -2.789  -1.481  0.00  0.00    +0.006 A 
ATOM      4  C   UNL     1      -3.285  -2.872  -0.231  0.00  0.00    -0.024 A 
ATOM      5  C   UNL     1      -3.059  -1.886   0.712  0.00  0.00    +0.109 A 
ATOM      6  C   UNL     1      -2.241  -0.815   0.413  0.00  0.00    +0.037 A 
ATOM      7  C   UNL     1      -4.174  -4.041   0.104  0.00  0.00    +0.046 C 
ENDROOT
BRANCH   1   9
ATOM      8  C   UNL     1      -1.171   1.774  -1.272  0.00  0.00    +0.073 A 
ATOM      9  C   UNL     1      -0.774   0.427  -1.175  0.00  0.00    +0.045 A 
ATOM     10  C   UNL     1       0.589   0.372  -1.446  0.00  0.00    +0.139 A 
ATOM     11  N   UNL     1       1.005   1.651  -1.634  0.00  0.00    -0.185 N 
ATOM     12  N   UNL     1      -0.124   2.490  -1.563  0.00  0.00    -0.167 NA
ATOM     13  C   UNL     1       2.253   2.133  -1.811  0.00  0.00    +0.250 C 
ATOM     14  O   UNL     1       2.386   3.308  -2.063  0.00  0.00    -0.271 OA
ATOM     15  C   UNL     1       3.463   1.297  -1.712  0.00  0.00    +0.110 C 
ATOM     16  C   UNL     1       3.373   0.178  -0.708  0.00  0.00    +0.105 C 
ATOM     17  C   UNL     1       2.586  -0.976  -1.234  0.00  0.00    +0.219 C 
ATOM     18  O   UNL     1       3.116  -2.057  -1.378  0.00  0.00    -0.275 OA
ATOM     19  N   UNL     1       1.285  -0.815  -1.550  0.00  0.00    -0.270 N 
ATOM     20  H   UNL     1       0.776  -1.720  -1.914  0.00  0.00    +0.156 HD
BRANCH   8  22
ATOM     21  C   UNL     1      -2.783   2.652   0.394  0.00  0.00    +0.010 C 
ATOM     22  C   UNL     1      -2.571   2.297  -1.079  0.00  0.00    +0.054 C 
ENDBRANCH   8  22
ENDBRANCH   1   9
BRANCH   5  23
ATOM     23  S   UNL     1      -3.812  -2.000   2.301  0.00  0.00    +0.059 S 
ATOM     24  O   UNL     1      -3.332  -0.897   3.058  0.00  0.00    -0.153 OA
ATOM     25  O   UNL     1      -5.197  -2.226   2.078  0.00  0.00    -0.153 OA
BRANCH  23  26
ATOM     26  N   UNL     1      -3.220  -3.365   3.026  0.00  0.00    -0.186 NA
ATOM     27  H   UNL     1      -3.854  -4.263   3.080  0.00  0.00    +0.148 HD
BRANCH  26  28
ATOM     28  C   UNL     1      -1.804  -3.446   3.393  0.00  0.00    +0.141 C 
BRANCH  28  29
ATOM     29  C   UNL     1      -1.591  -4.611   4.323  0.00  0.00    -0.032 A 
ATOM     30  C   UNL     1      -1.690  -4.431   5.690  0.00  0.00    +0.005 A 
ATOM     31  C   UNL     1      -1.499  -5.502   6.544  0.00  0.00    +0.003 A 
ATOM     32  C   UNL     1      -1.199  -6.750   6.031  0.00  0.00    -0.050 A 
ATOM     33  C   UNL     1      -1.095  -6.929   4.664  0.00  0.00    +0.003 A 
ATOM     34  C   UNL     1      -1.291  -5.859   3.811  0.00  0.00    +0.005 A 
ATOM     35  C   UNL     1      -0.986  -7.916   6.962  0.00  0.00    +0.044 C 
ENDBRANCH  28  29
ENDBRANCH  26  28
ENDBRANCH  23  26
ENDBRANCH   5  23
TORSDOF 6
