REMARK  Name = ZINC57352667
REMARK  3 active torsions:
REMARK  status: ('A' for Active; 'I' for Inactive)
REMARK    1  A    between atoms: C_1  and  C_2
REMARK    2  A    between atoms: C_15  and  C_22
REMARK    3  A    between atoms: C_17  and  N_21
REMARK                            x       y       z     vdW  Elec       q    Type
REMARK                         _______ _______ _______ _____ _____    ______ ____
ROOT
ATOM      1  C   UNL     1      -0.018   1.503   0.010  0.00  0.00    +0.044 C 
ATOM      2  C   UNL     1       0.002  -0.004   0.002  0.00  0.00    -0.047 A 
ATOM      3  C   UNL     1       0.006  -0.686  -1.205  0.00  0.00    +0.005 A 
ATOM      4  C   UNL     1       0.024  -2.063  -1.228  0.00  0.00    +0.032 A 
ATOM      5  C   UNL     1       0.039  -2.775  -0.028  0.00  0.00    +0.111 A 
ATOM      6  C   UNL     1       0.036  -2.081   1.192  0.00  0.00    +0.157 A 
ATOM      7  C   UNL     1       0.023  -0.696   1.196  0.00  0.00    +0.052 A 
ATOM      8  O   UNL     1       0.054  -3.020   2.165  0.00  0.00    -0.424 OA
ATOM      9  C   UNL     1       0.067  -4.231   1.580  0.00  0.00    +0.294 A 
ATOM     10  N   UNL     1       0.059  -4.101   0.279  0.00  0.00    -0.195 NA
ATOM     11  N   UNL     1       0.087  -5.434   2.254  0.00  0.00    -0.248 N 
ATOM     12  C   UNL     1       0.099  -6.623   1.547  0.00  0.00    +0.167 A 
ATOM     13  N   UNL     1       0.113  -7.853   2.005  0.00  0.00    -0.224 NA
ATOM     14  C   UNL     1       0.123  -8.932   1.189  0.00  0.00    +0.083 A 
ATOM     15  C   UNL     1       0.139 -10.299   1.551  0.00  0.00    -0.022 A 
ATOM     16  C   UNL     1       0.149 -11.274   0.603  0.00  0.00    +0.028 A 
ATOM     17  C   UNL     1       0.144 -10.969  -0.757  0.00  0.00    +0.026 A 
ATOM     18  C   UNL     1       0.129  -9.637  -1.151  0.00  0.00    +0.040 A 
ATOM     19  C   UNL     1       0.119  -8.651  -0.196  0.00  0.00    +0.043 A 
ATOM     20  S   UNL     1       0.093  -6.875  -0.223  0.00  0.00    -0.052 S 
ATOM     21  C   UNL     1       0.145 -10.681   3.009  0.00  0.00    +0.046 C 
ATOM     22  H   UNL     1       0.092  -5.447   3.224  0.00  0.00    +0.158 HD
ENDROOT
BRANCH  17  23
ATOM     23  N   UNL     1       0.155 -11.991  -1.712  0.00  0.00    -0.358 N 
ATOM     24  H   UNL     1       0.167 -12.919  -1.430  0.00  0.00    +0.142 HD
ATOM     25  H   UNL     1       0.152 -11.771  -2.657  0.00  0.00    +0.142 HD
ENDBRANCH  17  23
TORSDOF 1
