REMARK  Name = ZINC18019130
REMARK  11 active torsions:
REMARK  status: ('A' for Active; 'I' for Inactive)
REMARK    1  A    between atoms: C_1  and  C_2
REMARK    2  A    between atoms: C_2  and  N_70
REMARK    3  A    between atoms: C_3  and  C_4
REMARK    4  A    between atoms: C_3  and  N_70
REMARK    5  A    between atoms: C_5  and  C_7
REMARK    6  A    between atoms: C_5  and  C_30
REMARK    7  A    between atoms: C_5  and  N_70
REMARK    8  A    between atoms: C_7  and  N_8
REMARK    9  A    between atoms: C_9  and  C_11
REMARK   10  A    between atoms: N_14  and  S_17
REMARK   11  A    between atoms: S_17  and  C_20
REMARK                            x       y       z     vdW  Elec       q    Type
REMARK                         _______ _______ _______ _____ _____    ______ ____
ROOT
ATOM      1  C   UNL     1       1.104   6.470   4.989  0.00  0.00    +0.077 C 
ATOM      2  C   UNL     1       2.143   5.541   4.356  0.00  0.00    +0.030 C 
ATOM      3  C   UNL     1       2.550   6.095   2.987  0.00  0.00    +0.110 C 
ATOM      4  N   UNL     1       1.340   6.288   2.176  0.00  0.00    -0.177 NA
ATOM      5  C   UNL     1       0.242   7.095   2.726  0.00  0.00    +0.110 C 
ATOM      6  C   UNL     1      -0.141   6.526   4.101  0.00  0.00    +0.030 C 
ENDROOT
BRANCH   1   8
ATOM      7  N   UNL     1      -0.065   6.681   7.159  0.00  0.00    -0.316 N 
ATOM      8  C   UNL     1       0.726   5.947   6.351  0.00  0.00    +0.216 C 
ATOM      9  O   UNL     1       1.134   4.866   6.720  0.00  0.00    -0.276 OA
ATOM     10  H   UNL     1      -0.450   7.511   6.837  0.00  0.00    +0.149 HD
BRANCH   7  11
ATOM     11  C   UNL     1      -0.343   6.224   8.523  0.00  0.00    +0.093 C 
BRANCH  11  12
ATOM     12  C   UNL     1      -1.357   7.164   9.178  0.00  0.00    -0.020 C 
BRANCH  12  13
ATOM     13  C   UNL     1      -1.769   6.604  10.515  0.00  0.00    -0.059 A 
ATOM     14  C   UNL     1      -2.085   5.264  10.636  0.00  0.00    +0.002 A 
ATOM     15  C   UNL     1      -2.459   4.750  11.864  0.00  0.00    +0.000 A 
ATOM     16  C   UNL     1      -2.525   5.578  12.969  0.00  0.00    +0.000 A 
ATOM     17  C   UNL     1      -2.214   6.919  12.847  0.00  0.00    +0.000 A 
ATOM     18  C   UNL     1      -1.836   7.432  11.620  0.00  0.00    +0.002 A 
ENDBRANCH  12  13
BRANCH  12  19
ATOM     19  N   UNL     1      -2.530   7.285   8.287  0.00  0.00    +0.385 N 
ATOM     20  H   UNL     1      -2.221   7.181   7.314  0.00  0.00    -0.081 HD
BRANCH  19  22
ATOM     21  C   UNL     1      -3.117   4.958   7.835  0.00  0.00    -0.017 C 
ATOM     22  C   UNL     1      -3.511   6.225   8.596  0.00  0.00    -0.081 C 
ENDBRANCH  19  22
BRANCH  19  23
ATOM     23  C   UNL     1      -3.154   8.615   8.453  0.00  0.00    -0.081 C 
ATOM     24  C   UNL     1      -2.293   9.655   7.733  0.00  0.00    -0.017 C 
ENDBRANCH  19  23
ENDBRANCH  12  19
ENDBRANCH  11  12
ENDBRANCH   7  11
ENDBRANCH   1   8
BRANCH   4  25
ATOM     25  S   UNL     1       1.218   5.614   0.668  0.00  0.00    +0.061 S 
ATOM     26  O   UNL     1       2.547   5.413   0.205  0.00  0.00    -0.153 OA
ATOM     27  O   UNL     1       0.271   6.394  -0.050  0.00  0.00    -0.153 OA
BRANCH  25  28
ATOM     28  C   UNL     1       0.507   4.015   0.867  0.00  0.00    +0.106 A 
ATOM     29  C   UNL     1       1.338   2.914   1.069  0.00  0.00    +0.029 A 
ATOM     30  C   UNL     1       0.821   1.665   1.226  0.00  0.00    +0.010 A 
ATOM     31  C   UNL     1      -0.571   1.479   1.186  0.00  0.00    -0.018 A 
ATOM     32  C   UNL     1      -1.142   0.205   1.345  0.00  0.00    +0.008 A 
ATOM     33  C   UNL     1      -2.495   0.062   1.300  0.00  0.00    +0.001 A 
ATOM     34  C   UNL     1      -3.325   1.162   1.093  0.00  0.00    +0.001 A 
ATOM     35  C   UNL     1      -2.809   2.412   0.940  0.00  0.00    +0.008 A 
ATOM     36  C   UNL     1      -1.416   2.598   0.981  0.00  0.00    -0.016 A 
ATOM     37  C   UNL     1      -0.846   3.873   0.822  0.00  0.00    +0.037 A 
ENDBRANCH  25  28
ENDBRANCH   4  25
TORSDOF 9
