REMARK  Name = ZINC39919894
REMARK  5 active torsions:
REMARK  status: ('A' for Active; 'I' for Inactive)
REMARK    1  A    between atoms: N_9  and  N_19
REMARK    2  A    between atoms: C_10  and  C_13
REMARK    3  A    between atoms: C_20  and  C_22
REMARK    4  A    between atoms: C_22  and  O_23
REMARK    5  A    between atoms: O_23  and  C_24
REMARK                            x       y       z     vdW  Elec       q    Type
REMARK                         _______ _______ _______ _____ _____    ______ ____
ROOT
ATOM      1  C   UNL     1      -0.017   1.375   0.010  0.00  0.00    +0.001 A 
ATOM      2  C   UNL     1       1.168   2.095   0.002  0.00  0.00    +0.002 A 
ATOM      3  C   UNL     1       2.386   1.443  -0.018  0.00  0.00    +0.024 A 
ATOM      4  C   UNL     1       2.422   0.059  -0.028  0.00  0.00    +0.041 A 
ATOM      5  C   UNL     1       1.223  -0.675  -0.012  0.00  0.00    +0.059 A 
ATOM      6  C   UNL     1       0.002  -0.004   0.002  0.00  0.00    +0.015 A 
ATOM      7  C   UNL     1       1.296  -2.146   0.004  0.00  0.00    +0.267 C 
ATOM      8  O   UNL     1       0.290  -2.812  -0.146  0.00  0.00    -0.268 OA
ATOM      9  N   UNL     1       2.489  -2.748   0.187  0.00  0.00    -0.188 N 
ATOM     10  C   UNL     1       3.679  -1.977   0.544  0.00  0.00    +0.247 C 
ATOM     11  N   UNL     1       3.623  -0.642  -0.062  0.00  0.00    -0.318 N 
ATOM     12  H   UNL     1       4.408  -0.255  -0.480  0.00  0.00    +0.148 HD
ENDROOT
BRANCH  10  13
ATOM     13  C   UNL     1       3.751  -1.837   2.043  0.00  0.00    +0.146 A 
ATOM     14  C   UNL     1       4.293  -0.803   2.711  0.00  0.00    +0.049 A 
ATOM     15  C   UNL     1       4.145  -1.083   4.090  0.00  0.00    +0.057 A 
ATOM     16  C   UNL     1       3.521  -2.272   4.181  0.00  0.00    +0.170 A 
ATOM     17  O   UNL     1       3.280  -2.721   2.938  0.00  0.00    -0.449 OA
ATOM     18 BR   UNL     1       3.056  -3.157   5.786  0.00  0.00    -0.008 Br
ENDBRANCH  10  13
BRANCH   9  19
ATOM     19  N   UNL     1       2.589  -4.137   0.031  0.00  0.00    -0.227 N 
ATOM     20  C   UNL     1       2.581  -4.679  -1.203  0.00  0.00    +0.267 C 
ATOM     21  O   UNL     1       2.486  -3.965  -2.179  0.00  0.00    -0.271 OA
ATOM     22  H   UNL     1       2.665  -4.708   0.811  0.00  0.00    +0.173 HD
BRANCH  20  23
ATOM     23  C   UNL     1       2.689  -6.173  -1.370  0.00  0.00    +0.326 C 
BRANCH  23  24
ATOM     24  O   UNL     1       2.658  -6.500  -2.761  0.00  0.00    -0.481 OA
BRANCH  24  25
ATOM     25  C   UNL     1       2.746  -7.816  -3.087  0.00  0.00    +0.140 A 
ATOM     26  C   UNL     1       2.855  -8.774  -2.090  0.00  0.00    +0.048 A 
ATOM     27  C   UNL     1       2.945 -10.111  -2.423  0.00  0.00    +0.023 A 
ATOM     28  C   UNL     1       2.926 -10.497  -3.752  0.00  0.00    +0.043 A 
ATOM     29  C   UNL     1       2.818  -9.544  -4.749  0.00  0.00    +0.043 A 
ATOM     30  C   UNL     1       2.722  -8.205  -4.420  0.00  0.00    +0.084 A 
ATOM     31 CL   UNL     1       2.579  -7.011  -5.671  0.00  0.00    -0.080 Cl
ATOM     32 CL   UNL     1       3.040 -12.179  -4.168  0.00  0.00    -0.083 Cl
ENDBRANCH  24  25
ENDBRANCH  23  24
ENDBRANCH  20  23
ENDBRANCH   9  19
TORSDOF 5
