REMARK  Name = ZINC33366331
REMARK  7 active torsions:
REMARK  status: ('A' for Active; 'I' for Inactive)
REMARK    1  A    between atoms: C_1  and  C_2
REMARK    2  A    between atoms: C_5  and  C_21
REMARK    3  A    between atoms: C_6  and  C_7
REMARK    4  A    between atoms: C_6  and  C_8
REMARK    5  A    between atoms: N_23  and  N_24
REMARK    6  A    between atoms: C_25  and  C_27
REMARK    7  A    between atoms: C_32  and  N_33
REMARK                            x       y       z     vdW  Elec       q    Type
REMARK                         _______ _______ _______ _____ _____    ______ ____
ROOT
ATOM      1  C   UNL     1       0.662   0.629  -2.474  0.00  0.00    +0.018 C 
ATOM      2  C   UNL     1       0.521  -0.837  -2.062  0.00  0.00    +0.018 C 
ATOM      3  C   UNL     1      -0.909  -1.300  -1.640  0.00  0.00    +0.015 C 
ATOM      4  C   UNL     1      -0.665  -2.614  -0.860  0.00  0.00    +0.024 C 
ATOM      5  C   UNL     1       0.885  -2.796  -0.899  0.00  0.00    +0.098 C 
ATOM      6  C   UNL     1       1.349  -1.296  -0.806  0.00  0.00    -0.005 C 
ATOM      7  C   UNL     1       0.861  -0.636   0.485  0.00  0.00    +0.013 C 
ATOM      8  C   UNL     1       2.855  -1.121  -1.006  0.00  0.00    +0.013 C 
ATOM      9  C   UNL     1       1.196  -3.080  -2.371  0.00  0.00    +0.079 A 
ATOM     10  C   UNL     1       0.990  -1.875  -3.084  0.00  0.00    +0.071 A 
ATOM     11  N   UNL     1       1.181  -1.807  -4.376  0.00  0.00    -0.248 NA
ATOM     12  C   UNL     1       1.606  -2.891  -5.038  0.00  0.00    +0.091 A 
ATOM     13  C   UNL     1       1.823  -2.852  -6.426  0.00  0.00    +0.051 A 
ATOM     14  C   UNL     1       2.257  -3.968  -7.073  0.00  0.00    +0.061 A 
ATOM     15  C   UNL     1       2.491  -5.156  -6.377  0.00  0.00    +0.061 A 
ATOM     16  C   UNL     1       2.290  -5.230  -5.032  0.00  0.00    +0.051 A 
ATOM     17  C   UNL     1       1.842  -4.097  -4.331  0.00  0.00    +0.091 A 
ATOM     18  N   UNL     1       1.595  -4.161  -2.988  0.00  0.00    -0.247 NA
ATOM     19 CL   UNL     1       3.045  -6.558  -7.238  0.00  0.00    -0.082 Cl
ATOM     20 CL   UNL     1       2.524  -3.914  -8.787  0.00  0.00    -0.082 Cl
ENDROOT
BRANCH   5  21
ATOM     21  C   UNL     1       1.469  -3.746   0.115  0.00  0.00    +0.242 C 
ATOM     22  O   UNL     1       2.267  -3.342   0.935  0.00  0.00    -0.273 OA
ATOM     23  N   UNL     1       1.105  -5.043   0.112  0.00  0.00    -0.233 N 
ATOM     24  H   UNL     1       0.467  -5.366  -0.544  0.00  0.00    +0.173 HD
BRANCH  23  25
ATOM     25  N   UNL     1       1.648  -5.926   1.054  0.00  0.00    -0.230 N 
ATOM     26  C   UNL     1       1.284  -7.224   1.051  0.00  0.00    +0.262 C 
ATOM     27  O   UNL     1       0.484  -7.628   0.229  0.00  0.00    -0.269 OA
ATOM     28  H   UNL     1       2.286  -5.603   1.710  0.00  0.00    +0.173 HD
BRANCH  26  29
ATOM     29  C   UNL     1       1.857  -8.155   2.046  0.00  0.00    +0.068 A 
ATOM     30  C   UNL     1       3.241  -8.282   2.172  0.00  0.00    +0.015 A 
ATOM     31  C   UNL     1       3.769  -9.152   3.103  0.00  0.00    +0.001 A 
ATOM     32  C   UNL     1       2.930  -9.899   3.910  0.00  0.00    +0.002 A 
ATOM     33  C   UNL     1       1.557  -9.778   3.791  0.00  0.00    +0.033 A 
ATOM     34  C   UNL     1       1.016  -8.907   2.867  0.00  0.00    +0.138 A 
BRANCH  34  35
ATOM     35  N   UNL     1      -0.454  -8.774   2.745  0.00  0.00    +0.057 N 
ATOM     36  O   UNL     1      -1.181  -9.512   3.368  0.00  0.00    -0.126 OA
ATOM     37  O   UNL     1      -0.926  -7.928   2.022  0.00  0.00    -0.126 OA
ENDBRANCH  34  35
ENDBRANCH  26  29
ENDBRANCH  23  25
ENDBRANCH   5  21
TORSDOF 4
