REMARK  Name = ZINC06661140
REMARK  8 active torsions:
REMARK  status: ('A' for Active; 'I' for Inactive)
REMARK    1  A    between atoms: C_1  and  C_2
REMARK    2  A    between atoms: C_2  and  C_3
REMARK    3  A    between atoms: C_2  and  C_4
REMARK    4  A    between atoms: C_4  and  N_5
REMARK    5  A    between atoms: N_8  and  C_9
REMARK    6  A    between atoms: C_10  and  C_20
REMARK    7  A    between atoms: C_16  and  C_18
REMARK    8  A    between atoms: C_16  and  C_19
REMARK                            x       y       z     vdW  Elec       q    Type
REMARK                         _______ _______ _______ _____ _____    ______ ____
ROOT
ATOM      1  C   UNL     1      -1.057   3.712   0.030  0.00  0.00    +0.091 A 
ATOM      2  C   UNL     1      -1.218   2.333   0.020  0.00  0.00    +0.084 A 
ATOM      3  C   UNL     1      -0.019   1.520   0.010  0.00  0.00    -0.013 A 
ATOM      4  C   UNL     1       1.147   2.209   0.003  0.00  0.00    +0.022 A 
ATOM      5  S   UNL     1       0.665   3.910   0.015  0.00  0.00    -0.075 S 
ATOM      6  C   UNL     1       2.521   1.616  -0.012  0.00  0.00    +0.203 C 
ATOM      7  O   UNL     1       2.402   0.220   0.306  0.00  0.00    -0.368 OA
ATOM      8  C   UNL     1       1.394  -0.456  -0.451  0.00  0.00    +0.068 C 
ATOM      9  C   UNL     1       0.002  -0.004   0.002  0.00  0.00    +0.071 C 
ATOM     10  C   UNL     1       1.530  -1.966  -0.242  0.00  0.00    +0.041 C 
ATOM     11  C   UNL     1       1.575  -0.131  -1.935  0.00  0.00    +0.041 C 
ENDROOT
BRANCH   1  15
ATOM     12  N   UNL     1      -2.638   6.950   0.060  0.00  0.00    -0.299 N 
ATOM     13  C   UNL     1      -1.687   5.996   0.047  0.00  0.00    +0.304 C 
ATOM     14  O   UNL     1      -0.512   6.309   0.037  0.00  0.00    -0.252 OA
ATOM     15  N   UNL     1      -2.037   4.695   0.044  0.00  0.00    -0.263 N 
ATOM     16  H   UNL     1      -3.576   6.701   0.067  0.00  0.00    +0.150 HD
ATOM     17  H   UNL     1      -2.974   4.445   0.051  0.00  0.00    +0.157 HD
BRANCH  12  18
ATOM     18  C   UNL     1      -2.257   8.365   0.063  0.00  0.00    +0.108 C 
BRANCH  18  20
ATOM     19  C   UNL     1      -3.122  10.705   0.207  0.00  0.00    +0.009 C 
ATOM     20  C   UNL     1      -3.518   9.233   0.079  0.00  0.00    -0.000 C 
ATOM     21  C   UNL     1      -4.295   9.026  -1.223  0.00  0.00    +0.009 C 
ENDBRANCH  18  20
ENDBRANCH  12  18
ENDBRANCH   1  15
BRANCH   2  22
ATOM     22  C   UNL     1      -2.521   1.737   0.024  0.00  0.00    +0.102 C 
ATOM     23  N   UNL     1      -3.553   1.265   0.027  0.00  0.00    -0.191 NA
ENDBRANCH   2  22
TORSDOF 4
