REMARK  Name = ZINC22464473
REMARK  8 active torsions:
REMARK  status: ('A' for Active; 'I' for Inactive)
REMARK    1  A    between atoms: C_1  and  C_2
REMARK    2  A    between atoms: C_2  and  C_27
REMARK    3  A    between atoms: N_5  and  C_9
REMARK    4  A    between atoms: C_9  and  C_10
REMARK    5  A    between atoms: N_12  and  C_13
REMARK    6  A    between atoms: C_13  and  C_14
REMARK    7  A    between atoms: C_14  and  C_16
REMARK    8  A    between atoms: C_14  and  N_22
REMARK                            x       y       z     vdW  Elec       q    Type
REMARK                         _______ _______ _______ _____ _____    ______ ____
ROOT
ATOM      1  C   UNL     1       4.340   0.363  -1.006  0.00  0.00    +0.231 C 
ATOM      2  O   UNL     1       3.466  -0.019  -1.755  0.00  0.00    -0.274 OA
ATOM      3  N   UNL     1       5.589   0.557  -1.472  0.00  0.00    -0.315 N 
ATOM      4  H   UNL     1       6.382   0.904  -0.793  0.00  0.00    +0.149 HD
ENDROOT
BRANCH   1   5
ATOM      5  C   UNL     1       4.029   0.622   0.446  0.00  0.00    +0.213 C 
BRANCH   5  10
ATOM      6  C   UNL     1      -0.617   0.515  -0.243  0.00  0.00    +0.047 C 
ATOM      7  C   UNL     1       0.349   0.517   0.943  0.00  0.00    +0.135 C 
ATOM      8  C   UNL     1       1.628   1.250   0.588  0.00  0.00    +0.251 C 
ATOM      9  O   UNL     1       1.739   2.415   0.270  0.00  0.00    -0.272 OA
ATOM     10  N   UNL     1       2.614   0.339   0.700  0.00  0.00    -0.215 N 
ATOM     11  C   UNL     1       2.141  -0.857   1.071  0.00  0.00    +0.310 C 
ATOM     12  O   UNL     1       2.840  -1.837   1.238  0.00  0.00    -0.252 OA
ATOM     13  N   UNL     1       0.807  -0.851   1.241  0.00  0.00    -0.281 N 
ATOM     14  H   UNL     1       0.080  -1.623   1.535  0.00  0.00    +0.152 HD
BRANCH   7  15
ATOM     15  C   UNL     1      -0.298   1.135   2.155  0.00  0.00    -0.015 A 
ATOM     16  C   UNL     1      -0.209   2.499   2.366  0.00  0.00    +0.009 A 
ATOM     17  C   UNL     1      -0.807   3.068   3.474  0.00  0.00    +0.039 A 
ATOM     18  C   UNL     1      -1.485   2.270   4.380  0.00  0.00    +0.123 A 
ATOM     19  C   UNL     1      -1.568   0.904   4.171  0.00  0.00    +0.039 A 
ATOM     20  C   UNL     1      -0.975   0.338   3.059  0.00  0.00    +0.009 A 
ATOM     21  F   UNL     1      -2.065   2.825   5.467  0.00  0.00    -0.205 F 
ENDBRANCH   7  15
ENDBRANCH   5  10
ENDBRANCH   1   5
BRANCH   3  22
ATOM     22  C   UNL     1       5.892   0.306  -2.884  0.00  0.00    +0.093 C 
BRANCH  22  23
ATOM     23  C   UNL     1       7.399   0.440  -3.114  0.00  0.00    -0.020 C 
BRANCH  23  24
ATOM     24  C   UNL     1       7.700   0.261  -4.579  0.00  0.00    -0.059 A 
ATOM     25  C   UNL     1       7.646  -0.997  -5.148  0.00  0.00    +0.002 A 
ATOM     26  C   UNL     1       7.919  -1.160  -6.494  0.00  0.00    +0.000 A 
ATOM     27  C   UNL     1       8.255  -0.066  -7.268  0.00  0.00    +0.000 A 
ATOM     28  C   UNL     1       8.314   1.192  -6.698  0.00  0.00    +0.000 A 
ATOM     29  C   UNL     1       8.037   1.356  -5.354  0.00  0.00    +0.002 A 
ENDBRANCH  23  24
BRANCH  23  30
ATOM     30  N   UNL     1       8.105  -0.590  -2.340  0.00  0.00    +0.385 N 
ATOM     31  C   UNL     1       9.529  -0.682  -2.751  0.00  0.00    -0.078 C 
ATOM     32  C   UNL     1      10.204  -1.375  -1.541  0.00  0.00    -0.020 C 
ATOM     33  C   UNL     1       9.460  -0.761  -0.333  0.00  0.00    -0.020 C 
ATOM     34  C   UNL     1       8.122  -0.252  -0.900  0.00  0.00    -0.078 C 
ATOM     35  H   UNL     1       7.564  -1.529  -2.526  0.00  0.00    -0.081 HD
ENDBRANCH  23  30
ENDBRANCH  22  23
ENDBRANCH   3  22
TORSDOF 7
