REMARK  Name = ZINC67288855
REMARK  8 active torsions:
REMARK  status: ('A' for Active; 'I' for Inactive)
REMARK    1  A    between atoms: C_1  and  C_2
REMARK    2  A    between atoms: C_6  and  N_8
REMARK    3  A    between atoms: N_8  and  C_9
REMARK    4  A    between atoms: C_10  and  C_12
REMARK    5  A    between atoms: C_12  and  N_13
REMARK    6  A    between atoms: C_16  and  C_21
REMARK    7  A    between atoms: C_23  and  C_28
REMARK    8  A    between atoms: C_26  and  C_27
REMARK                            x       y       z     vdW  Elec       q    Type
REMARK                         _______ _______ _______ _____ _____    ______ ____
ROOT
ATOM      1  N   UNL     1      -0.484  -6.325   3.410  0.00  0.00    -0.247 N 
ATOM      2  C   UNL     1      -1.641  -6.988   3.120  0.00  0.00    +0.065 C 
ATOM      3  C   UNL     1      -1.641  -8.313   2.861  0.00  0.00    +0.082 C 
ATOM      4  C   UNL     1      -0.314  -9.041   2.904  0.00  0.00    +0.144 C 
ATOM      5  N   UNL     1       0.876  -8.236   3.227  0.00  0.00    -0.288 N 
ATOM      6  C   UNL     1       0.717  -6.917   3.456  0.00  0.00    +0.307 C 
ATOM      7  O   UNL     1       1.694  -6.244   3.719  0.00  0.00    -0.252 OA
ATOM      8  C   UNL     1      -2.954  -8.744   2.595  0.00  0.00    +0.339 C 
ATOM      9  O   UNL     1      -3.263  -9.890   2.328  0.00  0.00    -0.245 OA
ATOM     10  O   UNL     1      -3.822  -7.718   2.675  0.00  0.00    -0.455 OA
ATOM     11  C   UNL     1      -3.080  -6.538   3.008  0.00  0.00    +0.284 C 
ATOM     12  H   UNL     1       1.755  -8.644   3.270  0.00  0.00    +0.151 HD
ENDROOT
BRANCH   4  13
ATOM     13  C   UNL     1      -0.421 -10.143   3.926  0.00  0.00    -0.019 A 
ATOM     14  C   UNL     1      -1.429 -10.113   4.872  0.00  0.00    +0.009 A 
ATOM     15  C   UNL     1      -1.527 -11.124   5.810  0.00  0.00    -0.050 A 
ATOM     16  C   UNL     1      -0.618 -12.165   5.801  0.00  0.00    +0.003 A 
ATOM     17  C   UNL     1       0.389 -12.195   4.855  0.00  0.00    +0.004 A 
ATOM     18  C   UNL     1       0.485 -11.187   3.914  0.00  0.00    -0.045 A 
ATOM     19  C   UNL     1       1.579 -11.223   2.879  0.00  0.00    +0.044 C 
ATOM     20  C   UNL     1      -2.625 -11.090   6.842  0.00  0.00    +0.044 C 
ENDBRANCH   4  13
BRANCH   1  21
ATOM     21  C   UNL     1      -0.558  -4.887   3.681  0.00  0.00    +0.211 C 
BRANCH  21  24
ATOM     22  N   UNL     1      -0.433  -2.777   2.396  0.00  0.00    -0.273 N 
ATOM     23  C   UNL     1      -0.522  -2.051   3.665  0.00  0.00    +0.138 C 
ATOM     24  C   UNL     1      -0.398  -4.125   2.391  0.00  0.00    +0.237 C 
ATOM     25  O   UNL     1      -0.238  -4.723   1.348  0.00  0.00    -0.274 OA
BRANCH  22  31
ATOM     26  C   UNL     1      -2.637   0.137  -0.894  0.00  0.00    +0.044 C 
ATOM     27  C   UNL     1      -1.439  -0.651  -0.431  0.00  0.00    -0.049 A 
ATOM     28  C   UNL     1      -0.290  -0.678  -1.200  0.00  0.00    +0.003 A 
ATOM     29  C   UNL     1       0.811  -1.399  -0.778  0.00  0.00    +0.002 A 
ATOM     30  C   UNL     1       0.767  -2.097   0.413  0.00  0.00    +0.023 A 
ATOM     31  C   UNL     1      -0.385  -2.072   1.188  0.00  0.00    +0.036 A 
ATOM     32  C   UNL     1      -1.488  -1.342   0.764  0.00  0.00    +0.027 A 
ENDBRANCH  22  31
ENDBRANCH  21  24
ENDBRANCH   1  21
TORSDOF 4
