REMARK  Name = ZINC15001439
REMARK  6 active torsions:
REMARK  status: ('A' for Active; 'I' for Inactive)
REMARK    1  A    between atoms: C_9  and  C_12
REMARK    2  A    between atoms: C_12  and  N_53
REMARK    3  A    between atoms: C_13  and  C_14
REMARK    4  A    between atoms: C_13  and  N_53
REMARK    5  A    between atoms: N_22  and  C_25
REMARK    6  A    between atoms: C_25  and  C_26
REMARK                            x       y       z     vdW  Elec       q    Type
REMARK                         _______ _______ _______ _____ _____    ______ ____
ROOT
ATOM      1  C   UNL     1       0.002  -0.004   0.002  0.00  0.00    +0.001 A 
ATOM      2  C   UNL     1      -0.080  -0.687   1.171  0.00  0.00    +0.017 A 
ATOM      3  C   UNL     1      -0.058  -2.150   1.129  0.00  0.00    -0.001 A 
ATOM      4  C   UNL     1      -0.140  -2.909   2.301  0.00  0.00    +0.011 A 
ATOM      5  C   UNL     1      -0.116  -4.272   2.229  0.00  0.00    +0.021 A 
ATOM      6  C   UNL     1      -0.012  -4.913   1.000  0.00  0.00    +0.043 A 
ATOM      7  C   UNL     1       0.070  -4.185  -0.169  0.00  0.00    +0.046 A 
ATOM      8  C   UNL     1       0.048  -2.795  -0.118  0.00  0.00    +0.054 A 
ATOM      9  N   UNL     1       0.129  -2.042  -1.270  0.00  0.00    -0.302 N 
ATOM     10  C   UNL     1       0.101  -0.699  -1.222  0.00  0.00    +0.253 A 
ATOM     11  O   UNL     1       0.169  -0.065  -2.261  0.00  0.00    -0.267 OA
ATOM     12 CL   UNL     1       0.015  -6.648   0.935  0.00  0.00    -0.083 Cl
ENDROOT
BRANCH   1  13
ATOM     13  C   UNL     1      -0.018   1.503   0.010  0.00  0.00    -0.041 C 
BRANCH  13  14
ATOM     14  N   UNL     1       1.369   2.005  -0.000  0.00  0.00    +0.384 N 
ATOM     15  H   UNL     1       1.861   1.658   0.832  0.00  0.00    -0.085 HD
ATOM     16  H   UNL     1       1.845   1.667  -0.845  0.00  0.00    -0.085 HD
BRANCH  14  17
ATOM     17  C   UNL     1       1.379   3.480   0.008  0.00  0.00    -0.034 C 
BRANCH  17  26
ATOM     18  C   UNL     1       7.046   5.416  -2.161  0.00  0.00    +0.004 A 
ATOM     19  C   UNL     1       6.668   4.254  -2.806  0.00  0.00    +0.004 A 
ATOM     20  C   UNL     1       5.467   3.646  -2.493  0.00  0.00    +0.049 A 
ATOM     21  C   UNL     1       4.638   4.201  -1.529  0.00  0.00    +0.162 A 
ATOM     22  C   UNL     1       5.019   5.369  -0.879  0.00  0.00    +0.162 A 
ATOM     23  C   UNL     1       6.225   5.974  -1.199  0.00  0.00    +0.049 A 
ATOM     24  O   UNL     1       4.223   5.928   0.073  0.00  0.00    -0.485 OA
ATOM     25  C   UNL     1       2.856   5.502   0.100  0.00  0.00    +0.271 C 
ATOM     26  C   UNL     1       2.828   3.971  -0.004  0.00  0.00    +0.194 C 
ATOM     27  O   UNL     1       3.456   3.593  -1.233  0.00  0.00    -0.484 OA
ENDBRANCH  17  26
ENDBRANCH  14  17
ENDBRANCH  13  14
ENDBRANCH   1  13
BRANCH   9  28
ATOM     28  C   UNL     1       0.238  -2.716  -2.567  0.00  0.00    +0.180 C 
BRANCH  28  29
ATOM     29  C   UNL     1      -1.140  -2.965  -3.122  0.00  0.00    +0.061 A 
ATOM     30  C   UNL     1      -1.696  -2.057  -4.004  0.00  0.00    +0.025 A 
ATOM     31  C   UNL     1      -2.962  -2.299  -4.513  0.00  0.00    +0.003 A 
ATOM     32  C   UNL     1      -3.630  -3.444  -4.106  0.00  0.00    +0.020 A 
ATOM     33  C   UNL     1      -3.013  -4.303  -3.217  0.00  0.00    +0.111 A 
ATOM     34  N   UNL     1      -1.805  -4.044  -2.757  0.00  0.00    -0.258 NA
ENDBRANCH  28  29
ENDBRANCH   9  28
TORSDOF 6
