REMARK  Name = ZINC35890656
REMARK  3 active torsions:
REMARK  status: ('A' for Active; 'I' for Inactive)
REMARK    1  A    between atoms: C_10  and  C_30
REMARK    2  A    between atoms: N_17  and  C_20
REMARK    3  A    between atoms: C_20  and  C_21
REMARK                            x       y       z     vdW  Elec       q    Type
REMARK                         _______ _______ _______ _____ _____    ______ ____
ROOT
ATOM      1  C   UNL     1      -2.718   0.527  -2.802  0.00  0.00    +0.001 A 
ATOM      2  C   UNL     1      -1.945   0.406  -3.948  0.00  0.00    +0.002 A 
ATOM      3  C   UNL     1      -2.481  -0.105  -5.109  0.00  0.00    +0.028 A 
ATOM      4  C   UNL     1      -3.819  -0.506  -5.138  0.00  0.00    +0.078 A 
ATOM      5  C   UNL     1      -4.603  -0.381  -3.969  0.00  0.00    +0.045 A 
ATOM      6  C   UNL     1      -4.041   0.138  -2.805  0.00  0.00    +0.014 A 
ATOM      7  C   UNL     1      -6.004  -0.811  -4.032  0.00  0.00    +0.173 A 
ATOM      8  N   UNL     1      -7.004  -0.847  -3.183  0.00  0.00    -0.128 NA
ATOM      9  N   UNL     1      -8.050  -1.329  -3.758  0.00  0.00    -0.128 NA
ATOM     10  C   UNL     1      -7.780  -1.630  -5.011  0.00  0.00    +0.171 A 
ATOM     11  N   UNL     1      -6.466  -1.311  -5.230  0.00  0.00    -0.246 N 
ATOM     12  C   UNL     1      -5.629  -1.393  -6.309  0.00  0.00    +0.206 A 
ATOM     13  N   UNL     1      -4.379  -1.012  -6.265  0.00  0.00    -0.215 NA
ATOM     14  N   UNL     1      -6.122  -1.897  -7.488  0.00  0.00    -0.304 N 
ATOM     15  C   UNL     1      -5.916  -3.306  -7.854  0.00  0.00    +0.089 C 
ATOM     16  C   UNL     1      -5.359  -3.362  -9.280  0.00  0.00    -0.059 C 
ATOM     17  N   UNL     1      -6.253  -2.626 -10.183  0.00  0.00    +0.384 N 
ATOM     18  C   UNL     1      -6.271  -1.203  -9.820  0.00  0.00    -0.059 C 
ATOM     19  C   UNL     1      -6.878  -1.043  -8.418  0.00  0.00    +0.089 C 
ATOM     20  H   UNL     1      -7.187  -3.002 -10.109  0.00  0.00    -0.081 HD
ENDROOT
BRANCH  10  21
ATOM     21  C   UNL     1      -8.719  -2.205  -5.997  0.00  0.00    +0.020 A 
ATOM     22  C   UNL     1      -8.704  -3.576  -6.261  0.00  0.00    +0.013 A 
ATOM     23  C   UNL     1      -9.583  -4.107  -7.182  0.00  0.00    +0.021 A 
ATOM     24  C   UNL     1     -10.479  -3.284  -7.844  0.00  0.00    +0.041 A 
ATOM     25  C   UNL     1     -10.497  -1.923  -7.587  0.00  0.00    +0.021 A 
ATOM     26  C   UNL     1      -9.627  -1.381  -6.664  0.00  0.00    +0.013 A 
ATOM     27 CL   UNL     1     -11.582  -3.960  -9.001  0.00  0.00    -0.084 Cl
ENDBRANCH  10  21
BRANCH  17  28
ATOM     28  C   UNL     1      -5.779  -2.772 -11.566  0.00  0.00    -0.043 C 
BRANCH  28  29
ATOM     29  C   UNL     1      -6.762  -2.122 -12.505  0.00  0.00    -0.060 A 
ATOM     30  C   UNL     1      -7.809  -2.859 -13.025  0.00  0.00    +0.005 A 
ATOM     31  C   UNL     1      -8.714  -2.267 -13.887  0.00  0.00    +0.050 A 
ATOM     32  C   UNL     1      -8.572  -0.933 -14.232  0.00  0.00    +0.166 A 
ATOM     33  C   UNL     1      -7.517  -0.190 -13.708  0.00  0.00    +0.166 A 
ATOM     34  C   UNL     1      -6.618  -0.788 -12.840  0.00  0.00    +0.051 A 
ATOM     35  O   UNL     1      -7.596   1.083 -14.194  0.00  0.00    -0.453 OA
ATOM     36  C   UNL     1      -8.468   1.005 -15.337  0.00  0.00    +0.466 C 
ATOM     37  O   UNL     1      -9.312  -0.125 -15.046  0.00  0.00    -0.453 OA
ENDBRANCH  28  29
ENDBRANCH  17  28
TORSDOF 3
