REMARK  Name = ZINC09324702
REMARK  9 active torsions:
REMARK  status: ('A' for Active; 'I' for Inactive)
REMARK    1  A    between atoms: C_1  and  C_2
REMARK    2  A    between atoms: C_5  and  C_8
REMARK    3  A    between atoms: C_8  and  O_9
REMARK    4  A    between atoms: O_9  and  C_10
REMARK    5  A    between atoms: C_13  and  C_17
REMARK    6  A    between atoms: C_14  and  O_16
REMARK    7  A    between atoms: C_18  and  C_23
REMARK    8  A    between atoms: C_26  and  O_29
REMARK    9  A    between atoms: O_29  and  C_30
REMARK                            x       y       z     vdW  Elec       q    Type
REMARK                         _______ _______ _______ _____ _____    ______ ____
ROOT
ATOM      1  C   UNL     1       0.906  -6.255  -0.617  0.00  0.00    +0.124 A 
ATOM      2  C   UNL     1      -0.060  -7.233  -0.421  0.00  0.00    +0.046 A 
ATOM      3  C   UNL     1       0.309  -8.554  -0.283  0.00  0.00    +0.017 A 
ATOM      4  C   UNL     1       1.655  -8.911  -0.340  0.00  0.00    +0.044 A 
ATOM      5  C   UNL     1       2.628  -7.926  -0.538  0.00  0.00    +0.130 A 
ATOM      6  C   UNL     1       2.248  -6.602  -0.681  0.00  0.00    +0.091 A 
ENDROOT
BRANCH   4   7
ATOM      7  C   UNL     1       2.055 -10.331  -0.192  0.00  0.00    +0.104 A 
ATOM      8  C   UNL     1       1.594 -11.228   0.805  0.00  0.00    +0.027 A 
ATOM      9  C   UNL     1       2.202 -12.428   0.588  0.00  0.00    +0.114 A 
ATOM     10  N   UNL     1       3.005 -12.296  -0.488  0.00  0.00    -0.284 N 
ATOM     11  H   UNL     1       3.561 -12.994  -0.870  0.00  0.00    +0.188 HD
ATOM     12  N   UNL     1       2.895 -10.984  -0.964  0.00  0.00    -0.173 NA
BRANCH   8  13
ATOM     13  C   UNL     1       0.626 -10.917   1.886  0.00  0.00    -0.014 A 
ATOM     14  C   UNL     1       0.864  -9.850   2.750  0.00  0.00    +0.012 A 
ATOM     15  C   UNL     1      -0.037  -9.563   3.754  0.00  0.00    +0.046 A 
ATOM     16  C   UNL     1      -1.179 -10.337   3.905  0.00  0.00    +0.120 A 
ATOM     17  C   UNL     1      -1.419 -11.401   3.046  0.00  0.00    +0.046 A 
ATOM     18  C   UNL     1      -0.524 -11.689   2.036  0.00  0.00    +0.012 A 
BRANCH  16  19
ATOM     19  O   UNL     1      -2.065 -10.053   4.896  0.00  0.00    -0.495 OA
ATOM     20  C   UNL     1      -3.220 -10.890   4.994  0.00  0.00    +0.277 C 
ENDBRANCH  16  19
ENDBRANCH   8  13
ENDBRANCH   4   7
BRANCH   5  21
ATOM     21  O   UNL     1       3.941  -8.267  -0.595  0.00  0.00    -0.506 OA
ATOM     22  H   UNL     1       4.255  -8.476  -1.485  0.00  0.00    +0.292 HD
ENDBRANCH   5  21
BRANCH   1  23
ATOM     23  O   UNL     1       0.536  -4.954  -0.752  0.00  0.00    -0.487 OA
BRANCH  23  24
ATOM     24  C   UNL     1      -0.861  -4.666  -0.676  0.00  0.00    +0.264 C 
BRANCH  24  29
ATOM     25  C   UNL     1      -1.698   1.014  -1.329  0.00  0.00    +0.044 C 
ATOM     26  C   UNL     1      -1.480  -0.467  -1.159  0.00  0.00    -0.050 A 
ATOM     27  C   UNL     1      -1.474  -1.296  -2.264  0.00  0.00    +0.004 A 
ATOM     28  C   UNL     1      -1.273  -2.655  -2.108  0.00  0.00    +0.007 A 
ATOM     29  C   UNL     1      -1.079  -3.185  -0.847  0.00  0.00    -0.010 A 
ATOM     30  C   UNL     1      -1.084  -2.355   0.259  0.00  0.00    +0.007 A 
ATOM     31  C   UNL     1      -1.280  -0.996   0.103  0.00  0.00    +0.004 A 
ENDBRANCH  24  29
ENDBRANCH  23  24
ENDBRANCH   1  23
TORSDOF 7
