REMARK  Name = ZINC06779570
REMARK  4 active torsions:
REMARK  status: ('A' for Active; 'I' for Inactive)
REMARK    1  A    between atoms: C_6  and  S_7
REMARK    2  A    between atoms: S_7  and  N_10
REMARK    3  A    between atoms: C_14  and  C_16
REMARK    4  A    between atoms: N_18  and  C_19
REMARK                            x       y       z     vdW  Elec       q    Type
REMARK                         _______ _______ _______ _____ _____    ______ ____
ROOT
ATOM      1  N   UNL     1       1.180  -0.223  -0.180  0.00  0.00    -0.165 NA
ATOM      2  C   UNL     1      -0.053   0.467   0.227  0.00  0.00    +0.110 C 
ATOM      3  C   UNL     1       0.100   1.951  -0.168  0.00  0.00    +0.019 C 
ATOM      4  C   UNL     1       1.638   2.128  -0.264  0.00  0.00    +0.031 C 
ATOM      5  C   UNL     1       2.075   0.752  -0.828  0.00  0.00    +0.166 C 
ENDROOT
BRANCH   5   6
ATOM      6  C   UNL     1       3.510   0.467  -0.468  0.00  0.00    +0.236 C 
ATOM      7  O   UNL     1       3.791   0.085   0.648  0.00  0.00    -0.274 OA
ATOM      8  N   UNL     1       4.482   0.637  -1.387  0.00  0.00    -0.284 N 
ATOM      9  H   UNL     1       4.266   1.002  -2.259  0.00  0.00    +0.155 HD
BRANCH   8  10
ATOM     10  C   UNL     1       5.803   0.286  -1.082  0.00  0.00    +0.037 A 
ATOM     11  C   UNL     1       6.294   0.480   0.202  0.00  0.00    +0.027 A 
ATOM     12  C   UNL     1       7.596   0.131   0.506  0.00  0.00    +0.051 A 
ATOM     13  C   UNL     1       8.418  -0.406  -0.472  0.00  0.00    +0.166 A 
ATOM     14  C   UNL     1       7.930  -0.597  -1.762  0.00  0.00    +0.168 A 
ATOM     15  C   UNL     1       6.624  -0.250  -2.065  0.00  0.00    +0.072 A 
ATOM     16  O   UNL     1       8.924  -1.131  -2.530  0.00  0.00    -0.453 OA
ATOM     17  C   UNL     1      10.144  -0.886  -1.806  0.00  0.00    +0.466 C 
ATOM     18  O   UNL     1       9.719  -0.821  -0.432  0.00  0.00    -0.453 OA
ENDBRANCH   8  10
ENDBRANCH   5   6
BRANCH   1  19
ATOM     19  S   UNL     1       1.509  -1.829   0.052  0.00  0.00    +0.062 S 
ATOM     20  O   UNL     1       2.911  -1.985  -0.118  0.00  0.00    -0.153 OA
ATOM     21  O   UNL     1       0.839  -2.212   1.246  0.00  0.00    -0.153 OA
BRANCH  19  27
ATOM     22  C   UNL     1      -0.556  -3.175  -1.121  0.00  0.00    +0.030 A 
ATOM     23  C   UNL     1      -1.161  -3.865  -2.154  0.00  0.00    +0.022 A 
ATOM     24  C   UNL     1      -0.467  -4.104  -3.326  0.00  0.00    +0.041 A 
ATOM     25  C   UNL     1       0.831  -3.647  -3.466  0.00  0.00    +0.022 A 
ATOM     26  C   UNL     1       1.434  -2.952  -2.434  0.00  0.00    +0.030 A 
ATOM     27  C   UNL     1       0.740  -2.714  -1.263  0.00  0.00    +0.106 A 
ATOM     28 CL   UNL     1      -1.224  -4.977  -4.622  0.00  0.00    -0.084 Cl
ENDBRANCH  19  27
ENDBRANCH   1  19
TORSDOF 4
