REMARK  Name = ZINC15740516
REMARK  11 active torsions:
REMARK  status: ('A' for Active; 'I' for Inactive)
REMARK    1  A    between atoms: C_1  and  C_2
REMARK    2  A    between atoms: C_2  and  N_3
REMARK    3  A    between atoms: N_3  and  C_4
REMARK    4  A    between atoms: N_3  and  S_6
REMARK    5  A    between atoms: C_4  and  C_5
REMARK    6  A    between atoms: S_6  and  C_9
REMARK    7  A    between atoms: C_12  and  C_15
REMARK    8  A    between atoms: C_15  and  C_17
REMARK    9  A    between atoms: C_15  and  N_18
REMARK   10  A    between atoms: C_19  and  C_21
REMARK   11  A    between atoms: C_21  and  C_22
REMARK                            x       y       z     vdW  Elec       q    Type
REMARK                         _______ _______ _______ _____ _____    ______ ____
ROOT
ATOM      1  N   UNL     1       2.424  -3.593   1.620  0.00  0.00    -0.308 N 
ATOM      2  C   UNL     1       2.003  -2.335   1.386  0.00  0.00    +0.218 C 
ATOM      3  O   UNL     1       1.851  -1.564   2.309  0.00  0.00    -0.275 OA
ATOM      4  H   UNL     1       2.546  -4.210   0.881  0.00  0.00    +0.149 HD
ENDROOT
BRANCH   1   5
ATOM      5  C   UNL     1       2.699  -4.030   2.991  0.00  0.00    +0.100 C 
ATOM      6  C   UNL     1       4.127  -3.636   3.375  0.00  0.00    +0.033 C 
BRANCH   5  10
ATOM      7  C   UNL     1       2.274  -8.273   3.247  0.00  0.00    +0.105 A 
ATOM      8  C   UNL     1       1.814  -7.469   4.273  0.00  0.00    +0.029 A 
ATOM      9  C   UNL     1       1.952  -6.096   4.190  0.00  0.00    +0.007 A 
ATOM     10  C   UNL     1       2.550  -5.527   3.082  0.00  0.00    -0.027 A 
ATOM     11  C   UNL     1       3.005  -6.330   2.053  0.00  0.00    +0.007 A 
ATOM     12  C   UNL     1       2.872  -7.703   2.138  0.00  0.00    +0.029 A 
BRANCH   7  13
ATOM     13  S   UNL     1       2.098 -10.023   3.352  0.00  0.00    +0.061 S 
ATOM     14  O   UNL     1       3.099 -10.583   2.513  0.00  0.00    -0.153 OA
ATOM     15  O   UNL     1       1.998 -10.339   4.733  0.00  0.00    -0.153 OA
BRANCH  13  16
ATOM     16  N   UNL     1       0.639 -10.410   2.670  0.00  0.00    -0.177 NA
BRANCH  16  18
ATOM     17  C   UNL     1       0.643 -12.217   1.023  0.00  0.00    +0.022 C 
ATOM     18  C   UNL     1       0.554 -10.705   1.238  0.00  0.00    +0.106 C 
ENDBRANCH  16  18
BRANCH  16  19
ATOM     19  C   UNL     1      -0.568 -10.456   3.500  0.00  0.00    +0.106 C 
ATOM     20  C   UNL     1      -1.297  -9.114   3.416  0.00  0.00    +0.022 C 
ENDBRANCH  16  19
ENDBRANCH  13  16
ENDBRANCH   7  13
ENDBRANCH   5  10
ENDBRANCH   1   5
BRANCH   2  21
ATOM     21  C   UNL     1       1.720  -1.886  -0.025  0.00  0.00    +0.134 C 
BRANCH  21  22
ATOM     22  C   UNL     1       1.266  -0.449  -0.013  0.00  0.00    +0.007 A 
ATOM     23  C   UNL     1       0.002  -0.004   0.002  0.00  0.00    +0.200 A 
ATOM     24  O   UNL     1      -0.016   1.340   0.009  0.00  0.00    -0.463 OA
ATOM     25  C   UNL     1       1.237   1.838   0.000  0.00  0.00    +0.135 A 
ATOM     26  C   UNL     1       2.120   0.745  -0.015  0.00  0.00    +0.024 A 
ATOM     27  C   UNL     1       3.496   0.960  -0.028  0.00  0.00    +0.015 A 
ATOM     28  C   UNL     1       3.990   2.249  -0.025  0.00  0.00    -0.043 A 
ATOM     29  C   UNL     1       3.119   3.329  -0.009  0.00  0.00    -0.041 A 
ATOM     30  C   UNL     1       1.752   3.126   0.003  0.00  0.00    +0.050 A 
ATOM     31  C   UNL     1       3.912   4.620  -0.009  0.00  0.00    +0.036 C 
ATOM     32  C   UNL     1       5.330   4.224  -0.469  0.00  0.00    +0.009 C 
ATOM     33  C   UNL     1       5.420   2.745  -0.037  0.00  0.00    +0.036 C 
ENDBRANCH  21  22
ENDBRANCH   2  21
TORSDOF 8
