REMARK  Name = ZINC14551064
REMARK  6 active torsions:
REMARK  status: ('A' for Active; 'I' for Inactive)
REMARK    1  A    between atoms: C_1  and  C_2
REMARK    2  A    between atoms: C_2  and  C_3
REMARK    3  A    between atoms: C_3  and  C_4
REMARK    4  A    between atoms: N_6  and  C_7
REMARK    5  A    between atoms: C_20  and  C_23
REMARK    6  A    between atoms: C_26  and  N_29
REMARK                            x       y       z     vdW  Elec       q    Type
REMARK                         _______ _______ _______ _____ _____    ______ ____
ROOT
ATOM      1  C   UNL     1      -6.495   5.096  -0.028  0.00  0.00    +0.039 A 
ATOM      2  C   UNL     1      -7.280   4.923   1.101  0.00  0.00    +0.025 A 
ATOM      3  C   UNL     1      -6.807   4.175   2.162  0.00  0.00    +0.023 A 
ATOM      4  C   UNL     1      -5.554   3.599   2.092  0.00  0.00    +0.062 A 
ATOM      5  C   UNL     1      -4.760   3.768   0.957  0.00  0.00    +0.052 A 
ATOM      6  C   UNL     1      -5.228   4.519  -0.105  0.00  0.00    +0.003 A 
ATOM      7  C   UNL     1      -4.424   4.750  -1.351  0.00  0.00    +0.050 C 
ATOM      8  C   UNL     1      -3.924   6.175  -1.406  0.00  0.00    -0.023 C 
ATOM      9  C   UNL     1      -2.703   6.214  -1.878  0.00  0.00    -0.030 C 
ATOM     10  C   UNL     1      -2.217   4.817  -2.213  0.00  0.00    +0.033 C 
ATOM     11  C   UNL     1      -3.136   3.898  -1.360  0.00  0.00    +0.029 C 
ATOM     12  C   UNL     1      -2.564   3.851   0.059  0.00  0.00    +0.105 C 
ATOM     13  N   UNL     1      -3.504   3.160   0.941  0.00  0.00    -0.335 N 
ATOM     14 CL   UNL     1      -4.963   2.659   3.426  0.00  0.00    -0.082 Cl
ATOM     15  H   UNL     1      -3.130   3.078   1.875  0.00  0.00    +0.147 HD
ENDROOT
BRANCH  12  16
ATOM     16  C   UNL     1      -1.251   3.112   0.046  0.00  0.00    -0.027 A 
ATOM     17  C   UNL     1      -1.235   1.730   0.026  0.00  0.00    +0.008 A 
ATOM     18  C   UNL     1      -0.031   1.052   0.019  0.00  0.00    +0.033 A 
ATOM     19  C   UNL     1       1.159   1.757   0.022  0.00  0.00    +0.126 A 
ATOM     20  C   UNL     1       1.143   3.139   0.038  0.00  0.00    +0.033 A 
ATOM     21  C   UNL     1      -0.061   3.817   0.050  0.00  0.00    +0.008 A 
BRANCH  19  22
ATOM     22  N   UNL     1       2.449   1.031   0.009  0.00  0.00    +0.056 N 
ATOM     23  O   UNL     1       2.462  -0.187  -0.004  0.00  0.00    -0.126 OA
ATOM     24  O   UNL     1       3.497   1.652   0.012  0.00  0.00    -0.126 OA
ENDBRANCH  19  22
ENDBRANCH  12  16
BRANCH   1  27
ATOM     25  C   UNL     1      -7.914   6.802  -0.888  0.00  0.00    +0.217 C 
ATOM     26  O   UNL     1      -8.264   7.065   0.243  0.00  0.00    -0.275 OA
ATOM     27  N   UNL     1      -6.979   5.855  -1.100  0.00  0.00    -0.285 N 
ATOM     28  H   UNL     1      -6.641   5.700  -1.996  0.00  0.00    +0.155 HD
BRANCH  25  29
ATOM     29  C   UNL     1      -8.525   7.533  -2.055  0.00  0.00    +0.096 C 
BRANCH  29  31
ATOM     30  C   UNL     1     -10.171   9.288  -2.728  0.00  0.00    +0.004 C 
ATOM     31  C   UNL     1      -9.550   8.546  -1.543  0.00  0.00    +0.006 C 
ENDBRANCH  29  31
ENDBRANCH  25  29
ENDBRANCH   1  27
TORSDOF 5
