REMARK  Name = ZINC09850985
REMARK  9 active torsions:
REMARK  status: ('A' for Active; 'I' for Inactive)
REMARK    1  A    between atoms: C_1  and  C_2
REMARK    2  A    between atoms: C_2  and  N_3
REMARK    3  A    between atoms: C_6  and  C_20
REMARK    4  A    between atoms: N_10  and  C_11
REMARK    5  A    between atoms: C_14  and  O_18
REMARK    6  A    between atoms: C_20  and  C_21
REMARK    7  A    between atoms: N_23  and  C_24
REMARK    8  A    between atoms: C_29  and  O_30
REMARK    9  A    between atoms: O_30  and  C_31
REMARK                            x       y       z     vdW  Elec       q    Type
REMARK                         _______ _______ _______ _____ _____    ______ ____
ROOT
ATOM      1  N   UNL     1      -0.013  -0.012  -0.029  0.00  0.00    -0.250 N 
ATOM      2  C   UNL     1       0.007  -0.647   1.130  0.00  0.00    +0.235 C 
ATOM      3  O   UNL     1       0.005  -0.057   2.189  0.00  0.00    -0.274 OA
ATOM      4  C   UNL     1       0.032  -2.165   1.052  0.00  0.00    +0.149 C 
ATOM      5  S   UNL     1       0.022  -2.403  -0.769  0.00  0.00    -0.077 S 
ATOM      6  C   UNL     1      -0.017  -0.679  -1.237  0.00  0.00    +0.164 C 
ATOM      7  N   UNL     1      -0.041  -0.168  -2.445  0.00  0.00    -0.226 NA
ENDROOT
BRANCH   7   8
ATOM      8  C   UNL     1      -0.040  -0.994  -3.538  0.00  0.00    +0.069 A 
ATOM      9  C   UNL     1       0.837  -2.079  -3.596  0.00  0.00    +0.051 A 
ATOM     10  C   UNL     1       0.831  -2.912  -4.697  0.00  0.00    +0.086 A 
ATOM     11  C   UNL     1      -0.039  -2.665  -5.751  0.00  0.00    +0.153 A 
ATOM     12  C   UNL     1      -0.908  -1.584  -5.701  0.00  0.00    +0.086 A 
ATOM     13  C   UNL     1      -0.912  -0.750  -4.601  0.00  0.00    +0.051 A 
ATOM     14 CL   UNL     1      -1.992  -1.280  -7.023  0.00  0.00    -0.080 Cl
ATOM     15 CL   UNL     1       1.916  -4.265  -4.766  0.00  0.00    -0.080 Cl
BRANCH  11  16
ATOM     16  O   UNL     1      -0.038  -3.485  -6.837  0.00  0.00    -0.504 OA
ATOM     17  H   UNL     1       0.573  -3.213  -7.535  0.00  0.00    +0.292 HD
ENDBRANCH  11  16
ENDBRANCH   7   8
BRANCH   1  19
ATOM     18  C   UNL     1       1.395   1.988  -0.043  0.00  0.00    +0.025 C 
ATOM     19  C   UNL     1      -0.039   1.453  -0.031  0.00  0.00    +0.112 C 
ENDBRANCH   1  19
BRANCH   4  20
ATOM     20  C   UNL     1      -1.214  -2.774   1.699  0.00  0.00    +0.120 C 
BRANCH  20  21
ATOM     21  C   UNL     1      -1.091  -4.276   1.710  0.00  0.00    +0.219 C 
ATOM     22  O   UNL     1      -0.104  -4.807   1.246  0.00  0.00    -0.275 OA
ATOM     23  N   UNL     1      -2.078  -5.029   2.235  0.00  0.00    -0.283 N 
ATOM     24  H   UNL     1      -2.829  -4.604   2.677  0.00  0.00    +0.155 HD
BRANCH  23  25
ATOM     25  C   UNL     1      -2.018  -6.426   2.142  0.00  0.00    +0.076 A 
ATOM     26  C   UNL     1      -1.288  -7.025   1.125  0.00  0.00    +0.027 A 
ATOM     27  C   UNL     1      -1.227  -8.403   1.039  0.00  0.00    +0.002 A 
ATOM     28  C   UNL     1      -1.900  -9.187   1.957  0.00  0.00    +0.004 A 
ATOM     29  C   UNL     1      -2.635  -8.598   2.969  0.00  0.00    +0.047 A 
ATOM     30  C   UNL     1      -2.697  -7.217   3.066  0.00  0.00    +0.141 A 
BRANCH  30  31
ATOM     31  O   UNL     1      -3.418  -6.636   4.061  0.00  0.00    -0.493 OA
ATOM     32  C   UNL     1      -4.088  -7.509   4.973  0.00  0.00    +0.277 C 
ENDBRANCH  30  31
ENDBRANCH  23  25
ENDBRANCH  20  21
ENDBRANCH   4  20
TORSDOF 7
