REMARK  Name = ZINC19868825
REMARK  2 active torsions:
REMARK  status: ('A' for Active; 'I' for Inactive)
REMARK    1  A    between atoms: C_2  and  N_16
REMARK    2  A    between atoms: C_3  and  N_11
REMARK                            x       y       z     vdW  Elec       q    Type
REMARK                         _______ _______ _______ _____ _____    ______ ____
ROOT
ATOM      1  C   UNL     1       1.498  -4.050   0.308  0.00  0.00    +0.074 A 
ATOM      2  C   UNL     1       0.977  -2.784   0.089  0.00  0.00    +0.054 A 
ATOM      3  C   UNL     1       1.825  -1.734  -0.260  0.00  0.00    +0.091 A 
ATOM      4  C   UNL     1       3.188  -1.957  -0.378  0.00  0.00    +0.079 A 
ATOM      5  C   UNL     1       3.709  -3.222  -0.154  0.00  0.00    +0.164 A 
ATOM      6  C   UNL     1       2.863  -4.270   0.191  0.00  0.00    +0.164 A 
ATOM      7  O   UNL     1       3.358  -5.518   0.418  0.00  0.00    -0.485 OA
ATOM      8  C   UNL     1       4.675  -5.788  -0.073  0.00  0.00    +0.270 C 
ATOM      9  C   UNL     1       5.582  -4.612   0.315  0.00  0.00    +0.270 C 
ATOM     10  O   UNL     1       5.051  -3.422  -0.278  0.00  0.00    -0.485 OA
ENDROOT
BRANCH   3  11
ATOM     11  N   UNL     1       1.300  -0.452  -0.486  0.00  0.00    -0.218 N 
ATOM     12  C   UNL     1       1.764   0.710   0.012  0.00  0.00    +0.225 A 
ATOM     13  N   UNL     1       1.000   1.676  -0.433  0.00  0.00    -0.222 NA
ATOM     14  C   UNL     1       0.044   1.173  -1.212  0.00  0.00    +0.245 A 
ATOM     15  N   UNL     1       0.185  -0.126  -1.275  0.00  0.00    -0.153 NA
ENDBRANCH   3  11
BRANCH   2  16
ATOM     16  N   UNL     1      -0.400  -2.561   0.213  0.00  0.00    -0.356 N 
ATOM     17  H   UNL     1      -0.813  -1.557   0.040  0.00  0.00    +0.142 HD
ATOM     18  H   UNL     1      -1.069  -3.391   0.485  0.00  0.00    +0.142 HD
ENDBRANCH   2  16
TORSDOF 2
