REMARK  Name = ZINC35037971
REMARK  12 active torsions:
REMARK  status: ('A' for Active; 'I' for Inactive)
REMARK    1  A    between atoms: C_1  and  C_2
REMARK    2  A    between atoms: C_2  and  C_3
REMARK    3  A    between atoms: C_3  and  C_5
REMARK    4  A    between atoms: C_3  and  N_23
REMARK    5  A    between atoms: N_15  and  C_16
REMARK    6  A    between atoms: N_23  and  C_24
REMARK    7  A    between atoms: C_24  and  C_25
REMARK    8  A    between atoms: C_25  and  N_26
REMARK    9  A    between atoms: N_26  and  C_27
REMARK   10  A    between atoms: N_26  and  C_28
REMARK   11  A    between atoms: C_29  and  C_31
REMARK   12  A    between atoms: C_36  and  C_37
REMARK                            x       y       z     vdW  Elec       q    Type
REMARK                         _______ _______ _______ _____ _____    ______ ____
ROOT
ATOM      1  C   UNL     1       1.421  -1.105  -1.228  0.00  0.00    +0.143 C 
ENDROOT
BRANCH   1   2
ATOM      2  C   UNL     1       1.805  -2.560  -1.157  0.00  0.00    +0.138 A 
ATOM      3  N   UNL     1       0.870  -3.435  -0.943  0.00  0.00    -0.231 NA
ATOM      4  C   UNL     1       1.141  -4.762  -0.867  0.00  0.00    +0.078 A 
ATOM      5  C   UNL     1       0.135  -5.703  -0.637  0.00  0.00    +0.028 A 
ATOM      6  C   UNL     1       0.455  -7.040  -0.568  0.00  0.00    +0.002 A 
ATOM      7  C   UNL     1       1.768  -7.467  -0.724  0.00  0.00    +0.001 A 
ATOM      8  C   UNL     1       2.778  -6.558  -0.951  0.00  0.00    +0.015 A 
ATOM      9  C   UNL     1       2.475  -5.199  -1.025  0.00  0.00    +0.065 A 
ATOM     10  C   UNL     1       3.510  -4.184  -1.266  0.00  0.00    +0.266 A 
ATOM     11  O   UNL     1       4.678  -4.495  -1.411  0.00  0.00    -0.267 OA
ATOM     12  N   UNL     1       3.114  -2.892  -1.326  0.00  0.00    -0.263 N 
BRANCH  12  13
ATOM     13  C   UNL     1       4.060  -1.885  -1.559  0.00  0.00    +0.051 A 
ATOM     14  C   UNL     1       4.427  -1.024  -0.533  0.00  0.00    +0.028 A 
ATOM     15  C   UNL     1       5.360  -0.033  -0.765  0.00  0.00    +0.022 A 
ATOM     16  C   UNL     1       5.929   0.103  -2.018  0.00  0.00    +0.041 A 
ATOM     17  C   UNL     1       5.566  -0.753  -3.043  0.00  0.00    +0.022 A 
ATOM     18  C   UNL     1       4.638  -1.750  -2.814  0.00  0.00    +0.028 A 
ATOM     19 CL   UNL     1       7.102   1.351  -2.307  0.00  0.00    -0.084 Cl
ENDBRANCH  12  13
ENDBRANCH   1   2
BRANCH   1  20
ATOM     20  N   UNL     1       0.584  -0.878  -2.409  0.00  0.00    -0.289 N 
ATOM     21  C   UNL     1       0.986  -0.016  -3.364  0.00  0.00    +0.247 C 
ATOM     22  O   UNL     1       2.081   0.507  -3.289  0.00  0.00    -0.270 OA
BRANCH  21  23
ATOM     23  C   UNL     1       0.095   0.294  -4.502  0.00  0.00    +0.040 A 
ATOM     24  C   UNL     1      -0.345  -0.727  -5.346  0.00  0.00    +0.013 A 
ATOM     25  C   UNL     1      -1.177  -0.432  -6.406  0.00  0.00    +0.001 A 
ATOM     26  C   UNL     1      -1.574   0.874  -6.635  0.00  0.00    +0.000 A 
ATOM     27  C   UNL     1      -1.141   1.891  -5.802  0.00  0.00    +0.004 A 
ATOM     28  C   UNL     1      -0.314   1.608  -4.735  0.00  0.00    -0.038 A 
ATOM     29  C   UNL     1       0.152   2.716  -3.826  0.00  0.00    +0.044 C 
ENDBRANCH  21  23
BRANCH  20  30
ATOM     30  C   UNL     1      -0.689  -1.588  -2.552  0.00  0.00    +0.090 C 
BRANCH  30  31
ATOM     31  C   UNL     1      -1.829  -0.695  -2.057  0.00  0.00    -0.060 C 
BRANCH  31  32
ATOM     32  N   UNL     1      -3.106  -1.407  -2.200  0.00  0.00    +0.377 N 
ATOM     33  C   UNL     1      -3.116  -2.578  -1.313  0.00  0.00    -0.097 C 
ATOM     34  C   UNL     1      -4.211  -0.508  -1.837  0.00  0.00    -0.097 C 
ATOM     35  H   UNL     1      -3.218  -1.708  -3.156  0.00  0.00    -0.083 HD
ENDBRANCH  31  32
ENDBRANCH  30  31
ENDBRANCH  20  30
ENDBRANCH   1  20
BRANCH   1  37
ATOM     36  C   UNL     1       0.357   0.782   0.017  0.00  0.00    +0.006 C 
ATOM     37  C   UNL     1       0.641  -0.721   0.031  0.00  0.00    +0.027 C 
ENDBRANCH   1  37
TORSDOF 8
