REMARK  Name = ZINC39609243
REMARK  10 active torsions:
REMARK  status: ('A' for Active; 'I' for Inactive)
REMARK    1  A    between atoms: C_1  and  C_2
REMARK    2  A    between atoms: C_5  and  C_9
REMARK    3  A    between atoms: C_7  and  C_8
REMARK    4  A    between atoms: C_9  and  C_10
REMARK    5  A    between atoms: C_10  and  N_11
REMARK    6  A    between atoms: C_12  and  C_14
REMARK    7  A    between atoms: C_25  and  C_27
REMARK    8  A    between atoms: C_27  and  C_29
REMARK    9  A    between atoms: C_27  and  O_30
REMARK   10  A    between atoms: O_30  and  C_31
REMARK                            x       y       z     vdW  Elec       q    Type
REMARK                         _______ _______ _______ _____ _____    ______ ____
ROOT
ATOM      1  C   UNL     1       2.683  -8.400  -0.060  0.00  0.00    +0.100 C 
ATOM      2  C   UNL     1       1.925  -8.931  -1.297  0.00  0.00    +0.121 C 
ATOM      3  N   UNL     1       2.981  -9.158  -2.313  0.00  0.00    -0.297 N 
ATOM      4  C   UNL     1       4.119  -9.715  -1.544  0.00  0.00    +0.115 C 
ATOM      5  C   UNL     1       4.121  -8.920  -0.224  0.00  0.00    -0.004 C 
ATOM      6  C   UNL     1       4.489  -9.832   0.942  0.00  0.00    -0.010 C 
ATOM      7  C   UNL     1       5.942 -10.289   0.787  0.00  0.00    -0.082 C 
ATOM      8  N   UNL     1       6.826  -9.117   0.759  0.00  0.00    +0.379 N 
ATOM      9  C   UNL     1       6.527  -8.293  -0.417  0.00  0.00    -0.082 C 
ATOM     10  C   UNL     1       5.098  -7.751  -0.314  0.00  0.00    -0.010 C 
ATOM     11  C   UNL     1       2.919  -8.912  -3.637  0.00  0.00    +0.256 C 
ATOM     12  O   UNL     1       1.945  -8.363  -4.107  0.00  0.00    -0.272 OA
ATOM     13  H   UNL     1       6.684  -8.571   1.596  0.00  0.00    -0.086 HD
ATOM     14  H   UNL     1       7.787  -9.423   0.719  0.00  0.00    -0.086 HD
ENDROOT
BRANCH   1  16
ATOM     15  N   UNL     1       2.695  -6.232   1.132  0.00  0.00    -0.315 N 
ATOM     16  C   UNL     1       2.668  -6.893  -0.042  0.00  0.00    +0.218 C 
ATOM     17  O   UNL     1       2.632  -6.275  -1.085  0.00  0.00    -0.275 OA
ATOM     18  H   UNL     1       2.724  -6.727   1.966  0.00  0.00    +0.149 HD
BRANCH  15  19
ATOM     19  C   UNL     1       2.681  -4.768   1.149  0.00  0.00    +0.109 C 
BRANCH  19  20
ATOM     20  C   UNL     1       2.718  -4.274   2.596  0.00  0.00    +0.054 C 
BRANCH  20  25
ATOM     21  C   UNL     1       2.662   1.504   2.666  0.00  0.00    +0.044 C 
ATOM     22  C   UNL     1       2.676  -0.003   2.648  0.00  0.00    -0.048 A 
ATOM     23  C   UNL     1       1.486  -0.706   2.673  0.00  0.00    +0.004 A 
ATOM     24  C   UNL     1       1.500  -2.088   2.656  0.00  0.00    +0.004 A 
ATOM     25  C   UNL     1       2.703  -2.767   2.614  0.00  0.00    -0.046 A 
ATOM     26  C   UNL     1       3.893  -2.064   2.588  0.00  0.00    +0.007 A 
ATOM     27  C   UNL     1       3.879  -0.681   2.600  0.00  0.00    -0.047 A 
ATOM     28  C   UNL     1       5.176   0.085   2.567  0.00  0.00    +0.044 C 
ENDBRANCH  20  25
ENDBRANCH  19  20
ENDBRANCH  15  19
ENDBRANCH   1  16
BRANCH  11  29
ATOM     29  C   UNL     1       4.059  -9.322  -4.533  0.00  0.00    +0.256 C 
ATOM     30  C   UNL     1       4.121 -10.848  -4.615  0.00  0.00    +0.062 C 
BRANCH  29  31
ATOM     31  O   UNL     1       3.855  -8.782  -5.840  0.00  0.00    -0.480 OA
BRANCH  31  32
ATOM     32  C   UNL     1       4.960  -8.591  -6.609  0.00  0.00    +0.122 A 
ATOM     33  C   UNL     1       4.850  -7.958  -7.838  0.00  0.00    +0.045 A 
ATOM     34  C   UNL     1       5.975  -7.765  -8.617  0.00  0.00    +0.004 A 
ATOM     35  C   UNL     1       7.209  -8.203  -8.172  0.00  0.00    +0.000 A 
ATOM     36  C   UNL     1       7.320  -8.835  -6.947  0.00  0.00    +0.004 A 
ATOM     37  C   UNL     1       6.200  -9.025  -6.162  0.00  0.00    +0.045 A 
ENDBRANCH  31  32
ENDBRANCH  29  31
ENDBRANCH  11  29
TORSDOF 7
