REMARK  Name = ZINC36584725
REMARK  18 active torsions:
REMARK  status: ('A' for Active; 'I' for Inactive)
REMARK    1  A    between atoms: C_1  and  C_2
REMARK    2  A    between atoms: C_5  and  C_9
REMARK    3  A    between atoms: C_6  and  C_8
REMARK    4  A    between atoms: C_9  and  C_11
REMARK    5  A    between atoms: C_9  and  N_22
REMARK    6  A    between atoms: N_13  and  C_14
REMARK    7  A    between atoms: C_14  and  C_15
REMARK    8  A    between atoms: C_14  and  C_16
REMARK    9  A    between atoms: C_14  and  C_17
REMARK   10  A    between atoms: C_17  and  C_18
REMARK   11  A    between atoms: C_18  and  C_19
REMARK   12  A    between atoms: C_18  and  C_20
REMARK   13  A    between atoms: C_18  and  C_21
REMARK   14  A    between atoms: N_22  and  C_30
REMARK   15  A    between atoms: C_23  and  C_25
REMARK   16  A    between atoms: C_30  and  C_31
REMARK   17  A    between atoms: C_30  and  C_32
REMARK   18  A    between atoms: C_30  and  C_33
REMARK                            x       y       z     vdW  Elec       q    Type
REMARK                         _______ _______ _______ _____ _____    ______ ____
ROOT
ATOM      1  C   UNL     1      -0.218  -6.037   0.320  0.00  0.00    +0.193 C 
ENDROOT
BRANCH   1   6
ATOM      2  C   UNL     1       3.633  -2.586  -2.259  0.00  0.00    +0.044 C 
ATOM      3  C   UNL     1       2.629  -3.486  -1.586  0.00  0.00    -0.050 A 
ATOM      4  C   UNL     1       1.281  -3.183  -1.644  0.00  0.00    +0.004 A 
ATOM      5  C   UNL     1       0.360  -4.008  -1.027  0.00  0.00    +0.006 A 
ATOM      6  C   UNL     1       0.786  -5.138  -0.353  0.00  0.00    -0.015 A 
ATOM      7  C   UNL     1       2.133  -5.441  -0.296  0.00  0.00    -0.045 A 
ATOM      8  C   UNL     1       3.054  -4.618  -0.917  0.00  0.00    +0.007 A 
ATOM      9  C   UNL     1       2.598  -6.672   0.439  0.00  0.00    +0.044 C 
ENDBRANCH   1   6
BRANCH   1  10
ATOM     10  C   UNL     1      -1.504  -5.282   0.536  0.00  0.00    +0.239 C 
ATOM     11  O   UNL     1      -2.543  -5.712   0.084  0.00  0.00    -0.273 OA
ATOM     12  N   UNL     1      -1.498  -4.128   1.233  0.00  0.00    -0.308 N 
ATOM     13  H   UNL     1      -0.658  -3.743   1.526  0.00  0.00    +0.149 HD
BRANCH  12  14
ATOM     14  C   UNL     1      -2.762  -3.456   1.547  0.00  0.00    +0.030 C 
ATOM     15  C   UNL     1      -3.376  -2.898   0.262  0.00  0.00    +0.031 C 
ATOM     16  C   UNL     1      -3.728  -4.459   2.181  0.00  0.00    +0.031 C 
BRANCH  14  17
ATOM     17  C   UNL     1      -2.500  -2.311   2.527  0.00  0.00    +0.031 C 
BRANCH  17  18
ATOM     18  C   UNL     1      -1.425  -2.733   3.530  0.00  0.00    -0.036 C 
ATOM     19  C   UNL     1      -0.044  -2.370   2.981  0.00  0.00    +0.010 C 
ATOM     20  C   UNL     1      -1.653  -2.006   4.857  0.00  0.00    +0.010 C 
ATOM     21  C   UNL     1      -1.504  -4.244   3.756  0.00  0.00    +0.010 C 
ENDBRANCH  17  18
ENDBRANCH  14  17
ENDBRANCH  12  14
ENDBRANCH   1  10
BRANCH   1  22
ATOM     22  N   UNL     1      -0.474  -7.204  -0.528  0.00  0.00    -0.274 N 
ATOM     23  C   UNL     1      -0.028  -7.224  -1.800  0.00  0.00    +0.283 C 
ATOM     24  O   UNL     1       0.674  -6.319  -2.212  0.00  0.00    -0.267 OA
BRANCH  23  25
ATOM     25  C   UNL     1      -0.388  -8.336  -2.686  0.00  0.00    +0.189 A 
ATOM     26  C   UNL     1      -0.108  -8.422  -4.019  0.00  0.00    +0.054 A 
ATOM     27  C   UNL     1      -0.632  -9.645  -4.464  0.00  0.00    +0.042 A 
ATOM     28  C   UNL     1      -1.202 -10.245  -3.396  0.00  0.00    +0.196 A 
ATOM     29  O   UNL     1      -1.048  -9.455  -2.325  0.00  0.00    -0.458 OA
ENDBRANCH  23  25
BRANCH  22  30
ATOM     30  C   UNL     1      -1.215  -8.350   0.006  0.00  0.00    +0.030 C 
ATOM     31  C   UNL     1      -1.477  -8.136   1.498  0.00  0.00    +0.031 C 
ATOM     32  C   UNL     1      -2.548  -8.484  -0.732  0.00  0.00    +0.031 C 
ATOM     33  C   UNL     1      -0.393  -9.625  -0.190  0.00  0.00    +0.031 C 
ENDBRANCH  22  30
ENDBRANCH   1  22
TORSDOF 8
