REMARK  Name = ZINC12833193
REMARK  10 active torsions:
REMARK  status: ('A' for Active; 'I' for Inactive)
REMARK    1  A    between atoms: C_1  and  C_2
REMARK    2  A    between atoms: C_6  and  C_15
REMARK    3  A    between atoms: C_13  and  C_14
REMARK    4  A    between atoms: C_15  and  N_66
REMARK    5  A    between atoms: C_16  and  C_17
REMARK    6  A    between atoms: C_16  and  N_66
REMARK    7  A    between atoms: C_26  and  C_27
REMARK    8  A    between atoms: C_26  and  N_66
REMARK    9  A    between atoms: N_31  and  C_32
REMARK   10  A    between atoms: C_32  and  C_33
REMARK                            x       y       z     vdW  Elec       q    Type
REMARK                         _______ _______ _______ _____ _____    ______ ____
ROOT
ATOM      1  N   UNL     1       5.927  -1.116   1.122  0.00  0.00    +0.390 N 
ATOM      2  H   UNL     1       5.985  -0.593   0.241  0.00  0.00    -0.080 HD
ENDROOT
BRANCH   1   3
ATOM      3  C   UNL     1       5.621  -2.530   0.822  0.00  0.00    -0.036 C 
BRANCH   3   9
ATOM      4  C   UNL     1      11.733  -5.973  -1.709  0.00  0.00    +0.044 C 
ATOM      5  C   UNL     1      10.457  -5.209  -1.956  0.00  0.00    -0.047 A 
ATOM      6  C   UNL     1       9.686  -4.819  -0.897  0.00  0.00    +0.013 A 
ATOM      7  C   UNL     1       8.502  -4.111  -1.126  0.00  0.00    -0.001 A 
ATOM      8  C   UNL     1       7.655  -3.672  -0.015  0.00  0.00    +0.017 A 
ATOM      9  C   UNL     1       6.517  -2.992  -0.298  0.00  0.00    +0.001 A 
ATOM     10  C   UNL     1       6.171  -2.710  -1.637  0.00  0.00    +0.251 A 
ATOM     11  O   UNL     1       5.146  -2.093  -1.869  0.00  0.00    -0.268 OA
ATOM     12  N   UNL     1       6.945  -3.104  -2.664  0.00  0.00    -0.322 N 
ATOM     13  H   UNL     1       6.678  -2.894  -3.572  0.00  0.00    +0.169 HD
ATOM     14  C   UNL     1       8.113  -3.804  -2.444  0.00  0.00    +0.049 A 
ATOM     15  C   UNL     1       8.914  -4.211  -3.505  0.00  0.00    +0.030 A 
ATOM     16  C   UNL     1      10.077  -4.908  -3.256  0.00  0.00    -0.046 A 
ATOM     17  C   UNL     1      10.944  -5.348  -4.408  0.00  0.00    +0.044 C 
ENDBRANCH   3   9
ENDBRANCH   1   3
BRANCH   1  18
ATOM     18  C   UNL     1       4.854  -0.533   1.956  0.00  0.00    -0.042 C 
BRANCH  18  19
ATOM     19  C   UNL     1       3.593  -0.448   1.136  0.00  0.00    -0.060 A 
ATOM     20  C   UNL     1       2.636  -1.441   1.236  0.00  0.00    +0.005 A 
ATOM     21  C   UNL     1       1.478  -1.368   0.486  0.00  0.00    +0.050 A 
ATOM     22  C   UNL     1       1.272  -0.297  -0.369  0.00  0.00    +0.166 A 
ATOM     23  C   UNL     1       2.235   0.703  -0.470  0.00  0.00    +0.166 A 
ATOM     24  C   UNL     1       3.394   0.623   0.285  0.00  0.00    +0.051 A 
ATOM     25  O   UNL     1       1.803   1.636  -1.368  0.00  0.00    -0.453 OA
ATOM     26  C   UNL     1       0.388   1.407  -1.509  0.00  0.00    +0.466 C 
ATOM     27  O   UNL     1       0.236   0.008  -1.204  0.00  0.00    -0.453 OA
ENDBRANCH  18  19
ENDBRANCH   1  18
BRANCH   1  28
ATOM     28  C   UNL     1       7.223  -1.018   1.825  0.00  0.00    +0.001 C 
BRANCH  28  29
ATOM     29  C   UNL     1       7.615   0.434   1.923  0.00  0.00    +0.135 A 
ATOM     30  N   UNL     1       8.314   1.117   1.049  0.00  0.00    -0.115 NA
ATOM     31  N   UNL     1       8.435   2.321   1.489  0.00  0.00    -0.023 NA
ATOM     32  N   UNL     1       7.838   2.423   2.625  0.00  0.00    -0.044 NA
ATOM     33  N   UNL     1       7.319   1.281   2.927  0.00  0.00    -0.227 N 
BRANCH  33  34
ATOM     34  C   UNL     1       6.553   0.964   4.135  0.00  0.00    +0.182 C 
BRANCH  34  35
ATOM     35  C   UNL     1       7.491   0.486   5.213  0.00  0.00    -0.026 A 
ATOM     36  C   UNL     1       7.781  -0.860   5.330  0.00  0.00    +0.005 A 
ATOM     37  C   UNL     1       8.645  -1.298   6.317  0.00  0.00    +0.000 A 
ATOM     38  C   UNL     1       9.210  -0.391   7.193  0.00  0.00    +0.000 A 
ATOM     39  C   UNL     1       8.917   0.955   7.079  0.00  0.00    +0.000 A 
ATOM     40  C   UNL     1       8.057   1.394   6.089  0.00  0.00    +0.005 A 
ENDBRANCH  34  35
ENDBRANCH  33  34
ENDBRANCH  28  29
ENDBRANCH   1  28
TORSDOF 8
