REMARK  Name = ZINC54032018
REMARK  5 active torsions:
REMARK  status: ('A' for Active; 'I' for Inactive)
REMARK    1  A    between atoms: C_4  and  N_7
REMARK    2  A    between atoms: N_16  and  C_17
REMARK    3  A    between atoms: C_17  and  C_19
REMARK    4  A    between atoms: C_22  and  C_25
REMARK    5  A    between atoms: C_25  and  N_26
REMARK                            x       y       z     vdW  Elec       q    Type
REMARK                         _______ _______ _______ _____ _____    ______ ____
ROOT
ATOM      1  N   UNL     1       3.624  -0.652  -0.038  0.00  0.00    -0.280 N 
ATOM      2  C   UNL     1       3.792  -2.031   0.066  0.00  0.00    +0.073 A 
ATOM      3  C   UNL     1       2.900  -3.087   0.179  0.00  0.00    +0.028 A 
ATOM      4  C   UNL     1       3.373  -4.381   0.266  0.00  0.00    +0.002 A 
ATOM      5  C   UNL     1       4.736  -4.630   0.242  0.00  0.00    +0.002 A 
ATOM      6  C   UNL     1       5.632  -3.586   0.129  0.00  0.00    +0.028 A 
ATOM      7  C   UNL     1       5.166  -2.281   0.041  0.00  0.00    +0.066 A 
ATOM      8  N   UNL     1       5.806  -1.052  -0.078  0.00  0.00    -0.325 N 
ATOM      9  C   UNL     1       4.856  -0.079  -0.130  0.00  0.00    +0.206 A 
ATOM     10  N   UNL     1       5.093   1.222  -0.248  0.00  0.00    -0.142 NA
ATOM     11  H   UNL     1       6.765  -0.912  -0.120  0.00  0.00    +0.169 HD
ENDROOT
BRANCH   1  15
ATOM     12  C   UNL     1      -0.020   1.368  -0.078  0.00  0.00    +0.000 A 
ATOM     13  C   UNL     1       0.290   0.526   0.974  0.00  0.00    +0.002 A 
ATOM     14  C   UNL     1       1.497  -0.145   0.990  0.00  0.00    +0.026 A 
ATOM     15  C   UNL     1       2.399   0.026  -0.052  0.00  0.00    +0.050 A 
ATOM     16  C   UNL     1       2.084   0.873  -1.107  0.00  0.00    +0.026 A 
ATOM     17  C   UNL     1       0.876   1.541  -1.117  0.00  0.00    +0.002 A 
ENDBRANCH   1  15
BRANCH  10  18
ATOM     18  C   UNL     1       6.341   1.660  -0.446  0.00  0.00    +0.270 C 
ATOM     19  O   UNL     1       7.245   0.863  -0.621  0.00  0.00    -0.268 OA
BRANCH  18  20
ATOM     20  C   UNL     1       6.624   3.114  -0.454  0.00  0.00    +0.039 A 
ATOM     21  C   UNL     1       5.591   4.029  -0.248  0.00  0.00    +0.013 A 
ATOM     22  C   UNL     1       5.861   5.382  -0.256  0.00  0.00    +0.006 A 
ATOM     23  C   UNL     1       7.152   5.832  -0.467  0.00  0.00    -0.030 A 
ATOM     24  C   UNL     1       8.180   4.929  -0.671  0.00  0.00    +0.006 A 
ATOM     25  C   UNL     1       7.924   3.573  -0.660  0.00  0.00    +0.013 A 
BRANCH  23  26
ATOM     26  C   UNL     1       7.439   7.311  -0.475  0.00  0.00    +0.141 C 
BRANCH  26  27
ATOM     27  N   UNL     1       7.769   7.752   0.883  0.00  0.00    -0.295 N 
ATOM     28  C   UNL     1       8.064   9.046   1.119  0.00  0.00    +0.297 C 
ATOM     29  O   UNL     1       8.056   9.847   0.204  0.00  0.00    -0.253 OA
ATOM     30  N   UNL     1       8.367   9.451   2.368  0.00  0.00    -0.313 N 
ATOM     31  H   UNL     1       7.774   7.112   1.612  0.00  0.00    +0.151 HD
ATOM     32  H   UNL     1       8.372   8.812   3.097  0.00  0.00    +0.146 HD
ATOM     33  H   UNL     1       8.579  10.382   2.538  0.00  0.00    +0.146 HD
ENDBRANCH  26  27
ENDBRANCH  23  26
ENDBRANCH  18  20
ENDBRANCH  10  18
TORSDOF 5
