REMARK  Name = ZINC16133971
REMARK  7 active torsions:
REMARK  status: ('A' for Active; 'I' for Inactive)
REMARK    1  A    between atoms: C_3  and  N_21
REMARK    2  A    between atoms: C_4  and  N_18
REMARK    3  A    between atoms: C_6  and  N_7
REMARK    4  A    between atoms: C_8  and  C_9
REMARK    5  A    between atoms: C_14  and  O_15
REMARK    6  A    between atoms: C_22  and  C_23
REMARK    7  A    between atoms: C_28  and  O_29
REMARK                            x       y       z     vdW  Elec       q    Type
REMARK                         _______ _______ _______ _____ _____    ______ ____
ROOT
ATOM      1  C   UNL     1      -0.004   1.377  -0.284  0.00  0.00    +0.030 A 
ATOM      2  C   UNL     1       1.171   2.073  -0.287  0.00  0.00    +0.032 A 
ATOM      3  C   UNL     1       2.375   1.414  -0.018  0.00  0.00    +0.094 A 
ATOM      4  C   UNL     1       2.376   0.041   0.253  0.00  0.00    +0.153 A 
ATOM      5  C   UNL     1       1.201  -0.654   0.256  0.00  0.00    +0.062 A 
ATOM      6  C   UNL     1      -0.003   0.005  -0.013  0.00  0.00    +0.066 A 
ENDROOT
BRANCH   4   7
ATOM      7  N   UNL     1       3.650  -0.657   0.537  0.00  0.00    +0.059 N 
ATOM      8  O   UNL     1       3.650  -1.843   0.771  0.00  0.00    -0.126 OA
ATOM      9  O   UNL     1       4.690  -0.041   0.534  0.00  0.00    -0.126 OA
ENDBRANCH   4   7
BRANCH   6  10
ATOM     10  N   UNL     1      -1.179  -0.691  -0.010  0.00  0.00    -0.255 NA
ATOM     11  C   UNL     1      -2.227  -0.200   0.592  0.00  0.00    +0.123 C 
BRANCH  11  12
ATOM     12  C   UNL     1      -3.491  -0.949   0.596  0.00  0.00    +0.037 A 
ATOM     13  C   UNL     1      -4.619  -0.423   1.235  0.00  0.00    +0.033 A 
ATOM     14  C   UNL     1      -5.802  -1.131   1.234  0.00  0.00    +0.043 A 
ATOM     15  C   UNL     1      -5.880  -2.362   0.603  0.00  0.00    +0.043 A 
ATOM     16  C   UNL     1      -4.773  -2.893  -0.033  0.00  0.00    +0.084 A 
ATOM     17  C   UNL     1      -3.577  -2.192  -0.048  0.00  0.00    +0.144 A 
ATOM     18 CL   UNL     1      -4.884  -4.436  -0.821  0.00  0.00    -0.080 Cl
ATOM     19 CL   UNL     1      -7.201  -0.477   2.029  0.00  0.00    -0.083 Cl
BRANCH  17  20
ATOM     20  O   UNL     1      -2.491  -2.711  -0.677  0.00  0.00    -0.505 OA
ATOM     21  H   UNL     1      -1.935  -3.264  -0.111  0.00  0.00    +0.292 HD
ENDBRANCH  17  20
ENDBRANCH  11  12
ENDBRANCH   6  10
BRANCH   3  22
ATOM     22  N   UNL     1       3.551   2.110  -0.021  0.00  0.00    -0.253 NA
ATOM     23  C   UNL     1       3.644   3.235   0.632  0.00  0.00    +0.123 C 
BRANCH  23  24
ATOM     24  C   UNL     1       4.869   4.042   0.534  0.00  0.00    +0.037 A 
ATOM     25  C   UNL     1       4.976   5.247   1.237  0.00  0.00    +0.033 A 
ATOM     26  C   UNL     1       6.127   5.999   1.141  0.00  0.00    +0.043 A 
ATOM     27  C   UNL     1       7.181   5.567   0.351  0.00  0.00    +0.043 A 
ATOM     28  C   UNL     1       7.088   4.379  -0.349  0.00  0.00    +0.084 A 
ATOM     29  C   UNL     1       5.940   3.606  -0.259  0.00  0.00    +0.144 A 
ATOM     30 CL   UNL     1       8.415   3.849  -1.336  0.00  0.00    -0.080 Cl
ATOM     31 CL   UNL     1       6.258   7.494   2.014  0.00  0.00    -0.083 Cl
BRANCH  29  32
ATOM     32  O   UNL     1       5.851   2.436  -0.942  0.00  0.00    -0.505 OA
ATOM     33  H   UNL     1       5.486   2.527  -1.833  0.00  0.00    +0.292 HD
ENDBRANCH  29  32
ENDBRANCH  23  24
ENDBRANCH   3  22
TORSDOF 7
