REMARK  Name = ZINC16020059
REMARK  6 active torsions:
REMARK  status: ('A' for Active; 'I' for Inactive)
REMARK    1  A    between atoms: C_1  and  C_2
REMARK    2  A    between atoms: C_2  and  C_3
REMARK    3  A    between atoms: C_14  and  C_17
REMARK    4  A    between atoms: C_17  and  C_19
REMARK    5  A    between atoms: C_17  and  O_20
REMARK    6  A    between atoms: N_23  and  C_26
REMARK                            x       y       z     vdW  Elec       q    Type
REMARK                         _______ _______ _______ _____ _____    ______ ____
ROOT
ATOM      1  C   UNL     1       0.753  -0.287  -1.081  0.00  0.00    -0.047 A 
ATOM      2  C   UNL     1      -0.048  -0.560  -2.175  0.00  0.00    +0.005 A 
ATOM      3  C   UNL     1       0.492  -1.126  -3.311  0.00  0.00    +0.024 A 
ATOM      4  C   UNL     1       1.851  -1.428  -3.364  0.00  0.00    +0.039 A 
ATOM      5  C   UNL     1       2.647  -1.150  -2.257  0.00  0.00    +0.004 A 
ATOM      6  C   UNL     1       2.104  -0.580  -1.128  0.00  0.00    +0.011 A 
ATOM      7  C   UNL     1       4.036  -1.586  -2.630  0.00  0.00    +0.136 C 
ATOM      8  C   UNL     1       5.030  -0.421  -2.555  0.00  0.00    +0.123 C 
ATOM      9  C   UNL     1       5.726  -0.590  -1.177  0.00  0.00    +0.109 C 
ATOM     10  C   UNL     1       5.059  -1.828  -0.543  0.00  0.00    +0.096 C 
ATOM     11  N   UNL     1       4.547  -2.615  -1.705  0.00  0.00    -0.293 NA
ATOM     12  C   UNL     1       7.157  -0.908  -1.545  0.00  0.00    +0.228 C 
ATOM     13  O   UNL     1       8.052  -1.128  -0.756  0.00  0.00    -0.275 OA
ATOM     14  N   UNL     1       7.284  -0.911  -2.877  0.00  0.00    -0.238 N 
ATOM     15  C   UNL     1       6.144  -0.639  -3.554  0.00  0.00    +0.228 C 
ATOM     16  O   UNL     1       6.027  -0.580  -4.759  0.00  0.00    -0.275 OA
ATOM     17  C   UNL     1       3.915  -2.119  -4.032  0.00  0.00    +0.243 C 
ATOM     18  O   UNL     1       4.810  -2.573  -4.713  0.00  0.00    -0.273 OA
ATOM     19  N   UNL     1       2.621  -1.994  -4.383  0.00  0.00    -0.283 N 
ATOM     20  H   UNL     1       3.810  -3.240  -1.417  0.00  0.00    +0.124 HD
ATOM     21  H   UNL     1       2.265  -2.266  -5.243  0.00  0.00    +0.155 HD
ENDROOT
BRANCH  14  22
ATOM     22  C   UNL     1       8.555  -1.182  -3.551  0.00  0.00    +0.084 C 
ATOM     23  C   UNL     1       9.003  -2.619  -3.216  0.00  0.00    +0.023 C 
ATOM     24  C   UNL     1       9.983  -3.072  -4.264  0.00  0.00    +0.002 C 
ATOM     25  C   UNL     1      11.446  -2.825  -3.850  0.00  0.00    +0.000 C 
ATOM     26  C   UNL     1      11.652  -1.458  -3.170  0.00  0.00    +0.000 C 
ATOM     27  C   UNL     1      10.887  -0.355  -3.851  0.00  0.00    +0.002 C 
ATOM     28  C   UNL     1       9.531  -0.185  -3.135  0.00  0.00    +0.023 C 
ENDBRANCH  14  22
BRANCH   1  30
ATOM     29  C   UNL     1       0.220   1.857   0.045  0.00  0.00    +0.009 C 
ATOM     30  C   UNL     1       0.156   0.332   0.156  0.00  0.00    +0.032 C 
ENDBRANCH   1  30
BRANCH  10  31
ATOM     31  C   UNL     1       6.091  -2.654   0.228  0.00  0.00    +0.129 C 
ATOM     32  C   UNL     1       6.585  -1.854   1.435  0.00  0.00    +0.039 C 
BRANCH  31  33
ATOM     33  O   UNL     1       5.490  -3.870   0.676  0.00  0.00    -0.390 OA
ATOM     34  H   UNL     1       4.732  -3.741   1.262  0.00  0.00    +0.210 HD
ENDBRANCH  31  33
ENDBRANCH  10  31
TORSDOF 4
