REMARK  Name = ZINC28880175
REMARK  9 active torsions:
REMARK  status: ('A' for Active; 'I' for Inactive)
REMARK    1  A    between atoms: C_1  and  C_2
REMARK    2  A    between atoms: C_2  and  N_3
REMARK    3  A    between atoms: N_3  and  C_4
REMARK    4  A    between atoms: C_4  and  C_5
REMARK    5  A    between atoms: C_12  and  O_14
REMARK    6  A    between atoms: O_14  and  C_15
REMARK    7  A    between atoms: C_15  and  C_16
REMARK    8  A    between atoms: N_26  and  S_27
REMARK    9  A    between atoms: S_27  and  C_30
REMARK                            x       y       z     vdW  Elec       q    Type
REMARK                         _______ _______ _______ _____ _____    ______ ____
ROOT
ATOM      1  C   UNL     1      -0.955  -0.180   4.476  0.00  0.00    +0.136 C 
ATOM      2  C   UNL     1      -0.686   1.330   4.505  0.00  0.00    +0.032 C 
ATOM      3  C   UNL     1       0.153   1.658   5.740  0.00  0.00    +0.039 C 
ATOM      4  C   UNL     1       1.365   0.767   5.806  0.00  0.00    -0.025 A 
ATOM      5  C   UNL     1       2.450   1.166   6.568  0.00  0.00    +0.005 A 
ATOM      6  C   UNL     1       3.575   0.369   6.651  0.00  0.00    +0.000 A 
ATOM      7  C   UNL     1       3.625  -0.835   5.972  0.00  0.00    +0.002 A 
ATOM      8  C   UNL     1       2.548  -1.241   5.210  0.00  0.00    +0.025 A 
ATOM      9  C   UNL     1       1.415  -0.439   5.124  0.00  0.00    +0.055 A 
ATOM     10  N   UNL     1       0.337  -0.865   4.340  0.00  0.00    -0.196 N 
ENDROOT
BRANCH  10  11
ATOM     11  S   UNL     1       0.515  -2.121   3.275  0.00  0.00    +0.075 S 
ATOM     12  O   UNL     1      -0.453  -1.927   2.252  0.00  0.00    -0.150 OA
ATOM     13  O   UNL     1       1.905  -2.225   2.998  0.00  0.00    -0.150 OA
BRANCH  11  14
ATOM     14  C   UNL     1       0.060  -3.595   4.126  0.00  0.00    +0.109 A 
ATOM     15  C   UNL     1       0.988  -4.256   4.907  0.00  0.00    +0.030 A 
ATOM     16  C   UNL     1       0.632  -5.413   5.575  0.00  0.00    +0.022 A 
ATOM     17  C   UNL     1      -0.655  -5.908   5.462  0.00  0.00    +0.041 A 
ATOM     18  C   UNL     1      -1.584  -5.245   4.679  0.00  0.00    +0.022 A 
ATOM     19  C   UNL     1      -1.228  -4.086   4.016  0.00  0.00    +0.030 A 
ATOM     20 CL   UNL     1      -1.104  -7.360   6.300  0.00  0.00    -0.084 Cl
ENDBRANCH  11  14
ENDBRANCH  10  11
BRANCH   1  21
ATOM     21  C   UNL     1      -1.853  -0.523   3.285  0.00  0.00    +0.258 C 
BRANCH  21  22
ATOM     22  O   UNL     1      -3.086   0.190   3.397  0.00  0.00    -0.448 OA
BRANCH  22  24
ATOM     23  N   UNL     1      -5.086   0.805   2.366  0.00  0.00    -0.263 N 
ATOM     24  C   UNL     1      -3.951   0.078   2.372  0.00  0.00    +0.403 C 
ATOM     25  O   UNL     1      -3.709  -0.677   1.451  0.00  0.00    -0.226 OA
BRANCH  23  27
ATOM     26  C   UNL     1      -6.166   1.165   4.530  0.00  0.00    +0.024 C 
ATOM     27  C   UNL     1      -5.327   1.796   3.417  0.00  0.00    +0.108 C 
ENDBRANCH  23  27
BRANCH  23  28
ATOM     28  C   UNL     1      -6.079   0.604   1.307  0.00  0.00    +0.146 C 
BRANCH  28  29
ATOM     29  C   UNL     1      -5.780   1.528   0.155  0.00  0.00    -0.025 A 
ATOM     30  C   UNL     1      -6.328   2.804   0.107  0.00  0.00    +0.023 A 
ATOM     31  C   UNL     1      -6.033   3.626  -0.961  0.00  0.00    +0.084 A 
ATOM     32  N   UNL     1      -5.240   3.216  -1.933  0.00  0.00    -0.350 N 
ATOM     33  C   UNL     1      -4.699   2.007  -1.924  0.00  0.00    +0.094 A 
ATOM     34  C   UNL     1      -4.948   1.128  -0.875  0.00  0.00    +0.046 A 
ATOM     35  N   UNL     1      -3.870   1.616  -2.969  0.00  0.00    -0.345 N 
ATOM     36  H   UNL     1      -3.691   2.227  -3.700  0.00  0.00    +0.144 HD
ATOM     37  H   UNL     1      -3.471   0.732  -2.966  0.00  0.00    +0.144 HD
ATOM     38  H   UNL     1      -5.050   3.814  -2.673  0.00  0.00    +0.166 HD
ENDBRANCH  28  29
ENDBRANCH  23  28
ENDBRANCH  22  24
ENDBRANCH  21  22
ENDBRANCH   1  21
TORSDOF 8
