REMARK  Name = ZINC08236353
REMARK  4 active torsions:
REMARK  status: ('A' for Active; 'I' for Inactive)
REMARK    1  A    between atoms: C_1  and  C_2
REMARK    2  A    between atoms: C_2  and  C_30
REMARK    3  A    between atoms: C_6  and  C_18
REMARK    4  A    between atoms: C_23  and  N_24
REMARK                            x       y       z     vdW  Elec       q    Type
REMARK                         _______ _______ _______ _____ _____    ______ ____
ROOT
ATOM      1  C   UNL     1      -1.487  -1.888   2.945  0.00  0.00    +0.011 C 
ATOM      2  C   UNL     1      -1.300  -3.397   2.776  0.00  0.00    -0.023 C 
ATOM      3  C   UNL     1      -1.860  -3.837   1.421  0.00  0.00    +0.058 C 
ATOM      4  C   UNL     1      -1.109  -3.139   0.312  0.00  0.00    +0.017 C 
ATOM      5  C   UNL     1       0.187  -2.798   0.459  0.00  0.00    +0.024 C 
ATOM      6  C   UNL     1       0.947  -2.105  -0.644  0.00  0.00    +0.093 C 
ATOM      7  C   UNL     1       0.248  -2.250  -1.963  0.00  0.00    +0.042 A 
ATOM      8  C   UNL     1       0.925  -2.016  -3.143  0.00  0.00    +0.126 A 
ATOM      9  N   UNL     1       0.252  -2.157  -4.327  0.00  0.00    -0.208 NA
ATOM     10  H   UNL     1      -2.761  -3.037  -3.224  0.00  0.00    +0.169 HD
ATOM     11  C   UNL     1      -1.045  -2.516  -4.329  0.00  0.00    +0.180 A 
ATOM     12  S   UNL     1      -1.866  -2.683  -5.822  0.00  0.00    -0.011 S 
ATOM     13  N   UNL     1      -1.701  -2.744  -3.196  0.00  0.00    -0.322 N 
ATOM     14  C   UNL     1      -1.097  -2.623  -2.019  0.00  0.00    +0.110 A 
ATOM     15  N   UNL     1      -1.784  -2.869  -0.848  0.00  0.00    -0.304 N 
ATOM     16  N   UNL     1       2.248  -1.648  -3.130  0.00  0.00    -0.343 N 
ATOM     17  C   UNL     1       0.878  -3.075   1.653  0.00  0.00    +0.162 C 
ATOM     18  O   UNL     1       2.051  -2.773   1.747  0.00  0.00    -0.292 OA
ATOM     19  C   UNL     1       0.193  -3.740   2.816  0.00  0.00    +0.086 C 
ATOM     20  C   UNL     1      -2.030  -4.136   3.899  0.00  0.00    +0.011 C 
ATOM     21  H   UNL     1      -2.884  -2.846  -0.853  0.00  0.00    +0.153 HD
ATOM     22  H   UNL     1       2.778  -1.537  -2.173  0.00  0.00    +0.144 HD
ATOM     23  H   UNL     1       2.777  -1.464  -4.077  0.00  0.00    +0.144 HD
ENDROOT
BRANCH   6  24
ATOM     24  C   UNL     1       1.073  -0.640  -0.311  0.00  0.00    -0.005 A 
ATOM     25  C   UNL     1      -0.061   0.121  -0.101  0.00  0.00    +0.007 A 
ATOM     26  C   UNL     1       0.055   1.464   0.205  0.00  0.00    +0.000 A 
ATOM     27  C   UNL     1       1.305   2.046   0.300  0.00  0.00    +0.002 A 
ATOM     28  C   UNL     1       2.439   1.284   0.090  0.00  0.00    +0.033 A 
ATOM     29  C   UNL     1       2.323  -0.059  -0.215  0.00  0.00    +0.130 A 
BRANCH  29  30
ATOM     30  N   UNL     1       3.538  -0.875  -0.440  0.00  0.00    +0.057 N 
ATOM     31  O   UNL     1       3.599  -2.010  -0.002  0.00  0.00    -0.126 OA
ATOM     32  O   UNL     1       4.477  -0.411  -1.062  0.00  0.00    -0.126 OA
ENDBRANCH  29  30
ENDBRANCH   6  24
TORSDOF 2
