REMARK  Name = ZINC63399761
REMARK  9 active torsions:
REMARK  status: ('A' for Active; 'I' for Inactive)
REMARK    1  A    between atoms: C_1  and  C_2
REMARK    2  A    between atoms: C_4  and  C_33
REMARK    3  A    between atoms: C_6  and  C_8
REMARK    4  A    between atoms: N_10  and  C_11
REMARK    5  A    between atoms: C_11  and  C_12
REMARK    6  A    between atoms: N_14  and  C_15
REMARK    7  A    between atoms: C_15  and  C_16
REMARK    8  A    between atoms: C_16  and  C_18
REMARK    9  A    between atoms: C_16  and  C_24
REMARK                            x       y       z     vdW  Elec       q    Type
REMARK                         _______ _______ _______ _____ _____    ______ ____
ROOT
ATOM      1  C   UNL     1       0.061  -1.477   8.436  0.00  0.00    +0.116 C 
ENDROOT
BRANCH   1   4
ATOM      2  C   UNL     1       0.056  -1.958   6.048  0.00  0.00    +0.230 C 
ATOM      3  O   UNL     1       0.040  -0.764   5.837  0.00  0.00    -0.274 OA
ATOM      4  N   UNL     1       0.068  -2.419   7.314  0.00  0.00    -0.313 N 
ATOM      5  H   UNL     1       0.081  -3.374   7.482  0.00  0.00    +0.149 HD
BRANCH   2   6
ATOM      6  C   UNL     1       0.064  -2.926   4.893  0.00  0.00    +0.200 C 
BRANCH   6   9
ATOM      7  C   UNL     1       0.052  -2.845   2.458  0.00  0.00    +0.244 C 
ATOM      8  O   UNL     1       0.068  -4.061   2.446  0.00  0.00    -0.270 OA
ATOM      9  N   UNL     1       0.049  -2.182   3.631  0.00  0.00    -0.303 N 
ATOM     10  H   UNL     1       0.036  -1.212   3.640  0.00  0.00    +0.150 HD
BRANCH   7  16
ATOM     11  C   UNL     1      -0.018   1.503   0.010  0.00  0.00    +0.044 C 
ATOM     12  C   UNL     1       0.002  -0.004   0.002  0.00  0.00    -0.049 A 
ATOM     13  C   UNL     1       0.006  -0.688  -1.201  0.00  0.00    +0.006 A 
ATOM     14  C   UNL     1       0.025  -2.071  -1.217  0.00  0.00    -0.049 A 
ATOM     15  C   UNL     1       0.040  -2.778  -0.033  0.00  0.00    +0.016 A 
ATOM     16  C   UNL     1       0.036  -2.094   1.184  0.00  0.00    +0.037 A 
ATOM     17  C   UNL     1       0.023  -0.699   1.194  0.00  0.00    +0.016 A 
ATOM     18  C   UNL     1       0.029  -2.807  -2.532  0.00  0.00    +0.044 C 
ENDBRANCH   7  16
ENDBRANCH   6   9
ENDBRANCH   2   6
ENDBRANCH   1   4
BRANCH   1  19
ATOM     19  C   UNL     1       0.077  -2.255   9.754  0.00  0.00    +0.064 C 
BRANCH  19  20
ATOM     20  C   UNL     1      -0.055  -1.292  10.906  0.00  0.00    -0.033 C 
ATOM     21  C   UNL     1      -1.032  -1.272  11.842  0.00  0.00    -0.000 A 
ATOM     22  C   UNL     1      -2.219  -2.107  12.057  0.00  0.00    +0.010 A 
ATOM     23  C   UNL     1      -3.030  -1.837  13.105  0.00  0.00    +0.001 A 
ATOM     24  C   UNL     1      -2.766  -0.780  13.988  0.00  0.00    +0.002 A 
ATOM     25  C   UNL     1      -1.695   0.030  13.855  0.00  0.00    +0.026 A 
ATOM     26  C   UNL     1      -0.775  -0.164  12.788  0.00  0.00    +0.043 A 
ATOM     27  N   UNL     1       0.319   0.477  12.451  0.00  0.00    -0.380 N 
ATOM     28  C   UNL     1       0.883  -0.158  11.255  0.00  0.00    +0.145 C 
ATOM     29  H   UNL     1       0.694   1.240  12.918  0.00  0.00    +0.160 HD
ENDBRANCH  19  20
BRANCH  19  30
ATOM     30  C   UNL     1       1.375  -3.010   9.876  0.00  0.00    -0.039 A 
ATOM     31  C   UNL     1       2.575  -2.324   9.883  0.00  0.00    +0.004 A 
ATOM     32  C   UNL     1       3.766  -3.017   9.995  0.00  0.00    +0.000 A 
ATOM     33  C   UNL     1       3.757  -4.396  10.100  0.00  0.00    +0.000 A 
ATOM     34  C   UNL     1       2.557  -5.081  10.094  0.00  0.00    +0.000 A 
ATOM     35  C   UNL     1       1.365  -4.388   9.986  0.00  0.00    +0.004 A 
ENDBRANCH  19  30
ENDBRANCH   1  19
TORSDOF 7
