REMARK  Name = ZINC13499297
REMARK  10 active torsions:
REMARK  status: ('A' for Active; 'I' for Inactive)
REMARK    1  A    between atoms: C_1  and  C_2
REMARK    2  A    between atoms: C_2  and  C_3
REMARK    3  A    between atoms: C_3  and  C_4
REMARK    4  A    between atoms: C_4  and  C_6
REMARK    5  A    between atoms: C_4  and  N_72
REMARK    6  A    between atoms: N_10  and  C_11
REMARK    7  A    between atoms: C_17  and  C_18
REMARK    8  A    between atoms: C_17  and  N_72
REMARK    9  A    between atoms: C_23  and  C_30
REMARK   10  A    between atoms: C_31  and  N_72
REMARK                            x       y       z     vdW  Elec       q    Type
REMARK                         _______ _______ _______ _____ _____    ______ ____
ROOT
ATOM      1  N   UNL     1       0.576  -0.435  -0.581  0.00  0.00    +0.391 N 
ATOM      2  H   UNL     1      -0.198  -1.060  -0.324  0.00  0.00    -0.080 HD
ENDROOT
BRANCH   1   3
ATOM      3  C   UNL     1       1.838  -0.991  -0.051  0.00  0.00    -0.067 C 
ATOM      4  C   UNL     1       2.260  -2.217  -0.887  0.00  0.00    -0.015 C 
ATOM      5  C   UNL     1       2.836  -3.207   0.157  0.00  0.00    -0.002 C 
ATOM      6  C   UNL     1       1.896  -3.010   1.372  0.00  0.00    -0.002 C 
ATOM      7  C   UNL     1       1.607  -1.495   1.385  0.00  0.00    -0.015 C 
ENDBRANCH   1   3
BRANCH   1   8
ATOM      8  C   UNL     1       0.645  -0.340  -2.055  0.00  0.00    +0.003 C 
BRANCH   8   9
ATOM      9  C   UNL     1      -0.753  -0.424  -2.608  0.00  0.00    +0.138 A 
ATOM     10  N   UNL     1      -1.797   0.260  -2.207  0.00  0.00    -0.115 NA
ATOM     11  N   UNL     1      -2.806  -0.094  -2.926  0.00  0.00    -0.023 NA
ATOM     12  N   UNL     1      -2.433  -0.985  -3.776  0.00  0.00    -0.044 NA
ATOM     13  N   UNL     1      -1.173  -1.212  -3.616  0.00  0.00    -0.228 N 
BRANCH  13  14
ATOM     14  C   UNL     1      -0.353  -2.153  -4.383  0.00  0.00    +0.111 C 
ATOM     15  C   UNL     1      -0.375  -1.760  -5.862  0.00  0.00    +0.027 C 
ATOM     16  C   UNL     1       0.481  -2.743  -6.663  0.00  0.00    +0.002 C 
ATOM     17  C   UNL     1      -0.081  -4.157  -6.503  0.00  0.00    +0.000 C 
ATOM     18  C   UNL     1      -0.060  -4.550  -5.025  0.00  0.00    +0.002 C 
ATOM     19  C   UNL     1      -0.916  -3.567  -4.223  0.00  0.00    +0.027 C 
ENDBRANCH  13  14
ENDBRANCH   8   9
BRANCH   8  20
ATOM     20  C   UNL     1       1.281   0.987  -2.474  0.00  0.00    -0.008 C 
BRANCH  20  22
ATOM     21  C   UNL     1       3.428   2.259  -2.610  0.00  0.00    +0.004 C 
ATOM     22  C   UNL     1       2.752   1.004  -2.054  0.00  0.00    -0.005 C 
ENDBRANCH  20  22
ENDBRANCH   8  20
ENDBRANCH   1   8
BRANCH   1  23
ATOM     23  C   UNL     1       0.328   0.901   0.000  0.00  0.00    -0.036 C 
BRANCH  23  24
ATOM     24  C   UNL     1      -0.130   0.731   1.426  0.00  0.00    +0.001 A 
ATOM     25  C   UNL     1       0.755   0.881   2.442  0.00  0.00    +0.017 A 
ATOM     26  C   UNL     1       0.277   0.715   3.816  0.00  0.00    -0.001 A 
ATOM     27  C   UNL     1       1.142   0.863   4.906  0.00  0.00    +0.010 A 
ATOM     28  C   UNL     1       0.666   0.695   6.175  0.00  0.00    +0.004 A 
ATOM     29  C   UNL     1      -0.668   0.379   6.394  0.00  0.00    -0.048 A 
ATOM     30  C   UNL     1      -1.538   0.229   5.335  0.00  0.00    +0.029 A 
ATOM     31  C   UNL     1      -1.076   0.395   4.034  0.00  0.00    +0.049 A 
ATOM     32  N   UNL     1      -1.924   0.250   2.956  0.00  0.00    -0.322 N 
ATOM     33  H   UNL     1      -2.856   0.029   3.108  0.00  0.00    +0.169 HD
ATOM     34  C   UNL     1      -1.477   0.410   1.698  0.00  0.00    +0.251 A 
ATOM     35  O   UNL     1      -2.255   0.274   0.770  0.00  0.00    -0.268 OA
ATOM     36  C   UNL     1      -1.171   0.199   7.803  0.00  0.00    +0.044 C 
ENDBRANCH  23  24
ENDBRANCH   1  23
TORSDOF 8
