REMARK  Name = ZINC58773792
REMARK  9 active torsions:
REMARK  status: ('A' for Active; 'I' for Inactive)
REMARK    1  A    between atoms: C_1  and  C_2
REMARK    2  A    between atoms: C_2  and  N_3
REMARK    3  A    between atoms: N_3  and  C_4
REMARK    4  A    between atoms: N_3  and  S_6
REMARK    5  A    between atoms: C_4  and  C_5
REMARK    6  A    between atoms: S_6  and  C_9
REMARK    7  A    between atoms: C_12  and  O_28
REMARK    8  A    between atoms: C_13  and  N_15
REMARK    9  A    between atoms: C_16  and  C_18
REMARK                            x       y       z     vdW  Elec       q    Type
REMARK                         _______ _______ _______ _____ _____    ______ ____
ROOT
ATOM      1  C   UNL     1      -2.893   0.525   2.028  0.00  0.00    +0.107 A 
ATOM      2  C   UNL     1      -2.204   1.399   2.849  0.00  0.00    +0.032 A 
ATOM      3  C   UNL     1      -2.829   2.530   3.341  0.00  0.00    +0.049 A 
ATOM      4  C   UNL     1      -4.149   2.791   3.011  0.00  0.00    +0.138 A 
ATOM      5  C   UNL     1      -4.844   1.912   2.183  0.00  0.00    +0.078 A 
ATOM      6  C   UNL     1      -4.208   0.781   1.689  0.00  0.00    +0.055 A 
ENDROOT
BRANCH   5   7
ATOM      7  N   UNL     1      -6.178   2.170   1.846  0.00  0.00    -0.276 N 
ATOM      8  C   UNL     1      -6.993   1.156   1.493  0.00  0.00    +0.284 C 
ATOM      9  O   UNL     1      -6.599   0.007   1.563  0.00  0.00    -0.266 OA
ATOM     10  H   UNL     1      -6.517   3.079   1.868  0.00  0.00    +0.155 HD
BRANCH   8  11
ATOM     11  C   UNL     1      -8.356   1.438   1.023  0.00  0.00    +0.191 A 
ATOM     12  C   UNL     1      -9.263   0.500   0.647  0.00  0.00    +0.063 A 
ATOM     13  C   UNL     1     -10.468   1.233   0.260  0.00  0.00    +0.022 A 
ATOM     14  C   UNL     1     -11.728   0.856  -0.211  0.00  0.00    +0.027 A 
ATOM     15  C   UNL     1     -12.662   1.815  -0.490  0.00  0.00    +0.019 A 
ATOM     16  C   UNL     1     -12.364   3.159  -0.309  0.00  0.00    +0.019 A 
ATOM     17  C   UNL     1     -11.127   3.551   0.154  0.00  0.00    +0.048 A 
ATOM     18  C   UNL     1     -10.162   2.594   0.445  0.00  0.00    +0.136 A 
ATOM     19  O   UNL     1      -8.898   2.668   0.906  0.00  0.00    -0.450 OA
ATOM     20 BR   UNL     1     -14.368   1.307  -1.127  0.00  0.00    -0.050 Br
ENDBRANCH   8  11
ENDBRANCH   5   7
BRANCH   1  21
ATOM     21  S   UNL     1      -2.090  -0.915   1.407  0.00  0.00    +0.061 S 
ATOM     22  O   UNL     1      -3.115  -1.850   1.099  0.00  0.00    -0.153 OA
ATOM     23  O   UNL     1      -1.034  -1.212   2.309  0.00  0.00    -0.153 OA
BRANCH  21  24
ATOM     24  N   UNL     1      -1.382  -0.498  -0.031  0.00  0.00    -0.177 NA
BRANCH  24  26
ATOM     25  C   UNL     1      -0.032   1.541  -0.038  0.00  0.00    +0.022 C 
ATOM     26  C   UNL     1      -0.009   0.011  -0.050  0.00  0.00    +0.106 C 
ENDBRANCH  24  26
BRANCH  24  27
ATOM     27  C   UNL     1      -2.129  -0.639  -1.283  0.00  0.00    +0.106 C 
ATOM     28  C   UNL     1      -1.794  -1.986  -1.928  0.00  0.00    +0.022 C 
ENDBRANCH  24  27
ENDBRANCH  21  24
ENDBRANCH   1  21
BRANCH   4  29
ATOM     29  O   UNL     1      -4.766   3.903   3.494  0.00  0.00    -0.505 OA
ATOM     30  H   UNL     1      -4.677   4.680   2.925  0.00  0.00    +0.292 HD
ENDBRANCH   4  29
TORSDOF 7
