REMARK  Name = ZINC43527746
REMARK  9 active torsions:
REMARK  status: ('A' for Active; 'I' for Inactive)
REMARK    1  A    between atoms: C_1  and  C_2
REMARK    2  A    between atoms: C_2  and  C_3
REMARK    3  A    between atoms: C_2  and  N_4
REMARK    4  A    between atoms: C_5  and  O_7
REMARK    5  A    between atoms: O_7  and  C_8
REMARK    6  A    between atoms: C_8  and  C_9
REMARK    7  A    between atoms: C_18  and  C_20
REMARK    8  A    between atoms: C_22  and  C_32
REMARK    9  A    between atoms: C_24  and  C_26
REMARK                            x       y       z     vdW  Elec       q    Type
REMARK                         _______ _______ _______ _____ _____    ______ ____
ROOT
ATOM      1  C   UNL     1      -4.853  -4.111  -1.321  0.00  0.00    -0.030 C 
ATOM      2  C   UNL     1      -5.156  -4.077   0.179  0.00  0.00    -0.008 C 
ATOM      3  C   UNL     1      -6.194  -2.980   0.449  0.00  0.00    -0.007 C 
ATOM      4  C   UNL     1      -5.613  -1.638  -0.015  0.00  0.00    -0.015 C 
ATOM      5  C   UNL     1      -5.277  -1.734  -1.505  0.00  0.00    -0.078 C 
ATOM      6  N   UNL     1      -5.646  -3.093  -2.014  0.00  0.00    +0.384 N 
ATOM      7  C   UNL     1      -7.078  -3.353  -1.848  0.00  0.00    -0.068 C 
ATOM      8  C   UNL     1      -7.454  -3.294  -0.368  0.00  0.00    +0.024 C 
ATOM      9  H   UNL     1      -5.432  -3.137  -2.999  0.00  0.00    -0.081 HD
ENDROOT
BRANCH   8  10
ATOM     10  C   UNL     1      -8.480  -2.212  -0.151  0.00  0.00    +0.047 A 
ATOM     11  C   UNL     1      -8.449  -1.052  -0.912  0.00  0.00    +0.047 A 
ATOM     12  C   UNL     1      -9.412  -0.081  -0.680  0.00  0.00    +0.048 A 
ATOM     13  N   UNL     1     -10.325  -0.289   0.254  0.00  0.00    -0.232 NA
ATOM     14  C   UNL     1     -10.326  -1.409   0.963  0.00  0.00    +0.160 A 
ATOM     15  N   UNL     1      -9.424  -2.359   0.762  0.00  0.00    -0.232 NA
BRANCH  14  16
ATOM     16  C   UNL     1     -11.367  -1.606   2.002  0.00  0.00    +0.022 A 
ATOM     17  C   UNL     1     -11.398  -2.770   2.775  0.00  0.00    +0.031 A 
ATOM     18  C   UNL     1     -12.384  -2.913   3.731  0.00  0.00    +0.111 A 
ATOM     19  N   UNL     1     -13.286  -1.970   3.919  0.00  0.00    -0.263 NA
ATOM     20  C   UNL     1     -13.292  -0.857   3.212  0.00  0.00    +0.111 A 
ATOM     21  C   UNL     1     -12.339  -0.630   2.240  0.00  0.00    +0.031 A 
ENDBRANCH  14  16
BRANCH  12  22
ATOM     22  C   UNL     1      -9.417   1.195  -1.481  0.00  0.00    +0.038 C 
ATOM     23  C   UNL     1     -10.098   0.959  -2.845  0.00  0.00    +0.010 C 
ATOM     24  C   UNL     1      -9.278   1.824  -3.834  0.00  0.00    +0.001 C 
ATOM     25  C   UNL     1      -7.828   1.651  -3.317  0.00  0.00    +0.001 C 
ATOM     26  C   UNL     1      -7.973   1.635  -1.781  0.00  0.00    +0.010 C 
ENDBRANCH  12  22
ENDBRANCH   8  10
BRANCH   1  27
ATOM     27  C   UNL     1      -3.365  -3.836  -1.545  0.00  0.00    +0.218 C 
BRANCH  27  28
ATOM     28  O   UNL     1      -3.063  -3.958  -2.936  0.00  0.00    -0.452 OA
BRANCH  28  30
ATOM     29  N   UNL     1      -1.433  -3.845  -4.602  0.00  0.00    -0.279 N 
ATOM     30  C   UNL     1      -1.785  -3.746  -3.305  0.00  0.00    +0.400 C 
ATOM     31  O   UNL     1      -0.950  -3.464  -2.469  0.00  0.00    -0.226 OA
ATOM     32  H   UNL     1      -2.099  -4.070  -5.270  0.00  0.00    +0.152 HD
BRANCH  29  34
ATOM     33  C   UNL     1       0.241  -4.356  -6.311  0.00  0.00    +0.027 C 
ATOM     34  C   UNL     1      -0.043  -3.614  -5.003  0.00  0.00    +0.070 C 
ATOM     35  C   UNL     1       0.186  -2.115  -5.208  0.00  0.00    +0.027 C 
ENDBRANCH  29  34
ENDBRANCH  28  30
ENDBRANCH  27  28
ENDBRANCH   1  27
TORSDOF 7
