REMARK  Name = ZINC01116220
REMARK  5 active torsions:
REMARK  status: ('A' for Active; 'I' for Inactive)
REMARK    1  A    between atoms: C_1  and  C_2
REMARK    2  A    between atoms: C_4  and  N_9
REMARK    3  A    between atoms: C_10  and  C_23
REMARK    4  A    between atoms: C_12  and  C_15
REMARK    5  A    between atoms: C_13  and  C_14
REMARK                            x       y       z     vdW  Elec       q    Type
REMARK                         _______ _______ _______ _____ _____    ______ ____
ROOT
ATOM      1  N   UNL     1      -1.620   2.240   1.172  0.00  0.00    -0.317 N 
ATOM      2  C   UNL     1      -0.255   2.174   1.183  0.00  0.00    +0.022 A 
ATOM      3  C   UNL     1       0.184   2.320   2.446  0.00  0.00    +0.031 A 
ATOM      4  C   UNL     1      -1.008   2.484   3.287  0.00  0.00    -0.003 A 
ATOM      5  C   UNL     1      -2.090   2.421   2.432  0.00  0.00    +0.028 A 
ATOM      6  C   UNL     1      -3.539   2.539   2.828  0.00  0.00    +0.064 C 
ATOM      7  C   UNL     1       0.620   1.976  -0.028  0.00  0.00    +0.064 C 
ENDROOT
BRANCH   4   8
ATOM      8  C   UNL     1      -1.042   2.677   4.741  0.00  0.00    +0.030 C 
ATOM      9  C   UNL     1      -0.126   2.055   5.530  0.00  0.00    +0.080 C 
ATOM     10  C   UNL     1       0.880   1.039   5.179  0.00  0.00    +0.258 C 
ATOM     11  O   UNL     1       0.997   0.622   4.041  0.00  0.00    -0.269 OA
ATOM     12  N   UNL     1       1.652   0.602   6.160  0.00  0.00    -0.243 N 
ATOM     13  C   UNL     1       1.520   1.067   7.419  0.00  0.00    +0.283 C 
ATOM     14  O   UNL     1       2.155   0.757   8.410  0.00  0.00    -0.262 OA
ATOM     15  S   UNL     1       0.192   2.253   7.278  0.00  0.00    -0.026 S 
ATOM     16  H   UNL     1       2.328  -0.067   5.970  0.00  0.00    +0.159 HD
ENDBRANCH   4   8
BRANCH   1  20
ATOM     17  C   UNL     1      -3.052   4.045  -3.173  0.00  0.00    +0.045 C 
ATOM     18  C   UNL     1      -3.132   2.994  -2.096  0.00  0.00    -0.035 A 
ATOM     19  C   UNL     1      -2.348   3.105  -0.964  0.00  0.00    +0.030 A 
ATOM     20  C   UNL     1      -2.418   2.133   0.025  0.00  0.00    +0.047 A 
ATOM     21  C   UNL     1      -3.285   1.058  -0.121  0.00  0.00    +0.027 A 
ATOM     22  C   UNL     1      -4.071   0.955  -1.252  0.00  0.00    +0.017 A 
ATOM     23  C   UNL     1      -3.995   1.922  -2.239  0.00  0.00    +0.021 A 
ATOM     24 BR   UNL     1      -5.072   1.778  -3.786  0.00  0.00    -0.050 Br
ENDBRANCH   1  20
TORSDOF 2
