REMARK  Name = ZINC37608297
REMARK  7 active torsions:
REMARK  status: ('A' for Active; 'I' for Inactive)
REMARK    1  A    between atoms: C_1  and  C_2
REMARK    2  A    between atoms: C_2  and  C_4
REMARK    3  A    between atoms: C_2  and  N_21
REMARK    4  A    between atoms: C_4  and  C_5
REMARK    5  A    between atoms: N_7  and  C_8
REMARK    6  A    between atoms: C_8  and  C_10
REMARK    7  A    between atoms: C_8  and  C_11
REMARK                            x       y       z     vdW  Elec       q    Type
REMARK                         _______ _______ _______ _____ _____    ______ ____
ROOT
ATOM      1  C   UNL     1       1.615  -4.139   2.095  0.00  0.00    +0.100 C 
ATOM      2  C   UNL     1       0.345  -4.786   2.652  0.00  0.00    +0.033 C 
ENDROOT
BRANCH   1   3
ATOM      3  C   UNL     1       2.803  -4.580   2.911  0.00  0.00    -0.024 A 
ATOM      4  C   UNL     1       3.066  -3.980   4.128  0.00  0.00    +0.009 A 
ATOM      5  C   UNL     1       4.155  -4.381   4.878  0.00  0.00    +0.050 A 
ATOM      6  C   UNL     1       4.987  -5.387   4.412  0.00  0.00    +0.162 A 
ATOM      7  C   UNL     1       4.722  -5.993   3.189  0.00  0.00    +0.162 A 
ATOM      8  C   UNL     1       3.625  -5.588   2.443  0.00  0.00    +0.055 A 
ATOM      9  O   UNL     1       5.521  -6.988   2.717  0.00  0.00    -0.485 OA
ATOM     10  C   UNL     1       6.816  -7.113   3.316  0.00  0.00    +0.270 C 
ATOM     11  C   UNL     1       6.650  -7.033   4.839  0.00  0.00    +0.270 C 
ATOM     12  O   UNL     1       6.059  -5.769   5.160  0.00  0.00    -0.485 OA
ENDBRANCH   1   3
BRANCH   1  15
ATOM     13  C   UNL     1       0.870  -2.011   1.172  0.00  0.00    +0.212 C 
ATOM     14  O   UNL     1       0.414  -2.615   0.224  0.00  0.00    -0.276 OA
ATOM     15  N   UNL     1       1.491  -2.681   2.163  0.00  0.00    -0.309 N 
ATOM     16  H   UNL     1       1.855  -2.198   2.921  0.00  0.00    +0.149 HD
BRANCH  13  17
ATOM     17  C   UNL     1       0.742  -0.511   1.242  0.00  0.00    +0.079 C 
BRANCH  17  19
ATOM     18  C   UNL     1      -0.019   1.526   0.010  0.00  0.00    -0.014 C 
ATOM     19  C   UNL     1       0.002  -0.004   0.002  0.00  0.00    -0.070 C 
BRANCH  19  20
ATOM     20  N   UNL     1      -1.376  -0.512   0.012  0.00  0.00    +0.380 N 
ATOM     21  H   UNL     1      -1.864  -0.178  -0.805  0.00  0.00    -0.090 HD
ATOM     22  H   UNL     1      -1.362  -1.521   0.007  0.00  0.00    -0.090 HD
ATOM     23  H   UNL     1      -1.848  -0.187   0.843  0.00  0.00    -0.090 HD
ENDBRANCH  19  20
ENDBRANCH  17  19
ENDBRANCH  13  17
ENDBRANCH   1  15
TORSDOF 5
