REMARK  Name = ZINC16880789
REMARK  7 active torsions:
REMARK  status: ('A' for Active; 'I' for Inactive)
REMARK    1  A    between atoms: C_1  and  C_2
REMARK    2  A    between atoms: C_3  and  C_21
REMARK    3  A    between atoms: N_6  and  C_10
REMARK    4  A    between atoms: C_7  and  O_9
REMARK    5  A    between atoms: C_10  and  C_11
REMARK    6  A    between atoms: C_21  and  C_22
REMARK    7  A    between atoms: C_22  and  C_24
REMARK                            x       y       z     vdW  Elec       q    Type
REMARK                         _______ _______ _______ _____ _____    ______ ____
ROOT
ATOM      1  C   UNL     1      -0.014   1.500   0.091  0.00  0.00    +0.066 C 
ATOM      2  C   UNL     1       0.006  -0.006   0.061  0.00  0.00    +0.052 A 
ATOM      3  C   UNL     1       0.054  -0.710   1.229  0.00  0.00    +0.046 A 
ATOM      4  C   UNL     1       0.071  -2.116   1.173  0.00  0.00    +0.261 A 
ATOM      5  O   UNL     1       0.115  -2.778   2.197  0.00  0.00    -0.267 OA
ATOM      6  N   UNL     1       0.040  -2.717  -0.035  0.00  0.00    -0.258 N 
ATOM      7  C   UNL     1      -0.008  -1.963  -1.163  0.00  0.00    +0.299 A 
ATOM      8  N   UNL     1      -0.029  -0.649  -1.105  0.00  0.00    -0.201 NA
ENDROOT
BRANCH   7   9
ATOM      9  O   UNL     1      -0.040  -2.573  -2.366  0.00  0.00    -0.479 OA
ATOM     10  H   UNL     1      -0.073  -2.002  -3.147  0.00  0.00    +0.295 HD
ENDBRANCH   7   9
BRANCH   6  11
ATOM     11  C   UNL     1       0.056  -4.179  -0.129  0.00  0.00    +0.165 C 
BRANCH  11  12
ATOM     12  C   UNL     1      -1.352  -4.706  -0.017  0.00  0.00    -0.020 A 
ATOM     13  C   UNL     1      -2.404  -3.842   0.025  0.00  0.00    +0.006 A 
ATOM     14  C   UNL     1      -3.712  -4.310   0.129  0.00  0.00    +0.001 A 
ATOM     15  C   UNL     1      -3.977  -5.644   0.191  0.00  0.00    +0.008 A 
ATOM     16  C   UNL     1      -2.917  -6.566   0.150  0.00  0.00    -0.018 A 
ATOM     17  C   UNL     1      -1.586  -6.090   0.040  0.00  0.00    -0.013 A 
ATOM     18  C   UNL     1      -0.526  -7.011   0.004  0.00  0.00    +0.009 A 
ATOM     19  C   UNL     1      -0.790  -8.345   0.067  0.00  0.00    +0.001 A 
ATOM     20  C   UNL     1      -2.099  -8.813   0.171  0.00  0.00    +0.001 A 
ATOM     21  C   UNL     1      -3.151  -7.950   0.212  0.00  0.00    +0.008 A 
ENDBRANCH  11  12
ENDBRANCH   6  11
BRANCH   3  22
ATOM     22  C   UNL     1       0.088   0.005   2.555  0.00  0.00    +0.122 C 
BRANCH  22  23
ATOM     23  C   UNL     1      -1.312   0.115   3.102  0.00  0.00    +0.168 C 
ATOM     24  O   UNL     1      -2.245  -0.342   2.477  0.00  0.00    -0.292 OA
BRANCH  23  25
ATOM     25  C   UNL     1      -1.546   0.778   4.395  0.00  0.00    +0.018 A 
ATOM     26  C   UNL     1      -0.472   1.302   5.121  0.00  0.00    +0.011 A 
ATOM     27  C   UNL     1      -0.701   1.927   6.329  0.00  0.00    +0.001 A 
ATOM     28  C   UNL     1      -1.988   2.026   6.828  0.00  0.00    +0.000 A 
ATOM     29  C   UNL     1      -3.055   1.504   6.118  0.00  0.00    +0.001 A 
ATOM     30  C   UNL     1      -2.844   0.882   4.906  0.00  0.00    +0.011 A 
ENDBRANCH  23  25
ENDBRANCH  22  23
ENDBRANCH   3  22
TORSDOF 6
