REMARK  Name = ZINC67233955
REMARK  8 active torsions:
REMARK  status: ('A' for Active; 'I' for Inactive)
REMARK    1  A    between atoms: C_1  and  C_2
REMARK    2  A    between atoms: C_7  and  C_11
REMARK    3  A    between atoms: C_11  and  N_12
REMARK    4  A    between atoms: C_13  and  C_15
REMARK    5  A    between atoms: C_15  and  C_16
REMARK    6  A    between atoms: C_16  and  C_17
REMARK    7  A    between atoms: C_17  and  C_18
REMARK    8  A    between atoms: C_18  and  C_19
REMARK                            x       y       z     vdW  Elec       q    Type
REMARK                         _______ _______ _______ _____ _____    ______ ____
ROOT
ATOM      1  N   UNL     1       1.471  -5.968   2.492  0.00  0.00    -0.310 N 
ATOM      2  C   UNL     1       1.735  -7.130   3.123  0.00  0.00    +0.213 C 
ATOM      3  O   UNL     1       0.827  -7.790   3.583  0.00  0.00    -0.276 OA
ATOM      4  H   UNL     1       2.197  -5.441   2.124  0.00  0.00    +0.149 HD
ENDROOT
BRANCH   1   5
ATOM      5  C   UNL     1       0.088  -5.503   2.364  0.00  0.00    +0.159 C 
BRANCH   5  12
ATOM      6  C   UNL     1      -0.018   1.503   0.010  0.00  0.00    +0.045 C 
ATOM      7  C   UNL     1       0.002  -0.004   0.002  0.00  0.00    -0.034 A 
ATOM      8  C   UNL     1       0.006  -0.697  -1.220  0.00  0.00    +0.008 A 
ATOM      9  C   UNL     1       0.025  -2.057  -1.224  0.00  0.00    +0.045 A 
ATOM     10  C   UNL     1       0.040  -2.750   0.003  0.00  0.00    +0.115 A 
ATOM     11  N   UNL     1       0.059  -4.043   0.297  0.00  0.00    -0.342 N 
ATOM     12  C   UNL     1       0.067  -4.189   1.625  0.00  0.00    +0.051 A 
ATOM     13  C   UNL     1       0.053  -2.964   2.194  0.00  0.00    +0.115 A 
ATOM     14  N   UNL     1       0.036  -2.047   1.179  0.00  0.00    -0.308 N 
ATOM     15  C   UNL     1       0.022  -0.682   1.169  0.00  0.00    +0.096 A 
ATOM     16  H   UNL     1       0.066  -4.766  -0.348  0.00  0.00    +0.167 HD
ENDBRANCH   5  12
ENDBRANCH   1   5
BRANCH   2  17
ATOM     17  C   UNL     1       3.158  -7.609   3.255  0.00  0.00    +0.096 C 
BRANCH  17  18
ATOM     18  C   UNL     1       3.179  -8.943   4.005  0.00  0.00    +0.009 C 
BRANCH  18  19
ATOM     19  C   UNL     1       4.623  -9.429   4.140  0.00  0.00    +0.002 C 
BRANCH  19  20
ATOM     20  C   UNL     1       4.644 -10.762   4.890  0.00  0.00    +0.016 C 
BRANCH  20  21
ATOM     21  C   UNL     1       6.089 -11.249   5.025  0.00  0.00    +0.069 C 
ATOM     22  C   UNL     1       6.149 -12.615   5.740  0.00  0.00    +0.108 C 
ATOM     23  C   UNL     1       7.310 -12.740   6.731  0.00  0.00    +0.105 C 
ATOM     24  C   UNL     1       8.184 -11.471   6.826  0.00  0.00    +0.093 C 
ATOM     25  S   UNL     1       7.041 -10.182   6.192  0.00  0.00    -0.154 S 
ATOM     26  N   UNL     1       6.651 -12.958   8.029  0.00  0.00    -0.294 N 
ATOM     27  C   UNL     1       5.323 -12.962   7.848  0.00  0.00    +0.300 C 
ATOM     28  O   UNL     1       4.530 -13.122   8.756  0.00  0.00    -0.253 OA
ATOM     29  N   UNL     1       4.953 -12.770   6.583  0.00  0.00    -0.294 N 
ATOM     30  H   UNL     1       7.104 -13.078   8.878  0.00  0.00    +0.151 HD
ATOM     31  H   UNL     1       4.035 -12.740   6.270  0.00  0.00    +0.151 HD
ENDBRANCH  20  21
ENDBRANCH  19  20
ENDBRANCH  18  19
ENDBRANCH  17  18
ENDBRANCH   2  17
TORSDOF 7
