REMARK  Name = ZINC46768266
REMARK  7 active torsions:
REMARK  status: ('A' for Active; 'I' for Inactive)
REMARK    1  A    between atoms: C_3  and  C_9
REMARK    2  A    between atoms: C_9  and  C_10
REMARK    3  A    between atoms: C_10  and  C_11
REMARK    4  A    between atoms: N_13  and  C_14
REMARK    5  A    between atoms: C_14  and  C_15
REMARK    6  A    between atoms: C_17  and  N_22
REMARK    7  A    between atoms: C_20  and  O_21
REMARK                            x       y       z     vdW  Elec       q    Type
REMARK                         _______ _______ _______ _____ _____    ______ ____
ROOT
ATOM      1  C   UNL     1       5.546   2.998   1.383  0.00  0.00    +0.214 C 
ATOM      2  O   UNL     1       5.962   3.471   0.347  0.00  0.00    -0.276 OA
ATOM      3  N   UNL     1       6.240   3.164   2.526  0.00  0.00    -0.311 N 
ATOM      4  H   UNL     1       5.907   2.786   3.355  0.00  0.00    +0.149 HD
ENDROOT
BRANCH   1   5
ATOM      5  C   UNL     1       4.252   2.225   1.392  0.00  0.00    +0.100 C 
BRANCH   5   6
ATOM      6  C   UNL     1       3.671   2.186  -0.023  0.00  0.00    +0.046 C 
BRANCH   6   9
ATOM      7  C   UNL     1      -0.017   1.378   0.010  0.00  0.00    +0.002 A 
ATOM      8  C   UNL     1       1.171   2.086   0.002  0.00  0.00    +0.005 A 
ATOM      9  C   UNL     1       2.378   1.413  -0.013  0.00  0.00    -0.027 A 
ATOM     10  C   UNL     1       2.398   0.030  -0.021  0.00  0.00    +0.062 A 
ATOM     11  C   UNL     1       1.209  -0.679  -0.013  0.00  0.00    +0.060 A 
ATOM     12  C   UNL     1       0.002  -0.004   0.002  0.00  0.00    +0.021 A 
ATOM     13 CL   UNL     1       1.234  -2.415  -0.023  0.00  0.00    -0.082 Cl
ATOM     14 CL   UNL     1       3.914  -0.816  -0.041  0.00  0.00    -0.082 Cl
ENDBRANCH   6   9
ENDBRANCH   5   6
ENDBRANCH   1   5
BRANCH   3  15
ATOM     15  C   UNL     1       7.497   3.916   2.518  0.00  0.00    +0.143 C 
BRANCH  15  16
ATOM     16  C   UNL     1       8.069   3.955   3.911  0.00  0.00    +0.013 A 
ATOM     17  C   UNL     1       9.157   3.166   4.234  0.00  0.00    +0.041 A 
ATOM     18  C   UNL     1       9.682   3.202   5.513  0.00  0.00    +0.127 A 
ATOM     19  C   UNL     1       9.120   4.025   6.471  0.00  0.00    +0.036 A 
ATOM     20  C   UNL     1       8.033   4.815   6.153  0.00  0.00    +0.048 A 
ATOM     21  C   UNL     1       7.507   4.786   4.869  0.00  0.00    +0.122 A 
BRANCH  18  22
ATOM     22  N   UNL     1      10.847   2.356   5.856  0.00  0.00    +0.056 N 
ATOM     23  O   UNL     1      11.339   1.635   5.020  0.00  0.00    -0.126 OA
ATOM     24  O   UNL     1      11.307   2.386   6.974  0.00  0.00    -0.126 OA
ENDBRANCH  18  22
BRANCH  21  25
ATOM     25  O   UNL     1       6.441   5.566   4.552  0.00  0.00    -0.506 OA
ATOM     26  H   UNL     1       5.585   5.142   4.704  0.00  0.00    +0.292 HD
ENDBRANCH  21  25
ENDBRANCH  15  16
ENDBRANCH   3  15
TORSDOF 7
