REMARK  Name = ZINC03528534
REMARK  9 active torsions:
REMARK  status: ('A' for Active; 'I' for Inactive)
REMARK    1  A    between atoms: C_4  and  C_7
REMARK    2  A    between atoms: C_7  and  N_8
REMARK    3  A    between atoms: C_9  and  N_35
REMARK    4  A    between atoms: C_10  and  N_17
REMARK    5  A    between atoms: N_17  and  C_18
REMARK    6  A    between atoms: C_18  and  C_19
REMARK    7  A    between atoms: C_25  and  C_27
REMARK    8  A    between atoms: C_27  and  O_28
REMARK    9  A    between atoms: O_28  and  C_29
REMARK                            x       y       z     vdW  Elec       q    Type
REMARK                         _______ _______ _______ _____ _____    ______ ____
ROOT
ATOM      1  N   UNL     1       0.671  -0.071  -1.273  0.00  0.00    -0.276 N 
ATOM      2  C   UNL     1       0.633   1.302  -1.208  0.00  0.00    +0.128 A 
ATOM      3  C   UNL     1       1.194   1.941  -0.121  0.00  0.00    +0.140 A 
ATOM      4  C   UNL     1       1.789   1.165   0.890  0.00  0.00    +0.277 A 
ATOM      5  O   UNL     1       2.287   1.703   1.864  0.00  0.00    -0.266 OA
ATOM      6  N   UNL     1       1.799  -0.178   0.779  0.00  0.00    -0.273 N 
ATOM      7  H   UNL     1       2.222  -0.731   1.497  0.00  0.00    +0.173 HD
ATOM      8  C   UNL     1       1.248  -0.784  -0.288  0.00  0.00    +0.331 A 
ATOM      9  O   UNL     1       1.271  -1.997  -0.364  0.00  0.00    -0.246 OA
ENDROOT
BRANCH   3  10
ATOM     10  N   UNL     1       1.171   3.349  -0.026  0.00  0.00    -0.257 N 
ATOM     11  C   UNL     1       2.325   4.047  -0.069  0.00  0.00    +0.258 C 
ATOM     12  O   UNL     1       3.373   3.474  -0.282  0.00  0.00    -0.271 OA
BRANCH  10  13
ATOM     13  C   UNL     1      -0.106   4.052   0.120  0.00  0.00    +0.149 C 
BRANCH  13  14
ATOM     14  C   UNL     1      -0.503   4.075   1.574  0.00  0.00    -0.030 A 
ATOM     15  C   UNL     1      -1.172   2.998   2.124  0.00  0.00    +0.005 A 
ATOM     16  C   UNL     1      -1.532   3.016   3.459  0.00  0.00    +0.000 A 
ATOM     17  C   UNL     1      -1.233   4.117   4.240  0.00  0.00    +0.000 A 
ATOM     18  C   UNL     1      -0.569   5.197   3.688  0.00  0.00    +0.000 A 
ATOM     19  C   UNL     1      -0.204   5.176   2.355  0.00  0.00    +0.005 A 
ENDBRANCH  13  14
ENDBRANCH  10  13
BRANCH  11  20
ATOM     20  C   UNL     1       2.312   5.538   0.147  0.00  0.00    +0.325 C 
BRANCH  20  21
ATOM     21  O   UNL     1       3.624   6.062  -0.066  0.00  0.00    -0.483 OA
BRANCH  21  22
ATOM     22  C   UNL     1       3.786   7.402   0.090  0.00  0.00    +0.121 A 
ATOM     23  C   UNL     1       2.703   8.197   0.436  0.00  0.00    +0.045 A 
ATOM     24  C   UNL     1       2.872   9.559   0.601  0.00  0.00    +0.004 A 
ATOM     25  C   UNL     1       4.116  10.130   0.408  0.00  0.00    +0.000 A 
ATOM     26  C   UNL     1       5.196   9.341   0.058  0.00  0.00    +0.004 A 
ATOM     27  C   UNL     1       5.033   7.978  -0.102  0.00  0.00    +0.045 A 
ENDBRANCH  21  22
ENDBRANCH  20  21
ENDBRANCH  11  20
ENDBRANCH   3  10
BRANCH   2  28
ATOM     28  N   UNL     1       0.043   2.029  -2.214  0.00  0.00    -0.343 N 
ATOM     29  H   UNL     1      -0.285   1.581  -3.009  0.00  0.00    +0.144 HD
ATOM     30  H   UNL     1      -0.045   2.992  -2.129  0.00  0.00    +0.144 HD
ENDBRANCH   2  28
BRANCH   1  31
ATOM     31  C   UNL     1       0.079  -0.763  -2.421  0.00  0.00    +0.163 C 
BRANCH  31  35
ATOM     32  C   UNL     1      -4.025  -1.623  -1.605  0.00  0.00    +0.000 A 
ATOM     33  C   UNL     1      -3.676  -0.430  -2.209  0.00  0.00    +0.000 A 
ATOM     34  C   UNL     1      -2.348  -0.151  -2.473  0.00  0.00    +0.005 A 
ATOM     35  C   UNL     1      -1.369  -1.066  -2.133  0.00  0.00    -0.028 A 
ATOM     36  C   UNL     1      -1.718  -2.262  -1.533  0.00  0.00    +0.005 A 
ATOM     37  C   UNL     1      -3.046  -2.538  -1.265  0.00  0.00    +0.000 A 
ENDBRANCH  31  35
ENDBRANCH   1  31
TORSDOF 9
