REMARK  Name = ZINC39308688
REMARK  7 active torsions:
REMARK  status: ('A' for Active; 'I' for Inactive)
REMARK    1  A    between atoms: C_1  and  C_2
REMARK    2  A    between atoms: C_2  and  C_4
REMARK    3  A    between atoms: C_9  and  N_10
REMARK    4  A    between atoms: C_11  and  C_13
REMARK    5  A    between atoms: C_13  and  N_14
REMARK    6  A    between atoms: C_17  and  C_20
REMARK    7  A    between atoms: C_17  and  O_27
REMARK                            x       y       z     vdW  Elec       q    Type
REMARK                         _______ _______ _______ _____ _____    ______ ____
ROOT
ATOM      1  C   UNL     1       1.143  -5.064  -0.406  0.00  0.00    +0.019 C 
ENDROOT
BRANCH   1   2
ATOM      2  N   UNL     1       0.829  -6.480  -0.644  0.00  0.00    +0.386 N 
ATOM      3  C   UNL     1       0.259  -6.633  -1.988  0.00  0.00    -0.075 C 
ATOM      4  C   UNL     1      -0.145  -8.092  -2.211  0.00  0.00    +0.021 C 
ATOM      5  C   UNL     1       1.092  -8.985  -2.075  0.00  0.00    +0.088 C 
ATOM      6  C   UNL     1       1.721  -8.761  -0.697  0.00  0.00    +0.021 C 
ATOM      7  C   UNL     1       2.056  -7.278  -0.530  0.00  0.00    -0.075 C 
ATOM      8  H   UNL     1       0.159  -6.795   0.042  0.00  0.00    -0.081 HD
BRANCH   5   9
ATOM      9  C   UNL     1       0.688 -10.430  -2.216  0.00  0.00    -0.016 A 
ATOM     10  C   UNL     1      -0.575 -10.835  -1.827  0.00  0.00    +0.007 A 
ATOM     11  C   UNL     1      -0.946 -12.161  -1.957  0.00  0.00    +0.015 A 
ATOM     12  C   UNL     1      -0.053 -13.081  -2.476  0.00  0.00    +0.018 A 
ATOM     13  C   UNL     1       1.210 -12.675  -2.865  0.00  0.00    +0.015 A 
ATOM     14  C   UNL     1       1.579 -11.348  -2.740  0.00  0.00    +0.007 A 
ATOM     15 BR   UNL     1      -0.560 -14.894  -2.653  0.00  0.00    -0.050 Br
ENDBRANCH   5   9
BRANCH   5  16
ATOM     16  O   UNL     1       2.037  -8.650  -3.092  0.00  0.00    -0.384 OA
ATOM     17  H   UNL     1       2.847  -9.177  -3.066  0.00  0.00    +0.211 HD
ENDBRANCH   5  16
ENDBRANCH   1   2
BRANCH   1  19
ATOM     18  N   UNL     1      -0.087  -2.929  -0.199  0.00  0.00    -0.286 N 
ATOM     19  C   UNL     1      -0.131  -4.261  -0.401  0.00  0.00    +0.201 C 
ATOM     20  O   UNL     1      -1.197  -4.812  -0.579  0.00  0.00    -0.278 OA
ATOM     21  H   UNL     1       0.768  -2.476  -0.133  0.00  0.00    +0.155 HD
BRANCH  18  27
ATOM     22  C   UNL     1      -1.344  -0.891  -0.587  0.00  0.00    +0.042 A 
ATOM     23  C   UNL     1      -2.542  -0.170  -0.473  0.00  0.00    +0.062 A 
ATOM     24  C   UNL     1      -3.636  -0.746   0.134  0.00  0.00    +0.167 A 
ATOM     25  C   UNL     1      -3.557  -2.049   0.637  0.00  0.00    +0.168 A 
ATOM     26  C   UNL     1      -2.377  -2.768   0.527  0.00  0.00    +0.073 A 
ATOM     27  C   UNL     1      -1.271  -2.203  -0.085  0.00  0.00    +0.048 A 
ATOM     28  O   UNL     1      -4.763  -2.378   1.181  0.00  0.00    -0.453 OA
ATOM     29  C   UNL     1      -5.452  -1.129   1.377  0.00  0.00    +0.466 C 
ATOM     30  O   UNL     1      -4.895  -0.267   0.367  0.00  0.00    -0.453 OA
BRANCH  22  32
ATOM     31  C   UNL     1      -0.293   1.079  -1.867  0.00  0.00    +0.091 C 
ATOM     32  C   UNL     1      -0.178  -0.282  -1.231  0.00  0.00    +0.162 C 
ATOM     33  O   UNL     1       0.881  -0.875  -1.253  0.00  0.00    -0.292 OA
ENDBRANCH  22  32
ENDBRANCH  18  27
ENDBRANCH   1  19
TORSDOF 6
