REMARK  Name = ZINC02856587
REMARK  4 active torsions:
REMARK  status: ('A' for Active; 'I' for Inactive)
REMARK    1  A    between atoms: C_1  and  C_2
REMARK    2  A    between atoms: C_2  and  C_25
REMARK    3  A    between atoms: C_7  and  C_15
REMARK    4  A    between atoms: N_8  and  C_9
REMARK                            x       y       z     vdW  Elec       q    Type
REMARK                         _______ _______ _______ _____ _____    ______ ____
ROOT
ATOM      1  C   UNL     1       5.309   5.924   2.268  0.00  0.00    +0.012 C 
ATOM      2  C   UNL     1       6.389   5.513   1.265  0.00  0.00    -0.021 C 
ATOM      3  C   UNL     1       5.742   5.208  -0.098  0.00  0.00    +0.062 C 
ATOM      4  C   UNL     1       5.114   3.842  -0.063  0.00  0.00    +0.046 A 
ATOM      5  C   UNL     1       5.814   2.681  -0.067  0.00  0.00    +0.055 A 
ATOM      6  C   UNL     1       4.911   1.618  -0.007  0.00  0.00    +0.051 A 
ATOM      7  C   UNL     1       3.658   2.160   0.017  0.00  0.00    +0.056 A 
ATOM      8  N   UNL     1       3.785   3.530  -0.016  0.00  0.00    -0.311 N 
ATOM      9  N   UNL     1       7.229   2.662  -0.125  0.00  0.00    -0.284 N 
ATOM     10  C   UNL     1       7.860   3.549   0.676  0.00  0.00    +0.218 C 
ATOM     11  O   UNL     1       9.041   3.780   0.518  0.00  0.00    -0.275 OA
ATOM     12  C   UNL     1       7.095   4.244   1.757  0.00  0.00    +0.103 C 
ATOM     13  C   UNL     1       7.408   6.644   1.111  0.00  0.00    +0.012 C 
ATOM     14  H   UNL     1       7.713   2.051  -0.703  0.00  0.00    +0.155 HD
ENDROOT
BRANCH   8  15
ATOM     15  C   UNL     1       2.729   4.450  -0.003  0.00  0.00    +0.047 A 
ATOM     16  C   UNL     1       2.470   5.228  -1.125  0.00  0.00    +0.026 A 
ATOM     17  C   UNL     1       1.424   6.130  -1.111  0.00  0.00    +0.002 A 
ATOM     18  C   UNL     1       0.643   6.268   0.022  0.00  0.00    +0.000 A 
ATOM     19  C   UNL     1       0.902   5.500   1.142  0.00  0.00    +0.002 A 
ATOM     20  C   UNL     1       1.943   4.591   1.132  0.00  0.00    +0.026 A 
ENDBRANCH   8  15
BRANCH   7  21
ATOM     21  C   UNL     1       2.387   1.408   0.074  0.00  0.00    -0.001 A 
ATOM     22  C   UNL     1       1.195   2.012  -0.330  0.00  0.00    +0.010 A 
ATOM     23  C   UNL     1       0.013   1.304  -0.274  0.00  0.00    +0.001 A 
ATOM     24  C   UNL     1       0.006  -0.003   0.182  0.00  0.00    +0.000 A 
ATOM     25  C   UNL     1       1.183  -0.607   0.585  0.00  0.00    +0.001 A 
ATOM     26  C   UNL     1       2.373   0.090   0.533  0.00  0.00    +0.010 A 
ENDBRANCH   7  21
TORSDOF 2
