REMARK  Name = ZINC39675442
REMARK  9 active torsions:
REMARK  status: ('A' for Active; 'I' for Inactive)
REMARK    1  A    between atoms: C_1  and  C_2
REMARK    2  A    between atoms: C_2  and  C_4
REMARK    3  A    between atoms: C_2  and  N_14
REMARK    4  A    between atoms: C_4  and  C_5
REMARK    5  A    between atoms: C_5  and  C_6
REMARK    6  A    between atoms: C_9  and  O_12
REMARK    7  A    between atoms: O_12  and  C_13
REMARK    8  A    between atoms: C_15  and  C_17
REMARK    9  A    between atoms: C_28  and  C_30
REMARK                            x       y       z     vdW  Elec       q    Type
REMARK                         _______ _______ _______ _____ _____    ______ ____
ROOT
ATOM      1  C   UNL     1      -4.218  -0.831  -0.652  0.00  0.00    +0.100 C 
ATOM      2  C   UNL     1      -3.837  -2.326  -0.582  0.00  0.00    +0.121 C 
ATOM      3  N   UNL     1      -4.846  -3.009  -1.426  0.00  0.00    -0.300 N 
ATOM      4  C   UNL     1      -5.040  -2.098  -2.579  0.00  0.00    +0.115 C 
ATOM      5  C   UNL     1      -5.006  -0.685  -1.964  0.00  0.00    -0.004 C 
ATOM      6  C   UNL     1      -4.293   0.282  -2.905  0.00  0.00    -0.010 C 
ATOM      7  C   UNL     1      -5.125   0.456  -4.178  0.00  0.00    -0.082 C 
ATOM      8  N   UNL     1      -6.455   0.972  -3.830  0.00  0.00    +0.379 N 
ATOM      9  C   UNL     1      -7.170  -0.006  -3.001  0.00  0.00    -0.082 C 
ATOM     10  C   UNL     1      -6.424  -0.199  -1.678  0.00  0.00    -0.010 C 
ATOM     11  C   UNL     1      -5.451  -4.192  -1.196  0.00  0.00    +0.219 C 
ATOM     12  O   UNL     1      -5.245  -4.787  -0.160  0.00  0.00    -0.275 OA
ATOM     13  H   UNL     1      -6.355   1.836  -3.318  0.00  0.00    -0.086 HD
ATOM     14  H   UNL     1      -6.979   1.143  -4.674  0.00  0.00    -0.086 HD
ENDROOT
BRANCH  11  15
ATOM     15  C   UNL     1      -6.384  -4.773  -2.227  0.00  0.00    +0.079 C 
ATOM     16  C   UNL     1      -7.382  -5.717  -1.545  0.00  0.00    +0.017 C 
ATOM     17  C   UNL     1      -8.422  -6.151  -2.580  0.00  0.00    +0.027 C 
ATOM     18  C   UNL     1      -7.741  -6.628  -3.829  0.00  0.00    -0.031 C 
ATOM     19  C   UNL     1      -6.506  -6.375  -4.123  0.00  0.00    -0.030 C 
ATOM     20  C   UNL     1      -5.580  -5.573  -3.255  0.00  0.00    +0.039 C 
ENDBRANCH  11  15
BRANCH   1  22
ATOM     21  N   UNL     1      -3.011   1.280  -0.195  0.00  0.00    -0.312 N 
ATOM     22  C   UNL     1      -2.978   0.025  -0.687  0.00  0.00    +0.218 C 
ATOM     23  O   UNL     1      -1.950  -0.414  -1.158  0.00  0.00    -0.275 OA
ATOM     24  H   UNL     1      -3.833   1.632   0.181  0.00  0.00    +0.149 HD
BRANCH  21  26
ATOM     25  C   UNL     1      -1.702   2.805  -1.589  0.00  0.00    +0.028 C 
ATOM     26  C   UNL     1      -1.806   2.112  -0.229  0.00  0.00    +0.070 C 
BRANCH  26  27
ATOM     27  C   UNL     1      -1.883   3.167   0.877  0.00  0.00    +0.026 C 
BRANCH  27  28
ATOM     28  C   UNL     1      -1.861   2.477   2.242  0.00  0.00    +0.037 C 
BRANCH  28  29
ATOM     29  C   UNL     1      -1.937   3.516   3.331  0.00  0.00    -0.047 A 
ATOM     30  C   UNL     1      -0.776   4.067   3.842  0.00  0.00    +0.007 A 
ATOM     31  C   UNL     1      -0.843   5.019   4.840  0.00  0.00    +0.046 A 
ATOM     32  C   UNL     1      -2.077   5.423   5.330  0.00  0.00    +0.120 A 
ATOM     33  C   UNL     1      -3.240   4.869   4.816  0.00  0.00    +0.046 A 
ATOM     34  C   UNL     1      -3.168   3.921   3.814  0.00  0.00    +0.007 A 
BRANCH  32  35
ATOM     35  O   UNL     1      -2.145   6.359   6.313  0.00  0.00    -0.495 OA
ATOM     36  C   UNL     1      -3.449   6.727   6.769  0.00  0.00    +0.277 C 
ENDBRANCH  32  35
ENDBRANCH  28  29
ENDBRANCH  27  28
ENDBRANCH  26  27
ENDBRANCH  21  26
ENDBRANCH   1  22
TORSDOF 7
