REMARK  Name = ZINC38681672
REMARK  13 active torsions:
REMARK  status: ('A' for Active; 'I' for Inactive)
REMARK    1  A    between atoms: C_1  and  C_2
REMARK    2  A    between atoms: C_2  and  C_3
REMARK    3  A    between atoms: C_3  and  O_4
REMARK    4  A    between atoms: O_4  and  C_5
REMARK    5  A    between atoms: C_10  and  C_11
REMARK    6  A    between atoms: C_16  and  O_25
REMARK    7  A    between atoms: C_20  and  N_24
REMARK    8  A    between atoms: C_21  and  C_22
REMARK    9  A    between atoms: O_25  and  C_26
REMARK   10  A    between atoms: C_26  and  C_28
REMARK   11  A    between atoms: C_28  and  O_29
REMARK   12  A    between atoms: O_29  and  C_30
REMARK   13  A    between atoms: C_34  and  C_36
REMARK                            x       y       z     vdW  Elec       q    Type
REMARK                         _______ _______ _______ _____ _____    ______ ____
ROOT
ATOM      1  C   UNL     1       0.831  -4.792  -1.321  0.00  0.00    +0.101 C 
ATOM      2  C   UNL     1      -0.260  -5.654  -1.899  0.00  0.00    +0.008 A 
ATOM      3  C   UNL     1      -1.514  -5.110  -2.118  0.00  0.00    +0.012 A 
ATOM      4  C   UNL     1      -2.526  -5.886  -2.648  0.00  0.00    +0.047 A 
ATOM      5  C   UNL     1      -2.288  -7.217  -2.962  0.00  0.00    +0.135 A 
ATOM      6  C   UNL     1      -1.035  -7.764  -2.744  0.00  0.00    +0.093 A 
ATOM      7  C   UNL     1      -0.017  -6.983  -2.212  0.00  0.00    +0.138 A 
ATOM      8  O   UNL     1       1.204  -7.534  -2.004  0.00  0.00    -0.441 OA
ATOM      9  C   UNL     1       2.068  -6.949  -1.158  0.00  0.00    +0.199 C 
ATOM     10  C   UNL     1       1.946  -5.653  -0.797  0.00  0.00    +0.098 C 
ENDROOT
BRANCH   1  16
ATOM     11  C   UNL     1       1.288  -2.504  -2.237  0.00  0.00    +0.125 A 
ATOM     12  C   UNL     1       1.788  -1.666  -3.224  0.00  0.00    +0.046 A 
ATOM     13  C   UNL     1       2.356  -2.204  -4.363  0.00  0.00    +0.004 A 
ATOM     14  C   UNL     1       2.428  -3.576  -4.519  0.00  0.00    +0.001 A 
ATOM     15  C   UNL     1       1.931  -4.413  -3.537  0.00  0.00    +0.008 A 
ATOM     16  C   UNL     1       1.367  -3.880  -2.394  0.00  0.00    +0.007 A 
BRANCH  11  17
ATOM     17  O   UNL     1       0.729  -1.977  -1.117  0.00  0.00    -0.492 OA
BRANCH  17  18
ATOM     18  C   UNL     1       0.682  -0.552  -1.023  0.00  0.00    +0.229 C 
BRANCH  18  20
ATOM     19  C   UNL     1      -0.027   1.377   0.398  0.00  0.00    +0.007 C 
ATOM     20  C   UNL     1       0.023  -0.149   0.298  0.00  0.00    +0.038 C 
ENDBRANCH  18  20
ENDBRANCH  17  18
ENDBRANCH  11  17
ENDBRANCH   1  16
BRANCH   9  21
ATOM     21  N   UNL     1       3.105  -7.689  -0.648  0.00  0.00    -0.328 N 
ATOM     22  H   UNL     1       3.206  -8.620  -0.899  0.00  0.00    +0.145 HD
ATOM     23  H   UNL     1       3.737  -7.281  -0.036  0.00  0.00    +0.145 HD
ENDBRANCH   9  21
BRANCH  10  24
ATOM     24  C   UNL     1       2.902  -5.088   0.107  0.00  0.00    +0.101 C 
ATOM     25  N   UNL     1       3.660  -4.640   0.825  0.00  0.00    -0.191 NA
ENDBRANCH  10  24
BRANCH   5  26
ATOM     26  O   UNL     1      -3.284  -7.981  -3.482  0.00  0.00    -0.423 OA
BRANCH  26  27
ATOM     27  C   UNL     1      -3.792  -8.961  -2.718  0.00  0.00    +0.350 C 
ATOM     28  O   UNL     1      -3.437  -9.076  -1.569  0.00  0.00    -0.247 OA
BRANCH  27  29
ATOM     29  C   UNL     1      -4.804  -9.918  -3.293  0.00  0.00    +0.349 C 
BRANCH  29  30
ATOM     30  O   UNL     1      -5.190 -10.862  -2.292  0.00  0.00    -0.481 OA
BRANCH  30  31
ATOM     31  C   UNL     1      -6.104 -11.802  -2.649  0.00  0.00    +0.122 A 
ATOM     32  C   UNL     1      -6.614 -11.819  -3.939  0.00  0.00    +0.047 A 
ATOM     33  C   UNL     1      -7.543 -12.775  -4.301  0.00  0.00    +0.024 A 
ATOM     34  C   UNL     1      -7.965 -13.716  -3.378  0.00  0.00    +0.044 A 
ATOM     35  C   UNL     1      -7.457 -13.700  -2.091  0.00  0.00    -0.029 A 
ATOM     36  C   UNL     1      -6.523 -12.749  -1.727  0.00  0.00    +0.050 A 
ATOM     37  C   UNL     1      -7.918 -14.725  -1.087  0.00  0.00    +0.045 C 
ATOM     38 CL   UNL     1      -9.132 -14.916  -3.834  0.00  0.00    -0.083 Cl
ENDBRANCH  30  31
ENDBRANCH  29  30
ENDBRANCH  27  29
ENDBRANCH  26  27
ENDBRANCH   5  26
TORSDOF 11
