REMARK  Name = ZINC16524230
REMARK  2 active torsions:
REMARK  status: ('A' for Active; 'I' for Inactive)
REMARK    1  A    between atoms: C_10  and  N_11
REMARK    2  A    between atoms: N_11  and  C_12
REMARK                            x       y       z     vdW  Elec       q    Type
REMARK                         _______ _______ _______ _____ _____    ______ ____
ROOT
ATOM      1  C   UNL     1       0.002  -0.004   0.002  0.00  0.00    +0.001 A 
ATOM      2  C   UNL     1       1.211  -0.682  -0.014  0.00  0.00    +0.004 A 
ATOM      3  C   UNL     1       2.404   0.009  -0.015  0.00  0.00    +0.047 A 
ATOM      4  C   UNL     1       2.409   1.401  -0.001  0.00  0.00    +0.143 A 
ATOM      5  C   UNL     1       1.185   2.082   0.002  0.00  0.00    +0.065 A 
ATOM      6  C   UNL     1      -0.017   1.374   0.010  0.00  0.00    +0.015 A 
ATOM      7  C   UNL     1       1.173   3.566  -0.022  0.00  0.00    +0.205 C 
ATOM      8  O   UNL     1       0.156   4.213  -0.194  0.00  0.00    -0.286 OA
ATOM      9  C   UNL     1       2.504   4.198   0.180  0.00  0.00    +0.120 C 
ATOM     10  C   UNL     1       2.675   5.444   0.759  0.00  0.00    +0.091 C 
ATOM     11  C   UNL     1       3.631   3.362  -0.302  0.00  0.00    +0.349 C 
ATOM     12  O   UNL     1       4.540   3.830  -0.962  0.00  0.00    -0.244 OA
ATOM     13  O   UNL     1       3.596   2.052   0.031  0.00  0.00    -0.422 OA
ENDROOT
BRANCH  10  14
ATOM     14  N   UNL     1       1.602   6.148   1.173  0.00  0.00    -0.320 N 
ATOM     15  H   UNL     1       0.711   5.782   1.065  0.00  0.00    +0.152 HD
BRANCH  14  16
ATOM     16  C   UNL     1       1.774   7.406   1.758  0.00  0.00    +0.034 A 
ATOM     17  C   UNL     1       3.051   7.929   1.919  0.00  0.00    +0.043 A 
ATOM     18  C   UNL     1       3.218   9.175   2.494  0.00  0.00    +0.044 A 
ATOM     19  C   UNL     1       2.115   9.896   2.917  0.00  0.00    +0.040 A 
ATOM     20  C   UNL     1       0.843   9.375   2.763  0.00  0.00    +0.044 A 
ATOM     21  C   UNL     1       0.669   8.132   2.184  0.00  0.00    +0.043 A 
ATOM     22 CL   UNL     1      -0.537  10.283   3.296  0.00  0.00    -0.083 Cl
ATOM     23 CL   UNL     1       4.812   9.833   2.691  0.00  0.00    -0.083 Cl
ENDBRANCH  14  16
ENDBRANCH  10  14
TORSDOF 2
