REMARK  Name = ZINC39029618
REMARK  11 active torsions:
REMARK  status: ('A' for Active; 'I' for Inactive)
REMARK    1  A    between atoms: CD1_1  and  CG1_2
REMARK    2  A    between atoms: CG1_2  and  CB_3
REMARK    3  A    between atoms: CB_3  and  CG2_5
REMARK    4  A    between atoms: CB_3  and  CA_6
REMARK    5  A    between atoms: CA_6  and  C_8
REMARK    6  A    between atoms: CA_6  and  N_11
REMARK    7  A    between atoms: C_12  and  C_14
REMARK    8  A    between atoms: C_14  and  C_16
REMARK    9  A    between atoms: C_14  and  N_26
REMARK   10  A    between atoms: C_16  and  C_17
REMARK   11  A    between atoms: C_27  and  O_38
REMARK                            x       y       z     vdW  Elec       q    Type
REMARK                         _______ _______ _______ _____ _____    ______ ____
ROOT
ATOM      1  C   UNK A   0      -4.448  -4.241  -0.955  0.00  0.00    +0.170 C 
ENDROOT
BRANCH   1   2
ATOM      2  N   UNK A   0      -4.448  -5.527  -1.656  0.00  0.00    -0.244 N 
ATOM      3  C   UNK A   0      -4.974  -6.713  -0.980  0.00  0.00    +0.300 C 
ATOM      4  N   UNK A   0      -5.600  -7.618  -1.952  0.00  0.00    -0.303 N 
ATOM      5  C   UNK A   0      -4.953  -7.853  -3.160  0.00  0.00    +0.042 A 
ATOM      6  C   UNK A   0      -5.106  -9.045  -3.848  0.00  0.00    +0.024 A 
ATOM      7  C   UNK A   0      -4.451  -9.229  -5.051  0.00  0.00    +0.002 A 
ATOM      8  C   UNK A   0      -3.645  -8.231  -5.574  0.00  0.00    +0.001 A 
ATOM      9  C   UNK A   0      -3.478  -7.039  -4.899  0.00  0.00    +0.015 A 
ATOM     10  C   UNK A   0      -4.128  -6.842  -3.683  0.00  0.00    +0.058 A 
ATOM     11  C   UNK A   0      -3.967  -5.596  -2.913  0.00  0.00    +0.252 C 
ATOM     12  O   UNK A   0      -3.403  -4.639  -3.408  0.00  0.00    -0.270 OA
ATOM     13  H   UNK A   0      -6.449  -8.043  -1.755  0.00  0.00    +0.150 HD
BRANCH   3  14
ATOM     14  O   UNK A   0      -3.905  -7.397  -0.323  0.00  0.00    -0.359 OA
ATOM     15  H   UNK A   0      -4.180  -8.196   0.148  0.00  0.00    +0.213 HD
ENDBRANCH   3  14
ENDBRANCH   1   2
BRANCH   1  17
ATOM     16  N   ILE A   1      -2.790  -2.554  -0.231  0.00  0.00    -0.300 N 
ATOM     17  C   UNK A   0      -3.034  -3.730  -0.842  0.00  0.00    +0.235 C 
ATOM     18  O   UNK A   0      -2.117  -4.377  -1.302  0.00  0.00    -0.274 OA
ATOM     19  H   ILE A   1      -3.523  -2.037   0.137  0.00  0.00    +0.150 HD
BRANCH  16  20
ATOM     20  CA  ILE A   1      -1.416  -2.058  -0.121  0.00  0.00    +0.189 C 
BRANCH  20  21
ATOM     21  C   ILE A   1      -0.759  -2.661   1.093  0.00  0.00    +0.376 C 
ATOM     22  O   ILE A   1      -1.426  -3.286   1.900  0.00  0.00    -0.244 OA
ATOM     23  OXT ILE A   1       0.440  -2.525   1.269  0.00  0.00    -0.244 OA
ENDBRANCH  20  21
BRANCH  20  24
ATOM     24  CB  ILE A   1      -1.433  -0.534   0.013  0.00  0.00    +0.017 C 
ATOM     25  CG2 ILE A   1      -2.110  -0.145   1.329  0.00  0.00    +0.010 C 
BRANCH  24  27
ATOM     26  CD1 ILE A   1      -0.019   1.526   0.010  0.00  0.00    +0.004 C 
ATOM     27  CG1 ILE A   1       0.002  -0.004   0.002  0.00  0.00    +0.002 C 
ENDBRANCH  24  27
ENDBRANCH  20  24
ENDBRANCH  16  20
ENDBRANCH   1  17
BRANCH   1  28
ATOM     28  C   UNK A   0      -5.293  -3.234  -1.738  0.00  0.00    +0.069 C 
BRANCH  28  29
ATOM     29  C   UNK A   0      -6.731  -3.684  -1.746  0.00  0.00    -0.020 A 
ATOM     30  C   UNK A   0      -7.731  -3.422  -0.708  0.00  0.00    +0.003 A 
ATOM     31  C   UNK A   0      -7.710  -2.744   0.512  0.00  0.00    +0.010 A 
ATOM     32  C   UNK A   0      -8.844  -2.676   1.271  0.00  0.00    +0.001 A 
ATOM     33  C   UNK A   0     -10.018  -3.278   0.840  0.00  0.00    +0.002 A 
ATOM     34  C   UNK A   0     -10.062  -3.954  -0.361  0.00  0.00    +0.026 A 
ATOM     35  C   UNK A   0      -8.919  -4.034  -1.150  0.00  0.00    +0.047 A 
ATOM     36  N   UNK A   0      -8.646  -4.619  -2.366  0.00  0.00    -0.360 N 
ATOM     37  C   UNK A   0      -7.340  -4.395  -2.707  0.00  0.00    +0.087 A 
ATOM     38  H   UNK A   0      -9.286  -5.113  -2.903  0.00  0.00    +0.165 HD
ENDBRANCH  28  29
ENDBRANCH   1  28
TORSDOF 9
