REMARK  Name = ZINC63294117
REMARK  8 active torsions:
REMARK  status: ('A' for Active; 'I' for Inactive)
REMARK    1  A    between atoms: C_1  and  C_2
REMARK    2  A    between atoms: C_4  and  C_17
REMARK    3  A    between atoms: C_7  and  O_12
REMARK    4  A    between atoms: O_12  and  C_13
REMARK    5  A    between atoms: C_17  and  C_18
REMARK    6  A    between atoms: C_18  and  N_19
REMARK    7  A    between atoms: C_20  and  C_22
REMARK    8  A    between atoms: C_28  and  C_30
REMARK                            x       y       z     vdW  Elec       q    Type
REMARK                         _______ _______ _______ _____ _____    ______ ____
ROOT
ATOM      1  N   UNL     1       1.567  -2.291  -4.768  0.00  0.00    -0.315 N 
ATOM      2  C   UNL     1       2.227  -2.499  -5.924  0.00  0.00    +0.216 C 
ATOM      3  O   UNL     1       3.250  -3.151  -5.930  0.00  0.00    -0.276 OA
ATOM      4  H   UNL     1       0.749  -1.769  -4.763  0.00  0.00    +0.149 HD
ENDROOT
BRANCH   2   5
ATOM      5  C   UNL     1       1.694  -1.922  -7.210  0.00  0.00    +0.078 C 
ATOM      6  C   UNL     1       0.294  -2.478  -7.477  0.00  0.00    +0.032 C 
ATOM      7  C   UNL     1      -0.259  -1.863  -8.767  0.00  0.00    +0.109 C 
ATOM      8  N   UNL     1       0.702  -2.101  -9.853  0.00  0.00    -0.297 N 
ATOM      9  C   UNL     1       2.099  -1.687  -9.664  0.00  0.00    +0.109 C 
ATOM     10  C   UNL     1       2.625  -2.304  -8.364  0.00  0.00    +0.032 C 
ATOM     11  C   UNL     1       0.309  -2.689 -11.001  0.00  0.00    +0.247 C 
ATOM     12  O   UNL     1       1.096  -2.817 -11.918  0.00  0.00    -0.270 OA
BRANCH  11  13
ATOM     13  C   UNL     1      -1.079  -3.176 -11.144  0.00  0.00    +0.040 A 
ATOM     14  C   UNL     1      -2.152  -2.336 -10.843  0.00  0.00    +0.013 A 
ATOM     15  C   UNL     1      -3.446  -2.795 -10.978  0.00  0.00    +0.004 A 
ATOM     16  C   UNL     1      -3.682  -4.087 -11.412  0.00  0.00    +0.038 A 
ATOM     17  C   UNL     1      -2.623  -4.928 -11.713  0.00  0.00    +0.124 A 
ATOM     18  C   UNL     1      -1.323  -4.477 -11.586  0.00  0.00    +0.051 A 
ATOM     19  F   UNL     1      -2.861  -6.189 -12.136  0.00  0.00    -0.205 F 
ENDBRANCH  11  13
ENDBRANCH   2   5
BRANCH   1  20
ATOM     20  C   UNL     1       2.085  -2.852  -3.517  0.00  0.00    +0.108 C 
BRANCH  20  21
ATOM     21  C   UNL     1       1.155  -2.470  -2.364  0.00  0.00    +0.052 C 
BRANCH  21  24
ATOM     22  C   UNL     1       1.014  -1.438   0.706  0.00  0.00    +0.035 C 
ATOM     23  C   UNL     1       1.079  -2.912   0.300  0.00  0.00    +0.103 C 
ATOM     24  C   UNL     1       1.688  -3.047  -1.077  0.00  0.00    -0.037 C 
ATOM     25  C   UNL     1       2.807  -3.791  -0.922  0.00  0.00    +0.003 A 
ATOM     26  C   UNL     1       3.824  -4.267  -1.865  0.00  0.00    +0.056 A 
ATOM     27  C   UNL     1       4.859  -5.013  -1.409  0.00  0.00    +0.131 A 
ATOM     28  C   UNL     1       4.999  -5.353  -0.052  0.00  0.00    +0.048 A 
ATOM     29  C   UNL     1       4.115  -4.961   0.890  0.00  0.00    +0.029 A 
ATOM     30  C   UNL     1       2.955  -4.150   0.508  0.00  0.00    +0.043 A 
ATOM     31  N   UNL     1       1.967  -3.648   1.208  0.00  0.00    -0.378 N 
ATOM     32  H   UNL     1       1.843  -3.746   2.165  0.00  0.00    +0.160 HD
BRANCH  27  33
ATOM     33  O   UNL     1       5.795  -5.448  -2.294  0.00  0.00    -0.406 OA
BRANCH  33  34
ATOM     34  C   UNL     1       6.869  -6.231  -1.770  0.00  0.00    +0.575 C 
ATOM     35  F   UNL     1       6.355  -7.385  -1.169  0.00  0.00    -0.133 F 
ATOM     36  F   UNL     1       7.733  -6.592  -2.810  0.00  0.00    -0.133 F 
ATOM     37  F   UNL     1       7.571  -5.483  -0.819  0.00  0.00    -0.133 F 
ENDBRANCH  33  34
ENDBRANCH  27  33
ENDBRANCH  21  24
ENDBRANCH  20  21
ENDBRANCH   1  20
TORSDOF 7
