REMARK  Name = ZINC32897149
REMARK  2 active torsions:
REMARK  status: ('A' for Active; 'I' for Inactive)
REMARK    1  A    between atoms: C_1  and  C_2
REMARK    2  A    between atoms: C_9  and  C_14
REMARK                            x       y       z     vdW  Elec       q    Type
REMARK                         _______ _______ _______ _____ _____    ______ ____
ROOT
ATOM      1  C   UNL     1      -2.775  -0.750  -5.800  0.00  0.00    +0.029 C 
ATOM      2  C   UNL     1      -2.929   0.520  -6.639  0.00  0.00    +0.134 C 
ATOM      3  C   UNL     1      -4.243   1.179  -6.319  0.00  0.00    +0.230 C 
ATOM      4  O   UNL     1      -5.197   0.927  -7.024  0.00  0.00    -0.274 OA
ATOM      5  N   UNL     1      -4.416   2.024  -5.306  0.00  0.00    -0.284 N 
ATOM      6  C   UNL     1      -3.445   2.422  -4.390  0.00  0.00    +0.048 A 
ATOM      7  C   UNL     1      -3.838   2.929  -3.161  0.00  0.00    +0.037 A 
ATOM      8  C   UNL     1      -2.878   3.340  -2.233  0.00  0.00    +0.039 A 
ATOM      9  C   UNL     1      -1.518   3.248  -2.543  0.00  0.00    +0.014 A 
ATOM     10  C   UNL     1      -1.126   2.739  -3.762  0.00  0.00    +0.017 A 
ATOM     11  C   UNL     1      -2.080   2.328  -4.683  0.00  0.00    +0.030 A 
ATOM     12  S   UNL     1      -1.582   1.677  -6.247  0.00  0.00    -0.111 S 
ATOM     13  H   UNL     1      -5.402   2.479  -5.132  0.00  0.00    +0.155 HD
ENDROOT
BRANCH   8  14
ATOM     14  C   UNL     1      -3.301   3.877  -0.927  0.00  0.00    +0.251 C 
ATOM     15  O   UNL     1      -4.341   4.500  -0.834  0.00  0.00    -0.270 OA
ATOM     16  N   UNL     1      -2.534   3.679   0.163  0.00  0.00    -0.266 N 
ATOM     17  C   UNL     1      -2.875   4.308   1.449  0.00  0.00    +0.115 C 
ATOM     18  C   UNL     1      -2.237   5.665   1.583  0.00  0.00    +0.030 C 
ATOM     19  C   UNL     1      -0.721   5.665   1.704  0.00  0.00    +0.076 C 
ATOM     20  S   UNL     1       0.031   5.189   0.120  0.00  0.00    -0.123 S 
ATOM     21  C   UNL     1      -0.117   3.418   0.135  0.00  0.00    +0.029 A 
ATOM     22  C   UNL     1      -1.392   2.870   0.100  0.00  0.00    +0.050 A 
ATOM     23  C   UNL     1      -1.531   1.489   0.034  0.00  0.00    +0.024 A 
ATOM     24  C   UNL     1      -0.406   0.685   0.054  0.00  0.00    +0.002 A 
ATOM     25  C   UNL     1       0.859   1.240   0.120  0.00  0.00    +0.001 A 
ATOM     26  C   UNL     1       1.008   2.617   0.152  0.00  0.00    +0.016 A 
ENDBRANCH   8  14
TORSDOF 1
