REMARK  Name = ZINC64793935
REMARK  10 active torsions:
REMARK  status: ('A' for Active; 'I' for Inactive)
REMARK    1  A    between atoms: C_1  and  C_2
REMARK    2  A    between atoms: C_5  and  N_9
REMARK    3  A    between atoms: C_7  and  C_8
REMARK    4  A    between atoms: C_10  and  C_26
REMARK    5  A    between atoms: C_13  and  S_14
REMARK    6  A    between atoms: S_14  and  C_15
REMARK    7  A    between atoms: C_15  and  C_16
REMARK    8  A    between atoms: N_18  and  C_19
REMARK    9  A    between atoms: C_19  and  C_20
REMARK   10  A    between atoms: C_27  and  N_35
REMARK                            x       y       z     vdW  Elec       q    Type
REMARK                         _______ _______ _______ _____ _____    ______ ____
ROOT
ATOM      1  N   UNL     1       0.059  -4.172  -0.021  0.00  0.00    -0.270 N 
ATOM      2  C   UNL     1      -0.925  -5.018  -0.490  0.00  0.00    +0.178 A 
ATOM      3  N   UNL     1      -0.494  -6.248  -0.304  0.00  0.00    -0.127 NA
ATOM      4  N   UNL     1       0.670  -6.229   0.238  0.00  0.00    -0.122 NA
ATOM      5  C   UNL     1       1.062  -4.990   0.430  0.00  0.00    +0.197 A 
ENDROOT
BRANCH   2   6
ATOM      6  C   UNL     1      -2.209  -4.621  -1.082  0.00  0.00    +0.080 A 
ATOM      7  C   UNL     1      -3.205  -5.423  -1.550  0.00  0.00    +0.052 A 
ATOM      8  C   UNL     1      -4.401  -4.804  -2.099  0.00  0.00    +0.029 A 
ATOM      9  C   UNL     1      -5.554  -5.425  -2.639  0.00  0.00    +0.014 A 
ATOM     10  C   UNL     1      -6.579  -4.636  -3.108  0.00  0.00    +0.020 A 
ATOM     11  C   UNL     1      -6.481  -3.253  -3.052  0.00  0.00    +0.112 A 
ATOM     12  N   UNL     1      -5.405  -2.679  -2.549  0.00  0.00    -0.248 NA
ATOM     13  C   UNL     1      -4.401  -3.390  -2.088  0.00  0.00    +0.111 A 
ATOM     14  S   UNL     1      -2.838  -2.976  -1.353  0.00  0.00    -0.064 S 
BRANCH   7  15
ATOM     15  N   UNL     1      -3.081  -6.817  -1.504  0.00  0.00    -0.356 N 
ATOM     16  H   UNL     1      -2.279  -7.221  -1.136  0.00  0.00    +0.142 HD
ATOM     17  H   UNL     1      -3.796  -7.380  -1.840  0.00  0.00    +0.142 HD
ENDBRANCH   7  15
ENDBRANCH   2   6
BRANCH   1  22
ATOM     18  C   UNL     1      -0.018   1.503   0.010  0.00  0.00    +0.044 C 
ATOM     19  C   UNL     1       0.002  -0.004   0.002  0.00  0.00    -0.047 A 
ATOM     20  C   UNL     1       0.006  -0.688  -1.200  0.00  0.00    +0.005 A 
ATOM     21  C   UNL     1       0.025  -2.068  -1.211  0.00  0.00    +0.026 A 
ATOM     22  C   UNL     1       0.041  -2.771  -0.013  0.00  0.00    +0.051 A 
ATOM     23  C   UNL     1       0.037  -2.082   1.192  0.00  0.00    +0.030 A 
ATOM     24  C   UNL     1       0.023  -0.700   1.196  0.00  0.00    -0.046 A 
ATOM     25  C   UNL     1       0.025   0.048   2.504  0.00  0.00    +0.044 C 
ENDBRANCH   1  22
BRANCH   5  26
ATOM     26  S   UNL     1       2.591  -4.476   1.140  0.00  0.00    -0.076 S 
BRANCH  26  27
ATOM     27  C   UNL     1       3.446  -6.031   1.514  0.00  0.00    +0.173 C 
BRANCH  27  28
ATOM     28  C   UNL     1       4.786  -5.731   2.134  0.00  0.00    +0.223 C 
ATOM     29  O   UNL     1       5.131  -4.581   2.307  0.00  0.00    -0.275 OA
ATOM     30  N   UNL     1       5.602  -6.740   2.497  0.00  0.00    -0.312 N 
ATOM     31  H   UNL     1       5.327  -7.660   2.359  0.00  0.00    +0.149 HD
BRANCH  30  32
ATOM     32  C   UNL     1       6.905  -6.449   3.100  0.00  0.00    +0.135 C 
BRANCH  32  33
ATOM     33  C   UNL     1       7.627  -7.760   3.416  0.00  0.00    +0.135 C 
ATOM     34  C   UNL     1       8.994  -7.474   4.087  0.00  0.00    +0.035 C 
ATOM     35  C   UNL     1       9.220  -8.797   4.869  0.00  0.00    +0.031 C 
ATOM     36  C   UNL     1       7.783  -9.187   5.276  0.00  0.00    +0.160 C 
ATOM     37  O   UNL     1       6.883  -8.518   4.383  0.00  0.00    -0.375 OA
ENDBRANCH  32  33
ENDBRANCH  30  32
ENDBRANCH  27  28
ENDBRANCH  26  27
ENDBRANCH   5  26
TORSDOF 8
