REMARK  Name = ZINC33613378
REMARK  9 active torsions:
REMARK  status: ('A' for Active; 'I' for Inactive)
REMARK    1  A    between atoms: C_1  and  C_2
REMARK    2  A    between atoms: C_2  and  C_3
REMARK    3  A    between atoms: C_6  and  N_9
REMARK    4  A    between atoms: C_14  and  C_33
REMARK    5  A    between atoms: C_17  and  C_22
REMARK    6  A    between atoms: C_17  and  C_30
REMARK    7  A    between atoms: C_22  and  C_23
REMARK    8  A    between atoms: C_26  and  O_29
REMARK    9  A    between atoms: C_36  and  C_39
REMARK                            x       y       z     vdW  Elec       q    Type
REMARK                         _______ _______ _______ _____ _____    ______ ____
ROOT
ATOM      1  N   UNL     1      -5.172  -2.047   0.454  0.00  0.00    -0.210 N 
ATOM      2  C   UNL     1      -5.770  -2.250  -0.765  0.00  0.00    +0.229 C 
ATOM      3  O   UNL     1      -5.231  -2.328  -1.849  0.00  0.00    -0.275 OA
ATOM      4  C   UNL     1      -7.197  -2.352  -0.470  0.00  0.00    +0.077 C 
ATOM      5  C   UNL     1      -8.329  -3.061  -1.118  0.00  0.00    -0.027 C 
ATOM      6  N   UNL     1      -9.263  -3.393  -0.001  0.00  0.00    +0.396 N 
ATOM      7  C   UNL     1      -8.585  -3.009   1.283  0.00  0.00    +0.052 C 
ATOM      8  C   UNL     1      -7.123  -3.103   0.918  0.00  0.00    +0.086 C 
ATOM      9  C   UNL     1      -6.007  -2.329   1.502  0.00  0.00    +0.229 C 
ATOM     10  O   UNL     1      -5.864  -2.010   2.663  0.00  0.00    -0.275 OA
ATOM     11  H   UNL     1     -10.199  -2.829  -0.126  0.00  0.00    -0.083 HD
ATOM     12  H   UNL     1      -9.481  -4.471  -0.013  0.00  0.00    -0.083 HD
ENDROOT
BRANCH   1  16
ATOM     13  C   UNL     1      -1.241  -0.735   0.913  0.00  0.00    -0.048 A 
ATOM     14  C   UNL     1      -2.016  -0.998   2.028  0.00  0.00    +0.005 A 
ATOM     15  C   UNL     1      -3.321  -1.426   1.879  0.00  0.00    +0.024 A 
ATOM     16  C   UNL     1      -3.850  -1.605   0.608  0.00  0.00    +0.044 A 
ATOM     17  C   UNL     1      -3.068  -1.347  -0.510  0.00  0.00    +0.024 A 
ATOM     18  C   UNL     1      -1.766  -0.912  -0.354  0.00  0.00    +0.005 A 
BRANCH  13  20
ATOM     19  C   UNL     1       0.205   1.267   1.133  0.00  0.00    +0.009 C 
ATOM     20  C   UNL     1       0.180  -0.262   1.079  0.00  0.00    +0.032 C 
ENDBRANCH  13  20
ENDBRANCH   1  16
BRANCH   5  21
ATOM     21  C   UNL     1      -7.849  -4.328  -1.776  0.00  0.00    -0.061 A 
ATOM     22  C   UNL     1      -7.629  -5.461  -1.012  0.00  0.00    +0.003 A 
ATOM     23  C   UNL     1      -7.194  -6.626  -1.609  0.00  0.00    +0.019 A 
ATOM     24  C   UNL     1      -6.965  -6.657  -2.986  0.00  0.00    +0.052 A 
ATOM     25  C   UNL     1      -7.183  -5.510  -3.750  0.00  0.00    +0.019 A 
ATOM     26  C   UNL     1      -7.623  -4.353  -3.141  0.00  0.00    +0.003 A 
BRANCH  24  27
ATOM     27  C   UNL     1      -6.508  -7.862  -3.611  0.00  0.00    +0.099 C 
ATOM     28  N   UNL     1      -6.145  -8.817  -4.108  0.00  0.00    -0.191 NA
ENDBRANCH  24  27
ENDBRANCH   5  21
BRANCH   7  29
ATOM     29  C   UNL     1      -8.927  -3.981   2.382  0.00  0.00    +0.347 C 
ATOM     30  O   UNL     1      -8.068  -4.360   3.143  0.00  0.00    -0.248 OA
ATOM     31  O   UNL     1     -10.186  -4.427   2.515  0.00  0.00    -0.248 OA
ENDBRANCH   7  29
BRANCH   7  32
ATOM     32  C   UNL     1      -8.953  -1.579   1.686  0.00  0.00    +0.035 C 
BRANCH  32  33
ATOM     33  C   UNL     1     -10.404  -1.529   2.090  0.00  0.00    -0.048 A 
ATOM     34  C   UNL     1     -11.375  -1.261   1.144  0.00  0.00    +0.007 A 
ATOM     35  C   UNL     1     -12.707  -1.220   1.511  0.00  0.00    +0.045 A 
ATOM     36  C   UNL     1     -13.067  -1.438   2.832  0.00  0.00    +0.117 A 
ATOM     37  C   UNL     1     -12.090  -1.701   3.781  0.00  0.00    +0.045 A 
ATOM     38  C   UNL     1     -10.761  -1.746   3.408  0.00  0.00    +0.007 A 
BRANCH  36  39
ATOM     39  O   UNL     1     -14.376  -1.393   3.197  0.00  0.00    -0.507 OA
ATOM     40  H   UNL     1     -14.661  -1.566   4.245  0.00  0.00    +0.292 HD
ENDBRANCH  36  39
ENDBRANCH  32  33
ENDBRANCH   7  32
TORSDOF 8
