REMARK  Name = ZINC13568473
REMARK  10 active torsions:
REMARK  status: ('A' for Active; 'I' for Inactive)
REMARK    1  A    between atoms: C_1  and  C_2
REMARK    2  A    between atoms: C_10  and  C_13
REMARK    3  A    between atoms: C_18  and  C_23
REMARK    4  A    between atoms: C_26  and  N_29
REMARK    5  A    between atoms: N_29  and  C_30
REMARK    6  A    between atoms: N_29  and  C_31
REMARK    7  A    between atoms: C_33  and  C_39
REMARK    8  A    between atoms: C_34  and  C_35
REMARK    9  A    between atoms: C_35  and  O_37
REMARK   10  A    between atoms: O_37  and  C_38
REMARK                            x       y       z     vdW  Elec       q    Type
REMARK                         _______ _______ _______ _____ _____    ______ ____
ROOT
ATOM      1  C   UNL     1       1.184   2.221  -0.154  0.00  0.00    +0.099 C 
ATOM      2  C   UNL     1       2.396   1.452   0.307  0.00  0.00    +0.024 C 
ATOM      3  C   UNL     1       2.396   0.102   0.309  0.00  0.00    +0.016 C 
ATOM      4  C   UNL     1       3.614  -0.674   0.745  0.00  0.00    +0.059 C 
ATOM      5  C   UNL     1       4.377   0.122   1.805  0.00  0.00    +0.032 C 
ATOM      6  C   UNL     1       4.766   1.479   1.208  0.00  0.00    +0.088 C 
ATOM      7  C   UNL     1       3.523   2.178   0.729  0.00  0.00    +0.162 C 
ATOM      8  O   UNL     1       3.493   3.392   0.707  0.00  0.00    -0.292 OA
ATOM      9  N   UNL     1       1.286  -0.594  -0.091  0.00  0.00    -0.321 N 
ATOM     10  C   UNL     1       0.060   0.010  -0.125  0.00  0.00    +0.016 C 
ATOM     11  C   UNL     1      -0.038   1.350  -0.153  0.00  0.00    +0.065 C 
ATOM     12  C   UNL     1      -1.189  -0.833  -0.133  0.00  0.00    +0.061 C 
ATOM     13  H   UNL     1       1.376  -1.649  -0.387  0.00  0.00    +0.152 HD
ENDROOT
BRANCH   1  23
ATOM     14  C   UNL     1       1.953   7.720  -5.250  0.00  0.00    +0.044 C 
ATOM     15  C   UNL     1       1.926   6.264  -4.861  0.00  0.00    -0.050 A 
ATOM     16  C   UNL     1       2.134   5.288  -5.825  0.00  0.00    +0.007 A 
ATOM     17  C   UNL     1       2.112   3.951  -5.489  0.00  0.00    +0.047 A 
ATOM     18  C   UNL     1       1.881   3.571  -4.172  0.00  0.00    +0.138 A 
ATOM     19  C   UNL     1       1.672   4.560  -3.197  0.00  0.00    +0.064 A 
ATOM     20  C   UNL     1       1.696   5.909  -3.550  0.00  0.00    +0.018 A 
ATOM     21  C   UNL     1       1.429   4.131  -1.807  0.00  0.00    +0.197 A 
ATOM     22  O   UNL     1       1.240   4.941  -0.915  0.00  0.00    -0.287 OA
ATOM     23  C   UNL     1       1.425   2.735  -1.550  0.00  0.00    +0.047 A 
ATOM     24  C   UNL     1       1.643   1.873  -2.560  0.00  0.00    +0.204 A 
ATOM     25  O   UNL     1       1.856   2.270  -3.819  0.00  0.00    -0.462 OA
ENDBRANCH   1  23
BRANCH   5  26
ATOM     26  C   UNL     1       5.620  -0.629   2.206  0.00  0.00    -0.043 A 
ATOM     27  C   UNL     1       6.579  -0.932   1.256  0.00  0.00    +0.006 A 
ATOM     28  C   UNL     1       7.722  -1.616   1.621  0.00  0.00    +0.023 A 
ATOM     29  C   UNL     1       7.903  -2.010   2.941  0.00  0.00    +0.029 A 
ATOM     30  C   UNL     1       6.935  -1.708   3.891  0.00  0.00    +0.023 A 
ATOM     31  C   UNL     1       5.797  -1.019   3.521  0.00  0.00    +0.006 A 
BRANCH  29  32
ATOM     32  N   UNL     1       9.055  -2.707   3.312  0.00  0.00    -0.336 N 
ATOM     33  C   UNL     1       9.194  -3.219   4.678  0.00  0.00    +0.129 C 
ATOM     34  C   UNL     1      10.125  -2.926   2.336  0.00  0.00    +0.129 C 
ENDBRANCH  29  32
ENDBRANCH   5  26
BRANCH  11  35
ATOM     35  C   UNL     1      -1.319   1.951  -0.189  0.00  0.00    +0.337 C 
ATOM     36  O   UNL     1      -2.313   1.258  -0.301  0.00  0.00    -0.245 OA
BRANCH  35  37
ATOM     37  O   UNL     1      -1.437   3.292  -0.098  0.00  0.00    -0.465 OA
ATOM     38  C   UNL     1      -2.760   3.830  -0.140  0.00  0.00    +0.280 C 
ENDBRANCH  35  37
ENDBRANCH  11  35
TORSDOF 5
