REMARK  Name = ZINC33332057
REMARK  9 active torsions:
REMARK  status: ('A' for Active; 'I' for Inactive)
REMARK    1  A    between atoms: C_1  and  C_2
REMARK    2  A    between atoms: N_7  and  C_9
REMARK    3  A    between atoms: C_9  and  C_10
REMARK    4  A    between atoms: C_10  and  C_11
REMARK    5  A    between atoms: C_11  and  N_12
REMARK    6  A    between atoms: C_13  and  C_15
REMARK    7  A    between atoms: C_15  and  C_16
REMARK    8  A    between atoms: C_16  and  C_17
REMARK    9  A    between atoms: C_17  and  N_18
REMARK                            x       y       z     vdW  Elec       q    Type
REMARK                         _______ _______ _______ _____ _____    ______ ____
ROOT
ATOM      1  C   UNL     1      -0.110   1.453   9.813  0.00  0.00    +0.031 C 
ENDROOT
BRANCH   1   2
ATOM      2  C   UNL     1      -0.735   2.058   8.554  0.00  0.00    +0.097 C 
BRANCH   2   4
ATOM      3  N   UNL     1      -0.585   1.740   6.106  0.00  0.00    -0.315 N 
ATOM      4  C   UNL     1      -0.176   1.370   7.336  0.00  0.00    +0.213 C 
ATOM      5  O   UNL     1       0.642   0.484   7.461  0.00  0.00    -0.276 OA
ATOM      6  H   UNL     1      -1.327   2.544   5.992  0.00  0.00    +0.149 HD
BRANCH   3   7
ATOM      7  C   UNL     1      -0.042   1.072   4.921  0.00  0.00    +0.102 C 
BRANCH   7   8
ATOM      8  C   UNL     1      -0.667   1.677   3.662  0.00  0.00    +0.000 C 
BRANCH   8   9
ATOM      9  C   UNL     1      -0.099   0.979   2.425  0.00  0.00    -0.077 C 
BRANCH   9  15
ATOM     10  C   UNL     1      -0.024   1.117  -2.491  0.00  0.00    +0.005 C 
ATOM     11  C   UNL     1      -0.752   1.593  -1.232  0.00  0.00    -0.031 C 
ATOM     12  C   UNL     1      -0.788   3.123  -1.209  0.00  0.00    -0.001 C 
ATOM     13  C   UNL     1      -1.465   3.591   0.082  0.00  0.00    -0.018 C 
ATOM     14  C   UNL     1      -0.705   3.026   1.284  0.00  0.00    -0.079 C 
ATOM     15  N   UNL     1      -0.700   1.559   1.216  0.00  0.00    +0.380 N 
ATOM     16  C   UNL     1      -0.013   1.086   0.008  0.00  0.00    -0.076 C 
ATOM     17  H   UNL     1      -1.745   1.222   1.161  0.00  0.00    -0.082 HD
ENDBRANCH   9  15
ENDBRANCH   8   9
ENDBRANCH   7   8
ENDBRANCH   3   7
ENDBRANCH   2   4
ENDBRANCH   1   2
BRANCH   1  18
ATOM     18  C   UNL     1      -0.678   2.151  11.050  0.00  0.00    +0.126 C 
BRANCH  18  19
ATOM     19  N   UNL     1      -0.079   1.572  12.256  0.00  0.00    -0.305 N 
ATOM     20  C   UNL     1      -0.692   0.485  12.880  0.00  0.00    +0.070 A 
ATOM     21  C   UNL     1      -1.860  -0.045  12.346  0.00  0.00    +0.043 A 
ATOM     22  C   UNL     1      -2.470  -1.125  12.954  0.00  0.00    +0.020 A 
ATOM     23  C   UNL     1      -1.918  -1.686  14.094  0.00  0.00    +0.017 A 
ATOM     24  C   UNL     1      -0.755  -1.169  14.629  0.00  0.00    +0.029 A 
ATOM     25  C   UNL     1      -0.135  -0.084  14.024  0.00  0.00    +0.070 A 
ATOM     26  N   UNL     1       1.044   0.437  14.569  0.00  0.00    -0.310 N 
ATOM     27  C   UNL     1       1.779   0.086  15.653  0.00  0.00    +0.092 A 
ATOM     28  C   UNL     1       2.845   0.917  15.750  0.00  0.00    +0.020 A 
ATOM     29  C   UNL     1       2.780   1.826  14.690  0.00  0.00    +0.033 A 
ATOM     30  C   UNL     1       1.653   1.516  13.961  0.00  0.00    +0.112 A 
ATOM     31  C   UNL     1       1.057   2.097  12.757  0.00  0.00    +0.276 A 
ATOM     32  O   UNL     1       1.585   3.048  12.210  0.00  0.00    -0.265 OA
ATOM     33 BR   UNL     1      -4.064  -1.839  12.229  0.00  0.00    -0.050 Br
ENDBRANCH  18  19
ENDBRANCH   1  18
TORSDOF 8
