REMARK  Name = ZINC09043011
REMARK  9 active torsions:
REMARK  status: ('A' for Active; 'I' for Inactive)
REMARK    1  A    between atoms: C_1  and  C_2
REMARK    2  A    between atoms: C_7  and  N_11
REMARK    3  A    between atoms: C_12  and  C_14
REMARK    4  A    between atoms: C_14  and  S_15
REMARK    5  A    between atoms: S_15  and  C_16
REMARK    6  A    between atoms: C_22  and  C_27
REMARK    7  A    between atoms: C_30  and  C_33
REMARK    8  A    between atoms: C_33  and  C_34
REMARK    9  A    between atoms: C_33  and  C_35
REMARK                            x       y       z     vdW  Elec       q    Type
REMARK                         _______ _______ _______ _____ _____    ______ ____
ROOT
ATOM      1  C   UNL     1       7.814   8.171  -0.484  0.00  0.00    +0.170 A 
ATOM      2  N   UNL     1       8.116   9.498  -0.591  0.00  0.00    -0.301 N 
ATOM      3  H   UNL     1       7.398  10.151  -0.594  0.00  0.00    +0.171 HD
ATOM      4  C   UNL     1       9.390   9.916  -0.694  0.00  0.00    +0.261 A 
ATOM      5  O   UNL     1       9.643  11.105  -0.789  0.00  0.00    -0.267 OA
ATOM      6  C   UNL     1      10.443   8.951  -0.690  0.00  0.00    +0.080 A 
ATOM      7  C   UNL     1      11.885   9.159  -0.788  0.00  0.00    +0.004 A 
ATOM      8  C   UNL     1      12.702   8.079  -0.762  0.00  0.00    +0.056 A 
ATOM      9  S   UNL     1      11.573   6.709  -0.604  0.00  0.00    -0.076 S 
ATOM     10  C   UNL     1      10.043   7.608  -0.576  0.00  0.00    +0.117 A 
ATOM     11  N   UNL     1       8.765   7.261  -0.473  0.00  0.00    -0.216 NA
ENDROOT
BRANCH   7  12
ATOM     12  C   UNL     1      12.444  10.526  -0.913  0.00  0.00    -0.017 A 
ATOM     13  C   UNL     1      11.941  11.402  -1.875  0.00  0.00    +0.009 A 
ATOM     14  C   UNL     1      12.463  12.675  -1.984  0.00  0.00    +0.004 A 
ATOM     15  C   UNL     1      13.488  13.079  -1.148  0.00  0.00    -0.045 A 
ATOM     16  C   UNL     1      13.994  12.213  -0.195  0.00  0.00    +0.004 A 
ATOM     17  C   UNL     1      13.477  10.939  -0.074  0.00  0.00    +0.009 A 
BRANCH  15  18
ATOM     18  C   UNL     1      14.057  14.469  -1.276  0.00  0.00    +0.013 C 
ATOM     19  C   UNL     1      14.628  14.659  -2.683  0.00  0.00    +0.012 C 
ATOM     20  C   UNL     1      12.950  15.497  -1.031  0.00  0.00    +0.012 C 
ENDBRANCH  15  18
ENDBRANCH   7  12
BRANCH   1  21
ATOM     21  S   UNL     1       6.129   7.671  -0.352  0.00  0.00    -0.078 S 
BRANCH  21  22
ATOM     22  C   UNL     1       6.342   5.877  -0.243  0.00  0.00    +0.173 C 
BRANCH  22  24
ATOM     23  N   UNL     1       4.904   3.876  -0.024  0.00  0.00    -0.285 N 
ATOM     24  C   UNL     1       4.993   5.217  -0.120  0.00  0.00    +0.227 C 
ATOM     25  O   UNL     1       3.986   5.894  -0.107  0.00  0.00    -0.275 OA
ATOM     26  H   UNL     1       5.711   3.340   0.033  0.00  0.00    +0.155 HD
BRANCH  23  33
ATOM     27  C   UNL     1      -2.511   1.789   0.902  0.00  0.00    +0.073 C 
ATOM     28  C   UNL     1      -1.068   2.181   0.714  0.00  0.00    +0.076 A 
ATOM     29  N   UNL     1      -0.123   1.520   0.108  0.00  0.00    -0.244 NA
ATOM     30  C   UNL     1       1.140   1.986   0.008  0.00  0.00    +0.079 A 
ATOM     31  C   UNL     1       2.261   1.390  -0.613  0.00  0.00    +0.031 A 
ATOM     32  C   UNL     1       3.469   2.014  -0.614  0.00  0.00    +0.025 A 
ATOM     33  C   UNL     1       3.649   3.256  -0.008  0.00  0.00    +0.035 A 
ATOM     34  C   UNL     1       2.570   3.872   0.612  0.00  0.00    +0.040 A 
ATOM     35  C   UNL     1       1.349   3.245   0.615  0.00  0.00    +0.041 A 
ATOM     36  S   UNL     1      -0.264   3.622   1.254  0.00  0.00    -0.072 S 
ENDBRANCH  23  33
ENDBRANCH  22  24
ENDBRANCH  21  22
ENDBRANCH   1  21
TORSDOF 6
