REMARK  Name = ZINC60344068
REMARK  6 active torsions:
REMARK  status: ('A' for Active; 'I' for Inactive)
REMARK    1  A    between atoms: C_1  and  N_2
REMARK    2  A    between atoms: C_11  and  C_13
REMARK    3  A    between atoms: N_15  and  N_16
REMARK    4  A    between atoms: C_17  and  C_19
REMARK    5  A    between atoms: C_19  and  C_20
REMARK    6  A    between atoms: C_25  and  O_26
REMARK                            x       y       z     vdW  Elec       q    Type
REMARK                         _______ _______ _______ _____ _____    ______ ____
ROOT
ATOM      1  C   UNL     1       2.645  -2.487  -0.024  0.00  0.00    +0.281 C 
ATOM      2  O   UNL     1       2.781  -3.695  -0.031  0.00  0.00    -0.267 OA
ATOM      3  N   UNL     1       3.730  -1.687  -0.025  0.00  0.00    -0.229 N 
ATOM      4  H   UNL     1       3.622  -0.723  -0.020  0.00  0.00    +0.173 HD
ENDROOT
BRANCH   1  15
ATOM      5  C   UNL     1      -0.018   1.461   0.010  0.00  0.00    +0.176 C 
ATOM      6  N   UNL     1       0.002  -0.004   0.002  0.00  0.00    -0.231 N 
ATOM      7  C   UNL     1      -1.177  -0.658   0.004  0.00  0.00    +0.275 A 
ATOM      8  O   UNL     1      -2.230  -0.046   0.012  0.00  0.00    -0.266 OA
ATOM      9  C   UNL     1      -1.163  -2.128  -0.004  0.00  0.00    +0.050 A 
ATOM     10  C   UNL     1      -2.323  -2.895  -0.002  0.00  0.00    +0.014 A 
ATOM     11  C   UNL     1      -2.224  -4.270  -0.009  0.00  0.00    +0.001 A 
ATOM     12  C   UNL     1      -0.982  -4.892  -0.018  0.00  0.00    +0.001 A 
ATOM     13  C   UNL     1       0.179  -4.149  -0.020  0.00  0.00    +0.011 A 
ATOM     14  C   UNL     1       0.102  -2.761  -0.013  0.00  0.00    +0.020 A 
ATOM     15  C   UNL     1       1.292  -1.896  -0.015  0.00  0.00    +0.155 A 
ATOM     16  N   UNL     1       1.137  -0.594  -0.012  0.00  0.00    -0.163 NA
ENDBRANCH   1  15
BRANCH   3  17
ATOM     17  N   UNL     1       5.014  -2.248  -0.034  0.00  0.00    -0.234 N 
ATOM     18  C   UNL     1       6.098  -1.448  -0.035  0.00  0.00    +0.234 C 
ATOM     19  O   UNL     1       5.963  -0.243  -0.028  0.00  0.00    -0.274 OA
ATOM     20  H   UNL     1       5.122  -3.212  -0.040  0.00  0.00    +0.173 HD
BRANCH  18  21
ATOM     21  C   UNL     1       7.479  -2.051  -0.045  0.00  0.00    +0.136 C 
BRANCH  21  22
ATOM     22  C   UNL     1       8.509  -0.951  -0.044  0.00  0.00    +0.003 A 
ATOM     23  C   UNL     1       9.047  -0.507  -1.236  0.00  0.00    +0.008 A 
ATOM     24  C   UNL     1       9.992   0.503  -1.236  0.00  0.00    +0.001 A 
ATOM     25  C   UNL     1      10.399   1.071  -0.043  0.00  0.00    +0.004 A 
ATOM     26  C   UNL     1       9.864   0.631   1.151  0.00  0.00    +0.046 A 
ATOM     27  C   UNL     1       8.912  -0.378   1.153  0.00  0.00    +0.120 A 
BRANCH  27  28
ATOM     28  O   UNL     1       8.379  -0.809   2.327  0.00  0.00    -0.506 OA
ATOM     29  H   UNL     1       8.868  -1.535   2.738  0.00  0.00    +0.292 HD
ENDBRANCH  27  28
ENDBRANCH  21  22
ENDBRANCH  18  21
ENDBRANCH   3  17
TORSDOF 5
