REMARK  Name = ZINC19420965
REMARK  6 active torsions:
REMARK  status: ('A' for Active; 'I' for Inactive)
REMARK    1  A    between atoms: C_1  and  C_2
REMARK    2  A    between atoms: C_5  and  N_8
REMARK    3  A    between atoms: C_12  and  S_13
REMARK    4  A    between atoms: S_13  and  C_14
REMARK    5  A    between atoms: C_14  and  C_15
REMARK    6  A    between atoms: C_15  and  C_17
REMARK                            x       y       z     vdW  Elec       q    Type
REMARK                         _______ _______ _______ _____ _____    ______ ____
ROOT
ATOM      1  N   UNL     1       3.696   3.444   1.207  0.00  0.00    -0.259 N 
ATOM      2  C   UNL     1       3.394   2.123   1.398  0.00  0.00    +0.225 A 
ATOM      3  N   UNL     1       4.520   1.464   1.518  0.00  0.00    -0.112 NA
ATOM      4  N   UNL     1       5.574   2.377   1.393  0.00  0.00    -0.120 NA
ATOM      5  C   UNL     1       5.059   3.569   1.209  0.00  0.00    +0.198 A 
ATOM      6  N   UNL     1       2.118   1.578   1.459  0.00  0.00    -0.299 N 
ATOM      7  C   UNL     1       1.921   0.579   0.402  0.00  0.00    +0.108 C 
ATOM      8  C   UNL     1       0.465   0.107   0.408  0.00  0.00    +0.019 C 
ATOM      9  C   UNL     1       0.136  -0.498   1.776  0.00  0.00    +0.003 C 
ATOM     10  C   UNL     1       0.395   0.548   2.864  0.00  0.00    +0.019 C 
ATOM     11  C   UNL     1       1.853   1.007   2.786  0.00  0.00    +0.108 C 
ENDROOT
BRANCH   1  16
ATOM     12  C   UNL     1      -0.043   7.661   0.531  0.00  0.00    +0.044 C 
ATOM     13  C   UNL     1       0.950   6.541   0.711  0.00  0.00    -0.050 A 
ATOM     14  C   UNL     1       1.746   6.500   1.840  0.00  0.00    +0.005 A 
ATOM     15  C   UNL     1       2.656   5.475   2.008  0.00  0.00    +0.026 A 
ATOM     16  C   UNL     1       2.772   4.486   1.040  0.00  0.00    +0.052 A 
ATOM     17  C   UNL     1       1.976   4.534  -0.096  0.00  0.00    +0.026 A 
ATOM     18  C   UNL     1       1.063   5.558  -0.255  0.00  0.00    +0.005 A 
ENDBRANCH   1  16
BRANCH   5  19
ATOM     19  S   UNL     1       5.963   5.067   1.001  0.00  0.00    -0.078 S 
BRANCH  19  20
ATOM     20  C   UNL     1       7.699   4.551   1.103  0.00  0.00    +0.157 C 
BRANCH  20  21
ATOM     21  C   UNL     1       8.592   5.754   0.939  0.00  0.00    +0.173 C 
ATOM     22  O   UNL     1       8.105   6.852   0.769  0.00  0.00    -0.291 OA
BRANCH  21  23
ATOM     23  C   UNL     1      10.051   5.597   0.983  0.00  0.00    +0.019 A 
ATOM     24  C   UNL     1      10.616   4.330   1.179  0.00  0.00    +0.013 A 
ATOM     25  C   UNL     1      11.973   4.186   1.220  0.00  0.00    +0.024 A 
ATOM     26  C   UNL     1      12.801   5.294   1.069  0.00  0.00    +0.037 A 
ATOM     27  C   UNL     1      12.249   6.558   0.875  0.00  0.00    -0.025 A 
ATOM     28  C   UNL     1      10.883   6.712   0.825  0.00  0.00    +0.016 A 
ATOM     29  C   UNL     1      13.151   7.753   0.712  0.00  0.00    +0.046 C 
ATOM     30  C   UNL     1      14.403   7.569   1.571  0.00  0.00    +0.101 C 
ATOM     31  C   UNL     1      14.984   6.199   1.340  0.00  0.00    +0.218 C 
ATOM     32  O   UNL     1      16.187   6.048   1.361  0.00  0.00    -0.275 OA
ATOM     33  N   UNL     1      14.185   5.141   1.112  0.00  0.00    -0.285 N 
ATOM     34  H   UNL     1      14.633   4.149   0.959  0.00  0.00    +0.155 HD
ENDBRANCH  21  23
ENDBRANCH  20  21
ENDBRANCH  19  20
ENDBRANCH   5  19
TORSDOF 5
