REMARK  Name = ZINC60210862
REMARK  12 active torsions:
REMARK  status: ('A' for Active; 'I' for Inactive)
REMARK    1  A    between atoms: C_1  and  C_2
REMARK    2  A    between atoms: C_2  and  C_3
REMARK    3  A    between atoms: C_2  and  C_4
REMARK    4  A    between atoms: C_4  and  C_5
REMARK    5  A    between atoms: C_5  and  C_7
REMARK    6  A    between atoms: C_5  and  N_21
REMARK    7  A    between atoms: N_9  and  C_10
REMARK    8  A    between atoms: C_10  and  C_11
REMARK    9  A    between atoms: N_16  and  C_18
REMARK   10  A    between atoms: C_18  and  C_19
REMARK   11  A    between atoms: C_18  and  C_20
REMARK   12  A    between atoms: C_22  and  C_24
REMARK                            x       y       z     vdW  Elec       q    Type
REMARK                         _______ _______ _______ _____ _____    ______ ____
ROOT
ATOM      1  C   UNL     1      -1.416  -2.058  -0.121  0.00  0.00    +0.159 C 
ENDROOT
BRANCH   1   2
ATOM      2  C   UNL     1      -2.819  -2.590   0.013  0.00  0.00    +0.233 C 
ATOM      3  O   UNL     1      -3.320  -3.216  -0.898  0.00  0.00    -0.274 OA
ATOM      4  N   UNL     1      -3.518  -2.371   1.144  0.00  0.00    -0.314 N 
ATOM      5  H   UNL     1      -3.118  -1.870   1.872  0.00  0.00    +0.149 HD
BRANCH   4   6
ATOM      6  C   UNL     1      -4.882  -2.888   1.274  0.00  0.00    +0.106 C 
BRANCH   6   7
ATOM      7  C   UNL     1      -5.446  -2.503   2.643  0.00  0.00    -0.011 C 
ATOM      8  C   UNL     1      -5.582  -0.980   2.730  0.00  0.00    +0.001 C 
ATOM      9  C   UNL     1      -6.219  -0.611   4.073  0.00  0.00    -0.018 C 
ATOM     10  C   UNL     1      -7.567  -1.323   4.205  0.00  0.00    -0.078 C 
ATOM     11  N   UNL     1      -7.366  -2.775   4.141  0.00  0.00    +0.381 N 
ATOM     12  C   UNL     1      -6.822  -3.146   2.829  0.00  0.00    -0.074 C 
ATOM     13  H   UNL     1      -6.720  -3.057   4.863  0.00  0.00    -0.081 HD
BRANCH  11  14
ATOM     14  C   UNL     1      -8.652  -3.456   4.346  0.00  0.00    -0.075 C 
ATOM     15  C   UNL     1      -8.444  -4.970   4.279  0.00  0.00    -0.014 C 
ATOM     16  C   UNL     1      -9.215  -3.079   5.718  0.00  0.00    -0.014 C 
ENDBRANCH  11  14
ENDBRANCH   6   7
ENDBRANCH   4   6
ENDBRANCH   1   2
BRANCH   1  17
ATOM     17  N   UNL     1      -0.876  -2.426  -1.433  0.00  0.00    -0.300 N 
ATOM     18  C   UNL     1       0.456  -2.525  -1.610  0.00  0.00    +0.246 C 
ATOM     19  O   UNL     1       1.210  -2.307  -0.682  0.00  0.00    -0.270 OA
ATOM     20  H   UNL     1      -1.478  -2.600  -2.173  0.00  0.00    +0.150 HD
BRANCH  18  21
ATOM     21  C   UNL     1       1.000  -2.896  -2.932  0.00  0.00    +0.055 A 
ATOM     22  C   UNL     1       0.136  -3.141  -4.002  0.00  0.00    +0.016 A 
ATOM     23  C   UNL     1       0.649  -3.487  -5.233  0.00  0.00    +0.021 A 
ATOM     24  C   UNL     1       2.019  -3.594  -5.412  0.00  0.00    +0.042 A 
ATOM     25  C   UNL     1       2.881  -3.353  -4.356  0.00  0.00    +0.040 A 
ATOM     26  C   UNL     1       2.381  -2.999  -3.119  0.00  0.00    +0.054 A 
ATOM     27 CL   UNL     1       3.463  -2.690  -1.798  0.00  0.00    -0.083 Cl
ATOM     28 CL   UNL     1       2.656  -4.031  -6.966  0.00  0.00    -0.083 Cl
ENDBRANCH  18  21
ENDBRANCH   1  17
BRANCH   1  29
ATOM     29  C   UNL     1      -1.433  -0.534   0.013  0.00  0.00    +0.034 C 
BRANCH  29  31
ATOM     30  C   UNL     1      -0.019   1.526   0.010  0.00  0.00    +0.007 C 
ATOM     31  C   UNL     1       0.002  -0.004   0.002  0.00  0.00    -0.015 C 
ATOM     32  C   UNL     1       0.742  -0.511   1.242  0.00  0.00    +0.007 C 
ENDBRANCH  29  31
ENDBRANCH   1  29
TORSDOF 8
