REMARK  Name = ZINC08586232
REMARK  14 active torsions:
REMARK  status: ('A' for Active; 'I' for Inactive)
REMARK    1  A    between atoms: C_1  and  C_2
REMARK    2  A    between atoms: C_2  and  C_3
REMARK    3  A    between atoms: C_3  and  C_5
REMARK    4  A    between atoms: C_3  and  N_67
REMARK    5  A    between atoms: N_9  and  C_10
REMARK    6  A    between atoms: C_10  and  C_11
REMARK    7  A    between atoms: C_16  and  C_17
REMARK    8  A    between atoms: C_16  and  N_67
REMARK    9  A    between atoms: C_17  and  C_18
REMARK   10  A    between atoms: C_24  and  C_25
REMARK   11  A    between atoms: C_24  and  N_67
REMARK   12  A    between atoms: C_30  and  O_36
REMARK   13  A    between atoms: C_34  and  O_35
REMARK   14  A    between atoms: O_36  and  C_37
REMARK                            x       y       z     vdW  Elec       q    Type
REMARK                         _______ _______ _______ _____ _____    ______ ____
ROOT
ATOM      1  N   UNL     1       7.002   6.847  -1.730  0.00  0.00    +0.389 N 
ATOM      2  H   UNL     1       6.480   7.520  -2.304  0.00  0.00    -0.080 HD
ENDROOT
BRANCH   1   3
ATOM      3  C   UNL     1       8.226   7.500  -1.219  0.00  0.00    +0.003 C 
BRANCH   3   4
ATOM      4  C   UNL     1       7.910   8.941  -0.911  0.00  0.00    +0.139 A 
ATOM      5  N   UNL     1       6.864   9.391  -0.261  0.00  0.00    -0.115 NA
ATOM      6  N   UNL     1       6.955  10.675  -0.203  0.00  0.00    -0.023 NA
ATOM      7  N   UNL     1       8.031  11.055  -0.798  0.00  0.00    -0.044 NA
ATOM      8  N   UNL     1       8.650  10.015  -1.244  0.00  0.00    -0.223 N 
BRANCH   8   9
ATOM      9  C   UNL     1       9.918  10.004  -1.977  0.00  0.00    +0.221 C 
BRANCH   9  10
ATOM     10  C   UNL     1       9.644  10.109  -3.455  0.00  0.00    +0.126 A 
ATOM     11  C   UNL     1       9.544  11.251  -4.158  0.00  0.00    +0.046 A 
ATOM     12  C   UNL     1       9.285  10.886  -5.499  0.00  0.00    +0.041 A 
ATOM     13  C   UNL     1       9.235   9.542  -5.534  0.00  0.00    +0.195 A 
ATOM     14  O   UNL     1       9.453   9.077  -4.293  0.00  0.00    -0.466 OA
ENDBRANCH   9  10
ENDBRANCH   8   9
ENDBRANCH   3   4
BRANCH   3  16
ATOM     15  C   UNL     1       9.175   5.383  -0.291  0.00  0.00    +0.002 C 
ATOM     16  C   UNL     1       8.713   6.801   0.051  0.00  0.00    -0.011 C 
ENDBRANCH   3  16
ENDBRANCH   1   3
BRANCH   1  17
ATOM     17  C   UNL     1       7.361   5.681  -2.564  0.00  0.00    -0.073 C 
BRANCH  17  18
ATOM     18  C   UNL     1       7.901   6.184  -3.905  0.00  0.00    +0.016 C 
BRANCH  18  19
ATOM     19  C   UNL     1       8.133   5.012  -4.824  0.00  0.00    -0.049 A 
ATOM     20  C   UNL     1       9.360   4.376  -4.837  0.00  0.00    +0.003 A 
ATOM     21  C   UNL     1       9.572   3.299  -5.676  0.00  0.00    +0.000 A 
ATOM     22  C   UNL     1       8.559   2.863  -6.510  0.00  0.00    +0.000 A 
ATOM     23  C   UNL     1       7.333   3.502  -6.500  0.00  0.00    +0.000 A 
ATOM     24  C   UNL     1       7.120   4.576  -5.657  0.00  0.00    +0.003 A 
ENDBRANCH  18  19
ENDBRANCH  17  18
ENDBRANCH   1  17
BRANCH   1  25
ATOM     25  C   UNL     1       6.150   6.418  -0.601  0.00  0.00    -0.037 C 
BRANCH  25  26
ATOM     26  C   UNL     1       4.777   6.087  -1.129  0.00  0.00    -0.002 A 
ATOM     27  C   UNL     1       4.382   4.786  -1.236  0.00  0.00    +0.017 A 
ATOM     28  C   UNL     1       3.092   4.519  -1.734  0.00  0.00    +0.001 A 
ATOM     29  C   UNL     1       2.624   3.202  -1.869  0.00  0.00    +0.013 A 
ATOM     30  C   UNL     1       1.371   2.975  -2.349  0.00  0.00    +0.046 A 
ATOM     31  C   UNL     1       0.543   4.039  -2.720  0.00  0.00    +0.122 A 
ATOM     32  C   UNL     1       0.972   5.341  -2.600  0.00  0.00    +0.074 A 
ATOM     33  C   UNL     1       2.259   5.604  -2.103  0.00  0.00    +0.078 A 
ATOM     34  N   UNL     1       2.702   6.860  -1.974  0.00  0.00    -0.213 NA
ATOM     35  C   UNL     1       3.907   7.114  -1.510  0.00  0.00    +0.214 A 
BRANCH  35  36
ATOM     36  O   UNL     1       4.314   8.403  -1.397  0.00  0.00    -0.492 OA
ATOM     37  H   UNL     1       4.756   8.746  -2.186  0.00  0.00    +0.294 HD
ENDBRANCH  35  36
BRANCH  31  38
ATOM     38  O   UNL     1      -0.702   3.784  -3.200  0.00  0.00    -0.495 OA
ATOM     39  C   UNL     1      -1.090   2.412  -3.302  0.00  0.00    +0.277 C 
ENDBRANCH  31  38
ENDBRANCH  25  26
ENDBRANCH   1  25
TORSDOF 12
