REMARK  Name = ZINC45861148
REMARK  9 active torsions:
REMARK  status: ('A' for Active; 'I' for Inactive)
REMARK    1  A    between atoms: C_1  and  C_2
REMARK    2  A    between atoms: C_3  and  C_19
REMARK    3  A    between atoms: C_4  and  C_18
REMARK    4  A    between atoms: C_7  and  C_8
REMARK    5  A    between atoms: C_15  and  C_17
REMARK    6  A    between atoms: C_19  and  O_21
REMARK    7  A    between atoms: O_21  and  C_22
REMARK    8  A    between atoms: C_22  and  C_23
REMARK    9  A    between atoms: C_22  and  C_24
REMARK                            x       y       z     vdW  Elec       q    Type
REMARK                         _______ _______ _______ _____ _____    ______ ____
ROOT
ATOM      1  C   UNL     1       1.506   0.997   0.137  0.00  0.00    +0.047 C 
ATOM      2  C   UNL     1       0.620  -0.219   0.056  0.00  0.00    -0.006 A 
ATOM      3  C   UNL     1       0.318  -0.963  -1.108  0.00  0.00    +0.083 A 
ATOM      4  C   UNL     1      -0.528  -1.989  -0.725  0.00  0.00    +0.028 A 
ATOM      5  N   UNL     1      -0.740  -1.891   0.597  0.00  0.00    -0.354 N 
ATOM      6  H   UNL     1      -1.297  -2.488   1.121  0.00  0.00    +0.166 HD
ATOM      7  C   UNL     1      -0.038  -0.814   1.091  0.00  0.00    +0.106 A 
ATOM      8  C   UNL     1      -1.111  -3.037  -1.637  0.00  0.00    +0.064 C 
ENDROOT
BRANCH   7   9
ATOM      9  C   UNL     1      -0.007  -0.379   2.493  0.00  0.00    +0.263 C 
ATOM     10  O   UNL     1       0.076   0.805   2.761  0.00  0.00    -0.268 OA
ATOM     11  N   UNL     1      -0.070  -1.290   3.483  0.00  0.00    -0.294 N 
ATOM     12  C   UNL     1      -0.053  -2.728   3.180  0.00  0.00    +0.108 C 
ATOM     13  C   UNL     1       1.065  -3.390   3.991  0.00  0.00    +0.019 C 
ATOM     14  C   UNL     1       0.875  -3.063   5.474  0.00  0.00    +0.003 C 
ATOM     15  C   UNL     1       0.961  -1.549   5.680  0.00  0.00    +0.022 C 
ATOM     16  C   UNL     1      -0.152  -0.866   4.888  0.00  0.00    +0.073 C 
ATOM     17  C   UNL     1       0.016   0.652   4.975  0.00  0.00    +0.028 C 
ENDBRANCH   7   9
BRANCH   3  18
ATOM     18  C   UNL     1       0.809  -0.696  -2.470  0.00  0.00    +0.341 C 
ATOM     19  O   UNL     1       1.845  -1.204  -2.853  0.00  0.00    -0.245 OA
BRANCH  18  20
ATOM     20  O   UNL     1       0.111   0.112  -3.292  0.00  0.00    -0.458 OA
BRANCH  20  21
ATOM     21  C   UNL     1       0.647   0.327  -4.599  0.00  0.00    +0.171 C 
ATOM     22  C   UNL     1       0.099  -0.734  -5.556  0.00  0.00    +0.052 C 
ATOM     23  C   UNL     1       0.243   1.718  -5.093  0.00  0.00    +0.052 C 
ENDBRANCH  20  21
ENDBRANCH  18  20
ENDBRANCH   3  18
TORSDOF 4
