REMARK  Name = ZINC32916237
REMARK  7 active torsions:
REMARK  status: ('A' for Active; 'I' for Inactive)
REMARK    1  A    between atoms: C_4  and  C_7
REMARK    2  A    between atoms: C_7  and  S_8
REMARK    3  A    between atoms: S_8  and  C_11
REMARK    4  A    between atoms: C_11  and  C_12
REMARK    5  A    between atoms: C_12  and  N_13
REMARK    6  A    between atoms: C_21  and  C_23
REMARK    7  A    between atoms: C_23  and  N_24
REMARK                            x       y       z     vdW  Elec       q    Type
REMARK                         _______ _______ _______ _____ _____    ______ ____
ROOT
ATOM      1  N   UNL     1       7.544  -0.125   0.811  0.00  0.00    -0.327 N 
ATOM      2  C   UNL     1       6.502   0.357   1.582  0.00  0.00    +0.131 A 
ATOM      3  C   UNL     1       6.603   1.625   2.221  0.00  0.00    +0.051 A 
ATOM      4  C   UNL     1       7.715   2.577   2.195  0.00  0.00    -0.025 A 
ATOM      5  C   UNL     1       7.557   3.720   2.893  0.00  0.00    -0.004 A 
ATOM      6  S   UNL     1       5.943   3.601   3.618  0.00  0.00    -0.073 S 
ATOM      7  C   UNL     1       5.481   2.011   2.980  0.00  0.00    +0.114 A 
ATOM      8  N   UNL     1       4.417   1.239   3.080  0.00  0.00    -0.227 NA
ATOM      9  C   UNL     1       4.380   0.073   2.464  0.00  0.00    +0.116 A 
ATOM     10  N   UNL     1       5.399  -0.356   1.740  0.00  0.00    -0.219 NA
ATOM     11  C   UNL     1       8.537   4.846   3.024  0.00  0.00    +0.043 C 
ATOM     12  C   UNL     1       9.910   4.351   2.547  0.00  0.00    +0.005 C 
ATOM     13  C   UNL     1       9.735   3.633   1.206  0.00  0.00    +0.005 C 
ATOM     14  C   UNL     1       9.001   2.308   1.419  0.00  0.00    +0.037 C 
ATOM     15  H   UNL     1       8.494   0.427   0.764  0.00  0.00    +0.148 HD
ENDROOT
BRANCH   1  16
ATOM     16  C   UNL     1       7.383  -1.371   0.058  0.00  0.00    +0.125 C 
BRANCH  16  17
ATOM     17  C   UNL     1       8.673  -1.676  -0.705  0.00  0.00    +0.185 C 
BRANCH  17  18
ATOM     18  S   UNL     1       8.473  -3.219  -1.638  0.00  0.00    -0.026 S 
ATOM     19  O   UNL     1       8.315  -4.286  -0.714  0.00  0.00    -0.174 OA
ATOM     20  O   UNL     1       7.481  -3.016  -2.635  0.00  0.00    -0.174 OA
BRANCH  18  21
ATOM     21  C   UNL     1      10.081  -3.403  -2.457  0.00  0.00    +0.201 C 
BRANCH  21  25
ATOM     22  C   UNL     1      10.080  -6.966  -4.813  0.00  0.00    +0.000 A 
ATOM     23  C   UNL     1       9.673  -5.769  -5.371  0.00  0.00    +0.000 A 
ATOM     24  C   UNL     1       9.673  -4.616  -4.609  0.00  0.00    +0.005 A 
ATOM     25  C   UNL     1      10.081  -4.660  -3.288  0.00  0.00    -0.027 A 
ATOM     26  C   UNL     1      10.493  -5.856  -2.732  0.00  0.00    +0.005 A 
ATOM     27  C   UNL     1      10.488  -7.011  -3.493  0.00  0.00    +0.000 A 
ENDBRANCH  21  25
ENDBRANCH  18  21
ENDBRANCH  17  18
ENDBRANCH  16  17
ENDBRANCH   1  16
BRANCH   9  28
ATOM     28  C   UNL     1       3.153  -0.791   2.595  0.00  0.00    -0.001 C 
BRANCH  28  29
ATOM     29  N   UNL     1       2.208  -0.464   1.519  0.00  0.00    +0.384 N 
ATOM     30  C   UNL     1       0.908  -1.110   1.745  0.00  0.00    -0.078 C 
ATOM     31  C   UNL     1      -0.001  -0.868   0.538  0.00  0.00    -0.019 C 
ATOM     32  C   UNL     1      -0.186   0.639   0.339  0.00  0.00    -0.004 C 
ATOM     33  C   UNL     1       1.185   1.294   0.153  0.00  0.00    -0.019 C 
ATOM     34  C   UNL     1       2.060   0.989   1.372  0.00  0.00    -0.078 C 
ATOM     35  H   UNL     1       2.617  -0.857   0.576  0.00  0.00    -0.081 HD
ENDBRANCH  28  29
ENDBRANCH   9  28
TORSDOF 7
