REMARK  Name = ZINC39638222
REMARK  9 active torsions:
REMARK  status: ('A' for Active; 'I' for Inactive)
REMARK    1  A    between atoms: C_1  and  C_2
REMARK    2  A    between atoms: C_2  and  C_3
REMARK    3  A    between atoms: C_3  and  C_5
REMARK    4  A    between atoms: C_3  and  N_8
REMARK    5  A    between atoms: C_5  and  O_6
REMARK    6  A    between atoms: O_6  and  C_7
REMARK    7  A    between atoms: C_9  and  C_11
REMARK    8  A    between atoms: C_22  and  C_24
REMARK    9  A    between atoms: C_27  and  C_29
REMARK                            x       y       z     vdW  Elec       q    Type
REMARK                         _______ _______ _______ _____ _____    ______ ____
ROOT
ATOM      1  C   UNL     1       3.870   1.567  -1.437  0.00  0.00    +0.100 C 
ATOM      2  C   UNL     1       4.750   0.875  -2.502  0.00  0.00    +0.121 C 
ATOM      3  N   UNL     1       4.805   1.838  -3.626  0.00  0.00    -0.294 N 
ATOM      4  C   UNL     1       4.916   3.163  -2.970  0.00  0.00    +0.115 C 
ATOM      5  C   UNL     1       3.985   3.069  -1.746  0.00  0.00    -0.004 C 
ATOM      6  C   UNL     1       4.597   3.808  -0.559  0.00  0.00    -0.010 C 
ATOM      7  C   UNL     1       4.647   5.307  -0.867  0.00  0.00    -0.082 C 
ATOM      8  N   UNL     1       3.289   5.800  -1.129  0.00  0.00    +0.379 N 
ATOM      9  C   UNL     1       2.744   5.152  -2.328  0.00  0.00    -0.082 C 
ATOM     10  C   UNL     1       2.613   3.646  -2.081  0.00  0.00    -0.010 C 
ATOM     11  C   UNL     1       4.764   1.571  -4.946  0.00  0.00    +0.282 C 
ATOM     12  O   UNL     1       4.821   2.479  -5.754  0.00  0.00    -0.267 OA
ATOM     13  H   UNL     1       2.699   5.592  -0.338  0.00  0.00    -0.086 HD
ATOM     14  H   UNL     1       3.317   6.798  -1.271  0.00  0.00    -0.086 HD
ENDROOT
BRANCH  11  15
ATOM     15  C   UNL     1       4.651   0.185  -5.410  0.00  0.00    +0.190 A 
ATOM     16  C   UNL     1       4.605  -0.227  -6.723  0.00  0.00    +0.055 A 
ATOM     17  C   UNL     1       4.497  -1.622  -6.705  0.00  0.00    +0.050 A 
ATOM     18  C   UNL     1       4.481  -2.006  -5.395  0.00  0.00    +0.136 A 
ATOM     19  O   UNL     1       4.581  -0.910  -4.624  0.00  0.00    -0.450 OA
BRANCH  18  20
ATOM     20  C   UNL     1       4.378  -3.396  -4.906  0.00  0.00    +0.017 A 
ATOM     21  C   UNL     1       4.292  -4.454  -5.814  0.00  0.00    +0.011 A 
ATOM     22  C   UNL     1       4.196  -5.750  -5.351  0.00  0.00    +0.001 A 
ATOM     23  C   UNL     1       4.186  -6.003  -3.991  0.00  0.00    +0.000 A 
ATOM     24  C   UNL     1       4.271  -4.959  -3.086  0.00  0.00    +0.001 A 
ATOM     25  C   UNL     1       4.373  -3.659  -3.535  0.00  0.00    +0.011 A 
ENDBRANCH  18  20
ENDBRANCH  11  15
BRANCH   1  27
ATOM     26  N   UNL     1       1.647   1.067  -0.473  0.00  0.00    -0.310 N 
ATOM     27  C   UNL     1       2.439   1.113  -1.563  0.00  0.00    +0.218 C 
ATOM     28  O   UNL     1       1.998   0.790  -2.646  0.00  0.00    -0.275 OA
ATOM     29  H   UNL     1       2.002   1.319   0.394  0.00  0.00    +0.149 HD
BRANCH  26  30
ATOM     30  C   UNL     1       0.253   0.637  -0.598  0.00  0.00    +0.098 C 
BRANCH  30  32
ATOM     31  C   UNL     1      -0.384   2.514  -2.119  0.00  0.00    +0.006 C 
ATOM     32  C   UNL     1      -0.647   1.864  -0.759  0.00  0.00    +0.021 C 
ENDBRANCH  30  32
BRANCH  30  33
ATOM     33  C   UNL     1      -0.157  -0.134   0.658  0.00  0.00    +0.181 C 
BRANCH  33  34
ATOM     34  O   UNL     1      -0.132   0.744   1.786  0.00  0.00    -0.381 OA
ATOM     35  C   UNL     1      -0.501   0.119   3.017  0.00  0.00    +0.194 C 
ENDBRANCH  33  34
ENDBRANCH  30  33
ENDBRANCH  26  30
ENDBRANCH   1  27
TORSDOF 7
