REMARK  Name = ZINC38733212
REMARK  6 active torsions:
REMARK  status: ('A' for Active; 'I' for Inactive)
REMARK    1  A    between atoms: C_1  and  C_2
REMARK    2  A    between atoms: C_9  and  C_10
REMARK    3  A    between atoms: C_9  and  C_11
REMARK    4  A    between atoms: C_13  and  N_15
REMARK    5  A    between atoms: C_16  and  C_18
REMARK    6  A    between atoms: C_24  and  C_26
REMARK                            x       y       z     vdW  Elec       q    Type
REMARK                         _______ _______ _______ _____ _____    ______ ____
ROOT
ATOM      1  C   UNL     1       4.428  -0.892   1.280  0.00  0.00    +0.091 C 
ATOM      2  C   UNL     1       4.826   0.201   0.284  0.00  0.00    +0.040 C 
ATOM      3  C   UNL     1       6.309   0.176   0.057  0.00  0.00    -0.030 C 
ATOM      4  C   UNL     1       7.153  -0.417   0.838  0.00  0.00    -0.030 C 
ATOM      5  C   UNL     1       6.766  -1.173   2.075  0.00  0.00    +0.040 C 
ATOM      6  C   UNL     1       5.347  -0.797   2.504  0.00  0.00    +0.091 C 
ENDROOT
BRANCH   6   7
ATOM      7  C   UNL     1       5.340   0.614   3.035  0.00  0.00    +0.220 C 
ATOM      8  O   UNL     1       5.616   1.539   2.301  0.00  0.00    -0.275 OA
ATOM      9  N   UNL     1       5.027   0.847   4.325  0.00  0.00    -0.298 N 
ATOM     10  C   UNL     1       4.820  -0.269   5.258  0.00  0.00    +0.126 C 
ATOM     11  C   UNL     1       5.757  -0.085   6.458  0.00  0.00    +0.125 C 
ATOM     12  N   UNL     1       5.617   1.290   6.957  0.00  0.00    -0.314 N 
ATOM     13  C   UNL     1       5.824   2.406   6.023  0.00  0.00    +0.125 C 
ATOM     14  C   UNL     1       4.893   2.223   4.825  0.00  0.00    +0.126 C 
ATOM     15  C   UNL     1       5.295   1.530   8.287  0.00  0.00    +0.099 A 
ATOM     16  C   UNL     1       5.000   0.463   9.129  0.00  0.00    +0.042 A 
ATOM     17  C   UNL     1       4.680   0.717  10.450  0.00  0.00    +0.005 A 
ATOM     18  C   UNL     1       4.666   2.035  10.887  0.00  0.00    +0.018 A 
ATOM     19  C   UNL     1       4.969   3.045   9.998  0.00  0.00    +0.084 A 
ATOM     20  N   UNL     1       5.275   2.773   8.743  0.00  0.00    -0.350 N 
ATOM     21  H   UNL     1       5.488   3.502   8.139  0.00  0.00    +0.166 HD
ENDBRANCH   6   7
BRANCH   1  23
ATOM     22  N   UNL     1       2.010  -0.727   0.787  0.00  0.00    -0.312 N 
ATOM     23  C   UNL     1       2.996  -0.692   1.705  0.00  0.00    +0.217 C 
ATOM     24  O   UNL     1       2.731  -0.501   2.873  0.00  0.00    -0.275 OA
ATOM     25  H   UNL     1       2.221  -0.879  -0.147  0.00  0.00    +0.149 HD
BRANCH  22  35
ATOM     26  C   UNL     1      -0.191   1.528   0.004  0.00  0.00    +0.009 C 
ATOM     27  C   UNL     1      -0.188  -0.004   0.015  0.00  0.00    +0.010 C 
ATOM     28  C   UNL     1      -1.614  -0.549  -0.017  0.00  0.00    -0.000 C 
ATOM     29  C   UNL     1      -1.570  -2.089  -0.187  0.00  0.00    +0.008 C 
ATOM     30  C   UNL     1      -1.390  -2.097   1.346  0.00  0.00    -0.003 C 
ATOM     31  C   UNL     1      -2.254  -0.829   1.344  0.00  0.00    -0.029 C 
ATOM     32  C   UNL     1      -1.963   0.164   2.466  0.00  0.00    +0.011 C 
ATOM     33  C   UNL     1      -3.764  -1.129   1.256  0.00  0.00    +0.011 C 
ATOM     34  C   UNL     1       0.067  -1.853   1.736  0.00  0.00    +0.026 C 
ATOM     35  C   UNL     1       0.607  -0.531   1.203  0.00  0.00    +0.076 C 
ENDBRANCH  22  35
ENDBRANCH   1  23
TORSDOF 3
