REMARK  Name = ZINC64164296
REMARK  8 active torsions:
REMARK  status: ('A' for Active; 'I' for Inactive)
REMARK    1  A    between atoms: C_1  and  C_2
REMARK    2  A    between atoms: C_7  and  O_16
REMARK    3  A    between atoms: C_13  and  C_15
REMARK    4  A    between atoms: O_16  and  C_17
REMARK    5  A    between atoms: C_17  and  C_18
REMARK    6  A    between atoms: N_20  and  C_21
REMARK    7  A    between atoms: C_21  and  C_22
REMARK    8  A    between atoms: C_22  and  C_23
REMARK                            x       y       z     vdW  Elec       q    Type
REMARK                         _______ _______ _______ _____ _____    ______ ____
ROOT
ATOM      1  C   UNL     1      -7.607  -1.768  -0.803  0.00  0.00    +0.251 C 
ATOM      2  O   UNL     1      -7.777  -2.746  -0.108  0.00  0.00    -0.272 OA
ATOM      3  N   UNL     1      -8.639  -1.245  -1.495  0.00  0.00    -0.312 N 
ATOM      4  H   UNL     1      -8.503  -0.462  -2.052  0.00  0.00    +0.149 HD
ENDROOT
BRANCH   1   5
ATOM      5  C   UNL     1      -6.241  -1.136  -0.895  0.00  0.00    +0.324 C 
BRANCH   5   6
ATOM      6  O   UNL     1      -5.323  -1.866  -0.078  0.00  0.00    -0.483 OA
BRANCH   6  12
ATOM      7  C   UNL     1      -0.019   1.526   0.010  0.00  0.00    +0.013 C 
ATOM      8  C   UNL     1       0.002  -0.004   0.002  0.00  0.00    +0.033 C 
ATOM      9  C   UNL     1      -1.413  -0.524   0.009  0.00  0.00    -0.001 A 
ATOM     10  C   UNL     1      -2.362   0.134  -0.759  0.00  0.00    +0.011 A 
ATOM     11  C   UNL     1      -3.668  -0.310  -0.789  0.00  0.00    +0.046 A 
ATOM     12  C   UNL     1      -4.039  -1.424  -0.048  0.00  0.00    +0.125 A 
ATOM     13  C   UNL     1      -3.095  -2.082   0.722  0.00  0.00    +0.092 A 
ATOM     14  C   UNL     1      -1.781  -1.631   0.754  0.00  0.00    +0.139 A 
ATOM     15  O   UNL     1      -0.889  -2.295   1.540  0.00  0.00    -0.425 OA
ATOM     16  C   UNL     1       0.414  -1.979   1.408  0.00  0.00    +0.316 C 
ATOM     17  O   UNL     1       1.276  -2.826   1.423  0.00  0.00    -0.250 OA
ATOM     18  C   UNL     1       0.747  -0.510   1.241  0.00  0.00    +0.102 C 
ATOM     19  C   UNL     1       0.290   0.271   2.476  0.00  0.00    +0.020 C 
ENDBRANCH   6  12
ENDBRANCH   5   6
ENDBRANCH   1   5
BRANCH   3  20
ATOM     20  C   UNL     1      -9.966  -1.859  -1.406  0.00  0.00    +0.108 C 
BRANCH  20  21
ATOM     21  C   UNL     1     -10.949  -1.078  -2.281  0.00  0.00    +0.052 C 
BRANCH  21  22
ATOM     22  C   UNL     1     -12.314  -1.710  -2.189  0.00  0.00    -0.040 C 
ATOM     23  C   UNL     1     -13.325  -1.346  -1.367  0.00  0.00    -0.001 A 
ATOM     24  C   UNL     1     -13.450  -0.295  -0.350  0.00  0.00    +0.010 A 
ATOM     25  C   UNL     1     -14.614  -0.174   0.328  0.00  0.00    +0.001 A 
ATOM     26  C   UNL     1     -15.701  -1.025   0.084  0.00  0.00    +0.002 A 
ATOM     27  C   UNL     1     -15.662  -2.014  -0.834  0.00  0.00    +0.026 A 
ATOM     28  C   UNL     1     -14.487  -2.232  -1.606  0.00  0.00    +0.043 A 
ATOM     29  N   UNL     1     -14.206  -3.108  -2.539  0.00  0.00    -0.380 N 
ATOM     30  C   UNL     1     -12.833  -2.874  -3.003  0.00  0.00    +0.144 C 
ATOM     31  H   UNL     1     -14.806  -3.795  -2.870  0.00  0.00    +0.160 HD
ENDBRANCH  21  22
ENDBRANCH  20  21
ENDBRANCH   3  20
TORSDOF 6
