REMARK  Name = ZINC18259377
REMARK  7 active torsions:
REMARK  status: ('A' for Active; 'I' for Inactive)
REMARK    1  A    between atoms: C_1  and  C_2
REMARK    2  A    between atoms: C_2  and  C_4
REMARK    3  A    between atoms: C_2  and  S_20
REMARK    4  A    between atoms: C_10  and  C_15
REMARK    5  A    between atoms: S_20  and  C_21
REMARK    6  A    between atoms: C_24  and  C_27
REMARK    7  A    between atoms: N_25  and  C_26
REMARK                            x       y       z     vdW  Elec       q    Type
REMARK                         _______ _______ _______ _____ _____    ______ ____
ROOT
ATOM      1  C   UNL     1      -5.615  -1.952   5.420  0.00  0.00    +0.027 C 
ATOM      2  C   UNL     1      -5.523  -1.089   4.161  0.00  0.00    +0.117 C 
ENDROOT
BRANCH   2   3
ATOM      3  C   UNL     1      -4.204  -1.340   3.475  0.00  0.00    +0.124 A 
ATOM      4  N   UNL     1      -3.154  -0.517   3.728  0.00  0.00    -0.309 N 
ATOM      5  H   UNL     1      -3.266   0.222   4.346  0.00  0.00    +0.170 HD
ATOM      6  C   UNL     1      -1.960  -0.707   3.137  0.00  0.00    +0.260 A 
ATOM      7  O   UNL     1      -1.026   0.040   3.374  0.00  0.00    -0.267 OA
ATOM      8  C   UNL     1      -1.801  -1.802   2.230  0.00  0.00    +0.083 A 
ATOM      9  C   UNL     1      -0.623  -2.208   1.470  0.00  0.00    +0.039 A 
ATOM     10  C   UNL     1      -0.714  -3.291   0.657  0.00  0.00    +0.059 A 
ATOM     11  S   UNL     1      -2.402  -3.824   0.867  0.00  0.00    -0.076 S 
ATOM     12  C   UNL     1      -2.942  -2.595   2.027  0.00  0.00    +0.116 A 
ATOM     13  N   UNL     1      -4.091  -2.345   2.649  0.00  0.00    -0.225 NA
BRANCH   9  14
ATOM     14  C   UNL     1       0.644  -1.457   1.586  0.00  0.00    +0.136 A 
ATOM     15  C   UNL     1       1.870  -1.994   1.827  0.00  0.00    +0.050 A 
ATOM     16  C   UNL     1       2.784  -0.921   1.858  0.00  0.00    +0.042 A 
ATOM     17  C   UNL     1       2.079   0.205   1.636  0.00  0.00    +0.196 A 
ATOM     18  O   UNL     1       0.785  -0.123   1.472  0.00  0.00    -0.463 OA
ENDBRANCH   9  14
ENDBRANCH   2   3
BRANCH   2  19
ATOM     19  S   UNL     1      -5.643   0.659   4.616  0.00  0.00    -0.075 S 
BRANCH  19  20
ATOM     20  C   UNL     1      -7.290   0.700   5.239  0.00  0.00    +0.192 A 
ATOM     21  N   UNL     1      -8.125  -0.313   5.305  0.00  0.00    -0.122 NA
ATOM     22  N   UNL     1      -9.241   0.067   5.816  0.00  0.00    -0.128 NA
ATOM     23  C   UNL     1      -9.192   1.348   6.099  0.00  0.00    +0.165 A 
ATOM     24  N   UNL     1      -7.941   1.793   5.739  0.00  0.00    -0.305 N 
ATOM     25  C   UNL     1      -7.416   3.155   5.864  0.00  0.00    +0.153 C 
BRANCH  23  26
ATOM     26  C   UNL     1     -10.276   2.159   6.693  0.00  0.00    +0.019 A 
ATOM     27  C   UNL     1     -11.313   1.538   7.391  0.00  0.00    +0.013 A 
ATOM     28  C   UNL     1     -12.318   2.301   7.948  0.00  0.00    +0.021 A 
ATOM     29  C   UNL     1     -12.306   3.678   7.806  0.00  0.00    +0.041 A 
ATOM     30  C   UNL     1     -11.283   4.299   7.109  0.00  0.00    +0.021 A 
ATOM     31  C   UNL     1     -10.269   3.547   6.553  0.00  0.00    +0.013 A 
ATOM     32 CL   UNL     1     -13.579   4.631   8.503  0.00  0.00    -0.084 Cl
ENDBRANCH  23  26
ENDBRANCH  19  20
ENDBRANCH   2  19
TORSDOF 5
