REMARK  Name = ZINC50360683
REMARK  5 active torsions:
REMARK  status: ('A' for Active; 'I' for Inactive)
REMARK    1  A    between atoms: C_1  and  C_2
REMARK    2  A    between atoms: C_2  and  C_4
REMARK    3  A    between atoms: C_2  and  N_16
REMARK    4  A    between atoms: N_16  and  C_17
REMARK    5  A    between atoms: C_17  and  C_18
REMARK                            x       y       z     vdW  Elec       q    Type
REMARK                         _______ _______ _______ _____ _____    ______ ____
ROOT
ATOM      1  C   UNL     1      -0.019   1.526   0.010  0.00  0.00    -0.009 C 
ATOM      2  C   UNL     1       0.002  -0.004   0.002  0.00  0.00    -0.043 C 
ENDROOT
BRANCH   2   3
ATOM      3  C   UNL     1      -1.412  -0.526   0.013  0.00  0.00    -0.060 A 
ATOM      4  C   UNL     1      -2.121  -0.570   1.201  0.00  0.00    +0.004 A 
ATOM      5  C   UNL     1      -3.417  -1.046   1.221  0.00  0.00    +0.028 A 
ATOM      6  C   UNL     1      -4.011  -1.482   0.046  0.00  0.00    +0.067 A 
ATOM      7  C   UNL     1      -3.295  -1.438  -1.153  0.00  0.00    +0.067 A 
ATOM      8  C   UNL     1      -1.996  -0.953  -1.164  0.00  0.00    +0.029 A 
ATOM      9  N   UNL     1      -4.139  -1.932  -2.144  0.00  0.00    -0.306 N 
ATOM     10  H   UNL     1      -3.918  -2.023  -3.084  0.00  0.00    +0.170 HD
ATOM     11  C   UNL     1      -5.314  -2.262  -1.575  0.00  0.00    +0.325 A 
ATOM     12  O   UNL     1      -6.272  -2.725  -2.165  0.00  0.00    -0.247 OA
ATOM     13  N   UNL     1      -5.267  -2.002  -0.255  0.00  0.00    -0.306 N 
ATOM     14  H   UNL     1      -5.986  -2.151   0.379  0.00  0.00    +0.170 HD
ENDBRANCH   2   3
BRANCH   2  15
ATOM     15  N   UNL     1       0.713  -0.491   1.192  0.00  0.00    +0.388 N 
ATOM     16  H   UNL     1       0.290  -0.099   2.020  0.00  0.00    -0.084 HD
ATOM     17  H   UNL     1       0.655  -1.497   1.230  0.00  0.00    -0.084 HD
BRANCH  15  18
ATOM     18  C   UNL     1       2.122  -0.083   1.122  0.00  0.00    -0.006 C 
BRANCH  18  19
ATOM     19  C   UNL     1       2.851  -0.582   2.343  0.00  0.00    +0.091 A 
ATOM     20  C   UNL     1       3.478  -1.766   2.455  0.00  0.00    +0.059 A 
ATOM     21  C   UNL     1       4.022  -1.821   3.759  0.00  0.00    +0.070 A 
ATOM     22  C   UNL     1       3.694  -0.665   4.367  0.00  0.00    +0.184 A 
ATOM     23  O   UNL     1       2.989   0.084   3.502  0.00  0.00    -0.454 OA
ATOM     24 BR   UNL     1       4.154  -0.175   6.134  0.00  0.00    -0.007 Br
ATOM     25 BR   UNL     1       5.018  -3.244   4.506  0.00  0.00    -0.046 Br
ENDBRANCH  18  19
ENDBRANCH  15  18
ENDBRANCH   2  15
TORSDOF 4
