REMARK  Name = ZINC40315993
REMARK  13 active torsions:
REMARK  status: ('A' for Active; 'I' for Inactive)
REMARK    1  A    between atoms: C_1  and  C_2
REMARK    2  A    between atoms: C_2  and  C_3
REMARK    3  A    between atoms: C_2  and  C_4
REMARK    4  A    between atoms: C_7  and  O_10
REMARK    5  A    between atoms: O_10  and  C_11
REMARK    6  A    between atoms: C_11  and  C_12
REMARK    7  A    between atoms: C_12  and  C_14
REMARK    8  A    between atoms: C_12  and  O_37
REMARK    9  A    between atoms: C_14  and  N_15
REMARK   10  A    between atoms: N_15  and  C_16
REMARK   11  A    between atoms: N_15  and  C_29
REMARK   12  A    between atoms: C_16  and  C_17
REMARK   13  A    between atoms: C_20  and  C_22
REMARK                            x       y       z     vdW  Elec       q    Type
REMARK                         _______ _______ _______ _____ _____    ______ ____
ROOT
ATOM      1  N   UNL     1       6.342  -3.794  -6.897  0.00  0.00    +0.389 N 
ATOM      2  H   UNL     1       6.924  -3.432  -7.638  0.00  0.00    -0.081 HD
ENDROOT
BRANCH   1   3
ATOM      3  C   UNL     1       5.058  -4.238  -7.455  0.00  0.00    -0.045 C 
ATOM      4  C   UNL     1       4.404  -5.257  -6.507  0.00  0.00    +0.009 C 
ATOM      5  C   UNL     1       3.228  -5.964  -7.222  0.00  0.00    +0.164 C 
ATOM      6  S   UNL     1       3.729  -5.892  -8.991  0.00  0.00    -0.033 S 
ATOM      7  O   UNL     1       2.782  -5.113  -9.708  0.00  0.00    -0.174 OA
ATOM      8  O   UNL     1       4.035  -7.206  -9.437  0.00  0.00    -0.174 OA
ATOM      9  C   UNL     1       5.293  -4.934  -8.826  0.00  0.00    +0.151 C 
ENDBRANCH   1   3
BRANCH   1  10
ATOM     10  C   UNL     1       6.105  -2.740  -5.901  0.00  0.00    -0.043 C 
BRANCH  10  11
ATOM     11  C   UNL     1       5.658  -1.460  -6.610  0.00  0.00    +0.135 C 
BRANCH  11  12
ATOM     12  O   UNL     1       4.342  -1.641  -7.136  0.00  0.00    -0.390 OA
ATOM     13  H   UNL     1       3.662  -1.767  -6.460  0.00  0.00    +0.210 HD
ENDBRANCH  11  12
BRANCH  11  14
ATOM     14  C   UNL     1       5.653  -0.299  -5.613  0.00  0.00    +0.258 C 
BRANCH  14  15
ATOM     15  O   UNL     1       5.349   0.917  -6.299  0.00  0.00    -0.489 OA
BRANCH  15  19
ATOM     16  C   UNL     1       5.212   4.361  -4.032  0.00  0.00    -0.045 A 
ATOM     17  C   UNL     1       4.970   4.420  -5.392  0.00  0.00    +0.007 A 
ATOM     18  C   UNL     1       5.015   3.268  -6.153  0.00  0.00    +0.046 A 
ATOM     19  C   UNL     1       5.304   2.051  -5.552  0.00  0.00    +0.121 A 
ATOM     20  C   UNL     1       5.548   1.995  -4.187  0.00  0.00    +0.046 A 
ATOM     21  C   UNL     1       5.507   3.151  -3.432  0.00  0.00    +0.007 A 
BRANCH  16  23
ATOM     22  C   UNL     1       6.198   6.616  -3.728  0.00  0.00    +0.012 C 
ATOM     23  C   UNL     1       5.162   5.619  -3.204  0.00  0.00    +0.013 C 
ATOM     24  C   UNL     1       3.766   6.237  -3.300  0.00  0.00    +0.012 C 
ENDBRANCH  16  23
ENDBRANCH  15  19
ENDBRANCH  14  15
ENDBRANCH  11  14
ENDBRANCH  10  11
ENDBRANCH   1  10
BRANCH   1  25
ATOM     25  C   UNL     1       7.016  -4.930  -6.255  0.00  0.00    -0.003 C 
BRANCH  25  26
ATOM     26  C   UNL     1       7.386  -5.950  -7.301  0.00  0.00    +0.089 A 
ATOM     27  C   UNL     1       8.486  -5.916  -8.078  0.00  0.00    +0.043 A 
ATOM     28  C   UNL     1       8.441  -7.053  -8.909  0.00  0.00    +0.050 A 
ATOM     29  C   UNL     1       7.303  -7.725  -8.591  0.00  0.00    +0.135 A 
ATOM     30  O   UNL     1       6.676  -7.048  -7.610  0.00  0.00    -0.462 OA
BRANCH  29  31
ATOM     31  C   UNL     1       6.837  -8.984  -9.210  0.00  0.00    +0.017 A 
ATOM     32  C   UNL     1       7.628  -9.631 -10.161  0.00  0.00    +0.014 A 
ATOM     33  C   UNL     1       7.189 -10.806 -10.736  0.00  0.00    +0.039 A 
ATOM     34  C   UNL     1       5.964 -11.343 -10.371  0.00  0.00    +0.123 A 
ATOM     35  C   UNL     1       5.175 -10.704  -9.428  0.00  0.00    +0.039 A 
ATOM     36  C   UNL     1       5.608  -9.533  -8.842  0.00  0.00    +0.014 A 
ATOM     37  F   UNL     1       5.538 -12.493 -10.938  0.00  0.00    -0.205 F 
ENDBRANCH  29  31
ENDBRANCH  25  26
ENDBRANCH   1  25
TORSDOF 11
