REMARK  Name = ZINC08306443
REMARK  3 active torsions:
REMARK  status: ('A' for Active; 'I' for Inactive)
REMARK    1  A    between atoms: C_3  and  O_16
REMARK    2  A    between atoms: C_4  and  C_8
REMARK    3  A    between atoms: C_11  and  C_14
REMARK                            x       y       z     vdW  Elec       q    Type
REMARK                         _______ _______ _______ _____ _____    ______ ____
ROOT
ATOM      1  C   UNL     1       0.002  -0.004   0.002  0.00  0.00    +0.023 C 
ATOM      2  C   UNL     1       2.366   0.556  -0.133  0.00  0.00    -0.055 C 
ATOM      3  C   UNL     1       1.915   2.027   0.066  0.00  0.00    +0.141 C 
ATOM      4  S   UNL     1       0.084   1.834   0.129  0.00  0.00    -0.159 S 
ATOM      5  N   UNL     1       1.379  -0.370   0.459  0.00  0.00    +0.391 N 
ATOM      6  H   UNL     1       1.593  -1.330   0.164  0.00  0.00    -0.084 HD
ATOM      7  H   UNL     1       1.426  -0.309   1.483  0.00  0.00    -0.084 HD
ENDROOT
BRANCH   1  11
ATOM      8  C   UNL     1      -2.969  -1.606   2.627  0.00  0.00    +0.023 A 
ATOM      9  C   UNL     1      -3.312  -0.624   1.719  0.00  0.00    +0.047 A 
ATOM     10  C   UNL     1      -2.349  -0.099   0.869  0.00  0.00    +0.119 A 
ATOM     11  C   UNL     1      -1.045  -0.569   0.927  0.00  0.00    -0.009 A 
ATOM     12  C   UNL     1      -0.706  -1.551   1.837  0.00  0.00    +0.026 A 
ATOM     13  C   UNL     1      -1.667  -2.070   2.687  0.00  0.00    +0.041 A 
ATOM     14 CL   UNL     1      -1.238  -3.304   3.830  0.00  0.00    -0.084 Cl
BRANCH  10  15
ATOM     15  O   UNL     1      -2.684   0.871  -0.022  0.00  0.00    -0.507 OA
ATOM     16  H   UNL     1      -2.977   0.534  -0.880  0.00  0.00    +0.292 HD
ENDBRANCH  10  15
ENDBRANCH   1  11
BRANCH   3  17
ATOM     17  C   UNL     1       2.329   2.884  -1.103  0.00  0.00    +0.367 C 
ATOM     18  O   UNL     1       2.451   2.391  -2.199  0.00  0.00    -0.245 OA
ATOM     19  O   UNL     1       2.563   4.193  -0.925  0.00  0.00    -0.245 OA
ENDBRANCH   3  17
TORSDOF 3
