REMARK  Name = ZINC34703470
REMARK  9 active torsions:
REMARK  status: ('A' for Active; 'I' for Inactive)
REMARK    1  A    between atoms: C_1  and  C_2
REMARK    2  A    between atoms: C_2  and  O_4
REMARK    3  A    between atoms: O_4  and  C_5
REMARK    4  A    between atoms: C_9  and  C_35
REMARK    5  A    between atoms: C_14  and  C_34
REMARK    6  A    between atoms: C_15  and  C_28
REMARK    7  A    between atoms: C_19  and  O_27
REMARK    8  A    between atoms: C_24  and  O_26
REMARK    9  A    between atoms: C_35  and  O_36
REMARK                            x       y       z     vdW  Elec       q    Type
REMARK                         _______ _______ _______ _____ _____    ______ ____
ROOT
ATOM      1  C   UNL     1      -0.534  -2.126  -1.244  0.00  0.00    +0.179 C 
ATOM      2  C   UNL     1       0.881  -2.688  -1.111  0.00  0.00    +0.045 C 
ATOM      3  C   UNL     1       0.867  -4.205  -1.097  0.00  0.00    +0.016 C 
ATOM      4  C   UNL     1       0.096  -4.843  -2.252  0.00  0.00    +0.026 C 
ATOM      5  C   UNL     1       0.979  -4.942  -3.489  0.00  0.00    +0.006 C 
ATOM      6  C   UNL     1       1.704  -3.631  -3.773  0.00  0.00    +0.005 C 
ATOM      7  C   UNL     1       2.670  -3.819  -4.934  0.00  0.00    +0.010 C 
ATOM      8  C   UNL     1       2.058  -4.380  -6.186  0.00  0.00    +0.004 C 
ATOM      9  C   UNL     1       1.383  -3.373  -7.112  0.00  0.00    +0.027 C 
ATOM     10  C   UNL     1       0.052  -4.006  -7.564  0.00  0.00    +0.011 C 
ATOM     11  C   UNL     1       0.156  -5.500  -7.203  0.00  0.00    +0.036 C 
ATOM     12  C   UNL     1       1.080  -5.539  -5.953  0.00  0.00    +0.075 C 
ATOM     13  C   UNL     1       0.208  -5.396  -4.717  0.00  0.00    +0.025 C 
ATOM     14  C   UNL     1      -1.002  -4.496  -4.945  0.00  0.00    +0.009 C 
ATOM     15  C   UNL     1      -1.940  -4.674  -3.744  0.00  0.00    +0.036 C 
ATOM     16  C   UNL     1      -1.245  -4.170  -2.478  0.00  0.00    +0.077 C 
ATOM     17  C   UNL     1      -1.138  -2.648  -2.549  0.00  0.00    +0.080 C 
ATOM     18  C   UNL     1       3.241  -4.979  -6.997  0.00  0.00    +0.014 C 
ENDROOT
BRANCH   9  19
ATOM     19  C   UNL     1       1.145  -2.027  -6.477  0.00  0.00    -0.022 C 
ATOM     20  C   UNL     1      -0.016  -1.559  -6.023  0.00  0.00    +0.094 C 
ATOM     21  C   UNL     1       0.191  -0.212  -5.483  0.00  0.00    +0.332 C 
ATOM     22  O   UNL     1      -0.675   0.485  -4.992  0.00  0.00    -0.246 OA
ATOM     23  O   UNL     1       1.484   0.137  -5.611  0.00  0.00    -0.457 OA
ATOM     24  C   UNL     1       2.177  -0.953  -6.228  0.00  0.00    +0.264 C 
ENDBRANCH   9  19
BRANCH  16  25
ATOM     25  O   UNL     1      -2.101  -4.496  -1.362  0.00  0.00    -0.388 OA
ATOM     26  H   UNL     1      -2.985  -4.107  -1.418  0.00  0.00    +0.210 HD
ENDBRANCH  16  25
BRANCH  12  27
ATOM     27  O   UNL     1       1.803  -6.793  -5.907  0.00  0.00    -0.388 OA
ATOM     28  H   UNL     1       1.240  -7.566  -5.762  0.00  0.00    +0.210 HD
ENDBRANCH  12  27
BRANCH   1  29
ATOM     29  O   UNL     1      -0.479  -0.698  -1.283  0.00  0.00    -0.461 OA
BRANCH  29  31
ATOM     30  C   UNL     1      -0.516   1.453  -0.072  0.00  0.00    +0.136 C 
ATOM     31  C   UNL     1      -0.567  -0.053  -0.109  0.00  0.00    +0.304 C 
ATOM     32  O   UNL     1      -0.686  -0.679   0.917  0.00  0.00    -0.251 OA
ENDBRANCH  29  31
ENDBRANCH   1  29
BRANCH   4  33
ATOM     33  C   UNL     1      -0.202  -6.300  -1.796  0.00  0.00    +0.165 C 
BRANCH  33  34
ATOM     34  O   UNL     1      -0.981  -6.274  -0.598  0.00  0.00    -0.394 OA
ATOM     35  H   UNL     1      -1.204  -7.150  -0.255  0.00  0.00    +0.209 HD
ENDBRANCH  33  34
ENDBRANCH   4  33
TORSDOF 7
