REMARK  Name = ZINC40388586
REMARK  2 active torsions:
REMARK  status: ('A' for Active; 'I' for Inactive)
REMARK    1  A    between atoms: C_16  and  C_22
REMARK    2  A    between atoms: C_23  and  C_24
REMARK                            x       y       z     vdW  Elec       q    Type
REMARK                         _______ _______ _______ _____ _____    ______ ____
ROOT
ATOM      1  C   UNL     1       1.977  -4.774  -1.115  0.00  0.00    +0.000 A 
ATOM      2  C   UNL     1       3.338  -4.677  -0.889  0.00  0.00    +0.002 A 
ATOM      3  C   UNL     1       3.943  -3.441  -0.815  0.00  0.00    +0.024 A 
ATOM      4  C   UNL     1       3.187  -2.277  -0.968  0.00  0.00    +0.040 A 
ATOM      5  C   UNL     1       1.824  -2.384  -1.194  0.00  0.00    -0.024 A 
ATOM      6  C   UNL     1       1.222  -3.626  -1.268  0.00  0.00    +0.005 A 
ATOM      7  C   UNL     1       1.246  -0.993  -1.322  0.00  0.00    +0.056 C 
ATOM      8  C   UNL     1       2.451  -0.056  -1.140  0.00  0.00    +0.118 C 
ATOM      9  N   UNL     1       3.599  -0.942  -0.928  0.00  0.00    -0.270 N 
ATOM     10  C   UNL     1       4.888  -0.522  -0.720  0.00  0.00    +0.205 A 
ATOM     11  N   UNL     1       5.166   0.808  -0.839  0.00  0.00    -0.294 N 
ATOM     12  H   UNL     1       4.458   1.430  -1.066  0.00  0.00    +0.172 HD
ATOM     13  C   UNL     1       6.426   1.263  -0.642  0.00  0.00    +0.263 A 
ATOM     14  O   UNL     1       6.693   2.447  -0.743  0.00  0.00    -0.267 OA
ATOM     15  C   UNL     1       7.453   0.280  -0.301  0.00  0.00    +0.091 A 
ATOM     16  C   UNL     1       8.797   0.648  -0.074  0.00  0.00    -0.008 A 
ATOM     17  C   UNL     1       9.704  -0.373   0.247  0.00  0.00    +0.028 A 
ATOM     18  C   UNL     1       9.256  -1.676   0.328  0.00  0.00    +0.114 A 
ATOM     19  N   UNL     1       7.995  -1.996   0.111  0.00  0.00    -0.235 NA
ATOM     20  C   UNL     1       7.080  -1.079  -0.198  0.00  0.00    +0.169 A 
ATOM     21  N   UNL     1       5.793  -1.418  -0.411  0.00  0.00    -0.196 NA
ENDROOT
BRANCH  16  22
ATOM     22  C   UNL     1       9.229   2.046  -0.172  0.00  0.00    +0.010 C 
ATOM     23  C   UNL     1      10.543   2.341  -0.277  0.00  0.00    +0.015 C 
BRANCH  23  24
ATOM     24  C   UNL     1      10.974   3.735  -0.374  0.00  0.00    +0.012 A 
ATOM     25  C   UNL     1      12.257   4.248  -0.494  0.00  0.00    +0.015 A 
ATOM     26  C   UNL     1      12.411   5.611  -0.569  0.00  0.00    +0.008 A 
ATOM     27  C   UNL     1      11.310   6.409  -0.524  0.00  0.00    +0.046 A 
ATOM     28  S   UNL     1       9.985   5.222  -0.377  0.00  0.00    -0.097 S 
ENDBRANCH  23  24
ENDBRANCH  16  22
TORSDOF 2
