REMARK  Name = ZINC37283726
REMARK  2 active torsions:
REMARK  status: ('A' for Active; 'I' for Inactive)
REMARK    1  A    between atoms: C_3  and  N_8
REMARK    2  A    between atoms: N_8  and  C_9
REMARK                            x       y       z     vdW  Elec       q    Type
REMARK                         _______ _______ _______ _____ _____    ______ ____
ROOT
ATOM      1  C   UNL     1       3.657   3.461  -0.015  0.00  0.00    +0.108 C 
ATOM      2  C   UNL     1       4.976   3.926  -0.638  0.00  0.00    +0.068 C 
ATOM      3  C   UNL     1       5.141   5.425  -0.354  0.00  0.00    +0.231 C 
ATOM      4  O   UNL     1       5.270   5.604   1.057  0.00  0.00    -0.490 OA
ATOM      5  C   UNL     1       4.360   4.994   1.861  0.00  0.00    +0.144 A 
ATOM      6  C   UNL     1       3.563   3.960   1.405  0.00  0.00    +0.017 A 
ATOM      7  C   UNL     1       2.652   3.364   2.261  0.00  0.00    +0.029 A 
ATOM      8  C   UNL     1       2.536   3.797   3.568  0.00  0.00    +0.043 A 
ATOM      9  C   UNL     1       3.332   4.833   4.026  0.00  0.00    +0.043 A 
ATOM     10  C   UNL     1       4.239   5.430   3.177  0.00  0.00    +0.084 A 
ATOM     11 CL   UNL     1       5.237   6.729   3.753  0.00  0.00    -0.080 Cl
ATOM     12 CL   UNL     1       1.393   3.043   4.636  0.00  0.00    -0.083 Cl
ENDROOT
BRANCH   1  13
ATOM     13  N   UNL     1       3.604   1.997  -0.022  0.00  0.00    -0.334 N 
ATOM     14  H   UNL     1       4.426   1.482  -0.033  0.00  0.00    +0.147 HD
BRANCH  13  17
ATOM     15  C   UNL     1      -0.017   1.377   0.010  0.00  0.00    +0.022 A 
ATOM     16  C   UNL     1       1.183   2.071   0.002  0.00  0.00    +0.027 A 
ATOM     17  C   UNL     1       2.369   1.343  -0.013  0.00  0.00    +0.065 A 
ATOM     18  C   UNL     1       2.306  -0.047  -0.020  0.00  0.00    +0.150 A 
ATOM     19  N   UNL     1       1.143  -0.667  -0.012  0.00  0.00    -0.242 NA
ATOM     20  C   UNL     1       0.002  -0.004   0.002  0.00  0.00    +0.112 A 
ATOM     21 CL   UNL     1       3.774  -0.973  -0.040  0.00  0.00    -0.060 Cl
ENDBRANCH  13  17
ENDBRANCH   1  13
TORSDOF 2
