REMARK  Name = ZINC12456359
REMARK  9 active torsions:
REMARK  status: ('A' for Active; 'I' for Inactive)
REMARK    1  A    between atoms: C_1  and  C_2
REMARK    2  A    between atoms: C_2  and  N_3
REMARK    3  A    between atoms: N_3  and  C_4
REMARK    4  A    between atoms: C_4  and  C_5
REMARK    5  A    between atoms: C_5  and  C_7
REMARK    6  A    between atoms: C_8  and  C_10
REMARK    7  A    between atoms: C_11  and  C_27
REMARK    8  A    between atoms: N_19  and  C_20
REMARK    9  A    between atoms: C_20  and  C_21
REMARK                            x       y       z     vdW  Elec       q    Type
REMARK                         _______ _______ _______ _____ _____    ______ ____
ROOT
ATOM      1  C   UNL     1      -2.355   1.799   2.814  0.00  0.00    +0.080 A 
ATOM      2  C   UNL     1      -3.017   1.163   3.820  0.00  0.00    -0.019 A 
ATOM      3  C   UNL     1      -3.116   1.767   5.080  0.00  0.00    +0.051 A 
ATOM      4  C   UNL     1      -3.755   1.288   6.263  0.00  0.00    +0.131 A 
ATOM      5  N   UNL     1      -3.728   2.032   7.357  0.00  0.00    -0.220 NA
ATOM      6  C   UNL     1      -3.126   3.208   7.396  0.00  0.00    +0.224 A 
ATOM      7  N   UNL     1      -2.517   3.705   6.337  0.00  0.00    -0.228 NA
ATOM      8  C   UNL     1      -2.495   3.034   5.203  0.00  0.00    +0.114 A 
ATOM      9  S   UNL     1      -1.810   3.311   3.590  0.00  0.00    -0.064 S 
ATOM     10  N   UNL     1      -4.394   0.065   6.266  0.00  0.00    -0.326 N 
ATOM     11  C   UNL     1      -3.642  -0.186   3.578  0.00  0.00    +0.046 C 
ATOM     12  H   UNL     1      -4.335  -0.515   5.491  0.00  0.00    +0.148 HD
ENDROOT
BRANCH   1  14
ATOM     13  N   UNL     1      -1.335   2.055   0.613  0.00  0.00    -0.293 N 
ATOM     14  C   UNL     1      -2.137   1.348   1.434  0.00  0.00    +0.254 C 
ATOM     15  O   UNL     1      -2.680   0.337   1.032  0.00  0.00    -0.269 OA
BRANCH  13  17
ATOM     16  C   UNL     1      -1.749   4.448   0.899  0.00  0.00    +0.024 C 
ATOM     17  C   UNL     1      -0.740   3.312   1.074  0.00  0.00    +0.105 C 
ENDBRANCH  13  17
BRANCH  13  18
ATOM     18  C   UNL     1      -1.058   1.566  -0.740  0.00  0.00    +0.138 C 
BRANCH  18  19
ATOM     19  C   UNL     1      -2.091   2.111  -1.692  0.00  0.00    -0.063 C 
ATOM     20  C   UNL     1      -1.843   3.203  -2.373  0.00  0.00    +0.009 C 
ATOM     21  C   UNL     1      -3.410   1.401  -1.861  0.00  0.00    +0.040 C 
ENDBRANCH  18  19
ENDBRANCH  13  18
ENDBRANCH   1  14
BRANCH  10  22
ATOM     22  C   UNL     1      -5.163  -0.357   7.439  0.00  0.00    +0.134 C 
BRANCH  22  23
ATOM     23  C   UNL     1      -5.765  -1.740   7.184  0.00  0.00    +0.135 C 
ATOM     24  C   UNL     1      -6.576  -2.193   8.413  0.00  0.00    +0.035 C 
ATOM     25  C   UNL     1      -8.004  -2.428   7.861  0.00  0.00    +0.031 C 
ATOM     26  C   UNL     1      -7.739  -2.615   6.346  0.00  0.00    +0.160 C 
ATOM     27  O   UNL     1      -6.674  -1.680   6.072  0.00  0.00    -0.375 OA
ENDBRANCH  22  23
ENDBRANCH  10  22
TORSDOF 6
