REMARK  Name = ZINC36207669
REMARK  12 active torsions:
REMARK  status: ('A' for Active; 'I' for Inactive)
REMARK    1  A    between atoms: C_1  and  C_2
REMARK    2  A    between atoms: C_2  and  N_3
REMARK    3  A    between atoms: N_3  and  C_4
REMARK    4  A    between atoms: N_3  and  C_23
REMARK    5  A    between atoms: C_4  and  C_5
REMARK    6  A    between atoms: C_11  and  C_16
REMARK    7  A    between atoms: C_21  and  C_22
REMARK    8  A    between atoms: C_23  and  C_24
REMARK    9  A    between atoms: C_24  and  C_26
REMARK   10  A    between atoms: C_24  and  O_35
REMARK   11  A    between atoms: C_26  and  O_27
REMARK   12  A    between atoms: O_27  and  C_28
REMARK                            x       y       z     vdW  Elec       q    Type
REMARK                         _______ _______ _______ _____ _____    ______ ____
ROOT
ATOM      1  C   UNL     1      -1.729  -1.843   0.205  0.00  0.00    -0.003 C 
ENDROOT
BRANCH   1   2
ATOM      2  C   UNL     1      -1.385  -2.196   1.630  0.00  0.00    +0.094 A 
ATOM      3  N   UNL     1      -1.494  -3.485   2.043  0.00  0.00    -0.312 N 
ATOM      4  H   UNL     1      -1.792  -4.162   1.415  0.00  0.00    +0.170 HD
ATOM      5  C   UNL     1      -1.197  -3.842   3.306  0.00  0.00    +0.260 A 
ATOM      6  O   UNL     1      -1.299  -5.004   3.661  0.00  0.00    -0.267 OA
ATOM      7  C   UNL     1      -0.758  -2.837   4.226  0.00  0.00    +0.080 A 
ATOM      8  C   UNL     1      -0.381  -2.971   5.628  0.00  0.00    +0.004 A 
ATOM      9  C   UNL     1       0.007  -1.865   6.307  0.00  0.00    +0.056 A 
ATOM     10  S   UNL     1      -0.113  -0.569   5.088  0.00  0.00    -0.076 S 
ATOM     11  C   UNL     1      -0.676  -1.534   3.709  0.00  0.00    +0.116 A 
ATOM     12  N   UNL     1      -0.983  -1.258   2.444  0.00  0.00    -0.229 NA
BRANCH   8  13
ATOM     13  C   UNL     1      -0.423  -4.293   6.298  0.00  0.00    -0.014 A 
ATOM     14  C   UNL     1      -1.321  -4.521   7.340  0.00  0.00    +0.009 A 
ATOM     15  C   UNL     1      -1.355  -5.753   7.960  0.00  0.00    +0.001 A 
ATOM     16  C   UNL     1      -0.501  -6.761   7.550  0.00  0.00    +0.000 A 
ATOM     17  C   UNL     1       0.392  -6.540   6.517  0.00  0.00    +0.004 A 
ATOM     18  C   UNL     1       0.432  -5.313   5.886  0.00  0.00    -0.043 A 
ATOM     19  C   UNL     1       1.402  -5.076   4.756  0.00  0.00    +0.044 C 
ENDBRANCH   8  13
ENDBRANCH   1   2
BRANCH   1  20
ATOM     20  N   UNL     1      -1.528  -0.403  -0.004  0.00  0.00    +0.386 N 
ATOM     21  H   UNL     1      -2.062   0.114   0.678  0.00  0.00    -0.081 HD
BRANCH  20  23
ATOM     22  C   UNL     1       0.695  -0.783  -0.957  0.00  0.00    -0.017 C 
ATOM     23  C   UNL     1      -0.103  -0.081   0.143  0.00  0.00    -0.082 C 
ENDBRANCH  20  23
BRANCH  20  24
ATOM     24  C   UNL     1      -1.976  -0.038  -1.355  0.00  0.00    -0.043 C 
BRANCH  24  25
ATOM     25  C   UNL     1      -1.881   1.479  -1.530  0.00  0.00    +0.135 C 
BRANCH  25  26
ATOM     26  O   UNL     1      -2.704   2.123  -0.556  0.00  0.00    -0.390 OA
ATOM     27  H   UNL     1      -3.640   1.887  -0.612  0.00  0.00    +0.210 HD
ENDBRANCH  25  26
BRANCH  25  28
ATOM     28  C   UNL     1      -2.359   1.861  -2.933  0.00  0.00    +0.258 C 
BRANCH  28  29
ATOM     29  O   UNL     1      -2.162   3.261  -3.139  0.00  0.00    -0.489 OA
BRANCH  29  30
ATOM     30  C   UNL     1      -2.537   3.766  -4.343  0.00  0.00    +0.121 A 
ATOM     31  C   UNL     1      -3.088   2.932  -5.305  0.00  0.00    +0.047 A 
ATOM     32  C   UNL     1      -3.469   3.448  -6.529  0.00  0.00    +0.023 A 
ATOM     33  C   UNL     1      -3.300   4.795  -6.796  0.00  0.00    +0.041 A 
ATOM     34  C   UNL     1      -2.749   5.628  -5.838  0.00  0.00    +0.023 A 
ATOM     35  C   UNL     1      -2.374   5.118  -4.611  0.00  0.00    +0.047 A 
ATOM     36 CL   UNL     1      -3.778   5.441  -8.335  0.00  0.00    -0.084 Cl
ENDBRANCH  29  30
ENDBRANCH  28  29
ENDBRANCH  25  28
ENDBRANCH  24  25
ENDBRANCH  20  24
ENDBRANCH   1  20
TORSDOF 10
