REMARK  Name = ZINC57367630
REMARK  7 active torsions:
REMARK  status: ('A' for Active; 'I' for Inactive)
REMARK    1  A    between atoms: C_1  and  C_2
REMARK    2  A    between atoms: C_2  and  C_4
REMARK    3  A    between atoms: C_2  and  N_14
REMARK    4  A    between atoms: C_9  and  C_10
REMARK    5  A    between atoms: C_15  and  C_17
REMARK    6  A    between atoms: C_17  and  C_19
REMARK    7  A    between atoms: C_17  and  N_20
REMARK                            x       y       z     vdW  Elec       q    Type
REMARK                         _______ _______ _______ _____ _____    ______ ____
ROOT
ATOM      1  N   UNL     1      -1.471  -0.500   0.236  0.00  0.00    -0.307 N 
ATOM      2  C   UNL     1      -2.251  -0.725  -0.840  0.00  0.00    +0.234 C 
ATOM      3  O   UNL     1      -1.833  -0.482  -1.952  0.00  0.00    -0.274 OA
ATOM      4  H   UNL     1      -1.805  -0.694   1.126  0.00  0.00    +0.149 HD
ENDROOT
BRANCH   1   6
ATOM      5  C   UNL     1      -0.185   1.560  -0.048  0.00  0.00    +0.033 C 
ATOM      6  C   UNL     1      -0.119   0.036   0.062  0.00  0.00    +0.101 C 
BRANCH   6   7
ATOM      7  C   UNL     1       0.729  -0.345   1.248  0.00  0.00    -0.016 A 
ATOM      8  C   UNL     1       1.008   0.589   2.228  0.00  0.00    +0.006 A 
ATOM      9  C   UNL     1       1.786   0.239   3.316  0.00  0.00    +0.000 A 
ATOM     10  C   UNL     1       2.285  -1.045   3.424  0.00  0.00    +0.001 A 
ATOM     11  C   UNL     1       2.006  -1.980   2.445  0.00  0.00    +0.013 A 
ATOM     12  C   UNL     1       1.224  -1.631   1.359  0.00  0.00    +0.060 A 
BRANCH  12  13
ATOM     13  C   UNL     1       0.915  -2.652   0.294  0.00  0.00    +0.418 C 
ATOM     14  F   UNL     1       1.565  -3.853   0.597  0.00  0.00    -0.166 F 
ATOM     15  F   UNL     1      -0.466  -2.869   0.243  0.00  0.00    -0.166 F 
ATOM     16  F   UNL     1       1.360  -2.181  -0.946  0.00  0.00    -0.166 F 
ENDBRANCH  12  13
ENDBRANCH   6   7
ENDBRANCH   1   6
BRANCH   2  17
ATOM     17  C   UNL     1      -3.642  -1.276  -0.661  0.00  0.00    +0.167 C 
ATOM     18  C   UNL     1      -4.465  -0.315   0.198  0.00  0.00    +0.038 C 
BRANCH  17  19
ATOM     19  N   UNL     1      -4.279  -1.428  -1.971  0.00  0.00    -0.222 N 
ATOM     20  C   UNL     1      -4.494  -0.420  -2.835  0.00  0.00    +0.254 C 
ATOM     21  O   UNL     1      -4.195   0.744  -2.655  0.00  0.00    -0.270 OA
ATOM     22  C   UNL     1      -5.154  -0.964  -4.040  0.00  0.00    +0.049 A 
ATOM     23  C   UNL     1      -5.604  -0.413  -5.229  0.00  0.00    +0.014 A 
ATOM     24  C   UNL     1      -6.197  -1.227  -6.182  0.00  0.00    +0.001 A 
ATOM     25  C   UNL     1      -6.342  -2.582  -5.954  0.00  0.00    +0.001 A 
ATOM     26  C   UNL     1      -5.896  -3.147  -4.769  0.00  0.00    +0.014 A 
ATOM     27  C   UNL     1      -5.302  -2.346  -3.808  0.00  0.00    +0.049 A 
ATOM     28  C   UNL     1      -4.722  -2.596  -2.471  0.00  0.00    +0.254 C 
ATOM     29  O   UNL     1      -4.657  -3.675  -1.917  0.00  0.00    -0.270 OA
ENDBRANCH  17  19
ENDBRANCH   2  17
TORSDOF 5
