REMARK  Name = ZINC38965832
REMARK  7 active torsions:
REMARK  status: ('A' for Active; 'I' for Inactive)
REMARK    1  A    between atoms: C_1  and  O_2
REMARK    2  A    between atoms: O_2  and  C_3
REMARK    3  A    between atoms: C_6  and  C_10
REMARK    4  A    between atoms: N_11  and  N_12
REMARK    5  A    between atoms: C_13  and  C_20
REMARK    6  A    between atoms: C_17  and  S_19
REMARK    7  A    between atoms: C_23  and  C_26
REMARK                            x       y       z     vdW  Elec       q    Type
REMARK                         _______ _______ _______ _____ _____    ______ ____
ROOT
ATOM      1  N   UNL     1      -6.248  -4.565   0.045  0.00  0.00    -0.207 N 
ATOM      2  C   UNL     1      -6.479  -6.020   0.051  0.00  0.00    +0.206 C 
ATOM      3  N   UNL     1      -7.947  -6.215   0.060  0.00  0.00    -0.231 NA
ATOM      4  N   UNL     1      -8.479  -4.965   0.627  0.00  0.00    -0.225 NA
ATOM      5  C   UNL     1      -7.582  -3.929   0.057  0.00  0.00    +0.231 C 
ATOM      6  H   UNL     1      -8.203  -7.008   0.629  0.00  0.00    +0.143 HD
ATOM      7  H   UNL     1      -8.422  -4.973   1.634  0.00  0.00    +0.143 HD
ENDROOT
BRANCH   2   8
ATOM      8  C   UNL     1      -5.873  -6.652  -1.203  0.00  0.00    +0.190 C 
ATOM      9  C   UNL     1      -6.159  -8.143  -1.245  0.00  0.00    +0.034 C 
ATOM     10  C   UNL     1      -4.937  -8.707  -1.218  0.00  0.00    +0.091 C 
ATOM     11  N   UNL     1      -3.974  -7.750  -1.167  0.00  0.00    -0.154 NA
ATOM     12  N   UNL     1      -4.403  -6.590  -1.158  0.00  0.00    -0.176 NA
BRANCH  10  13
ATOM     13  C   UNL     1      -4.678 -10.168  -1.241  0.00  0.00    +0.002 A 
ATOM     14  C   UNL     1      -5.742 -11.066  -1.299  0.00  0.00    +0.010 A 
ATOM     15  C   UNL     1      -5.496 -12.424  -1.320  0.00  0.00    +0.001 A 
ATOM     16  C   UNL     1      -4.195 -12.894  -1.284  0.00  0.00    +0.000 A 
ATOM     17  C   UNL     1      -3.135 -12.007  -1.227  0.00  0.00    +0.001 A 
ATOM     18  C   UNL     1      -3.370 -10.647  -1.210  0.00  0.00    +0.010 A 
ENDBRANCH  10  13
ENDBRANCH   2   8
BRANCH   1  20
ATOM     19  C   UNL     1      -4.958  -2.616   0.037  0.00  0.00    +0.138 C 
ATOM     20  N   UNL     1      -5.009  -3.912   0.036  0.00  0.00    -0.188 NA
BRANCH  19  24
ATOM     21  C   UNL     1      -1.200  -0.637   0.010  0.00  0.00    +0.134 A 
ATOM     22  C   UNL     1      -2.374   0.105   0.020  0.00  0.00    +0.047 A 
ATOM     23  C   UNL     1      -3.595  -0.533   0.028  0.00  0.00    +0.013 A 
ATOM     24  C   UNL     1      -3.653  -1.929   0.027  0.00  0.00    -0.004 A 
ATOM     25  C   UNL     1      -2.470  -2.672   0.017  0.00  0.00    +0.028 A 
ATOM     26  C   UNL     1      -1.252  -2.026   0.003  0.00  0.00    +0.060 A 
ATOM     27 BR   UNL     1       0.350  -3.030  -0.018  0.00  0.00    -0.046 Br
BRANCH  21  29
ATOM     28  C   UNL     1      -0.017   1.425   0.010  0.00  0.00    +0.277 C 
ATOM     29  O   UNL     1       0.002  -0.004   0.002  0.00  0.00    -0.494 OA
ENDBRANCH  21  29
ENDBRANCH  19  24
ENDBRANCH   1  20
BRANCH   5  30
ATOM     30  S   UNL     1      -8.099  -3.507  -1.630  0.00  0.00    -0.138 S 
ATOM     31  H   UNL     1      -9.310  -2.946  -1.468  0.00  0.00    +0.105 HD
ENDBRANCH   5  30
TORSDOF 6
