REMARK  Name = ZINC09331657
REMARK  4 active torsions:
REMARK  status: ('A' for Active; 'I' for Inactive)
REMARK    1  A    between atoms: C_10  and  N_69
REMARK    2  A    between atoms: C_21  and  C_23
REMARK    3  A    between atoms: C_27  and  O_29
REMARK    4  A    between atoms: O_29  and  C_30
REMARK                            x       y       z     vdW  Elec       q    Type
REMARK                         _______ _______ _______ _____ _____    ______ ____
ROOT
ATOM      1  C   UNL     1      -2.336   4.588   2.348  0.00  0.00    -0.072 C 
ATOM      2  C   UNL     1      -2.347   5.796   3.288  0.00  0.00    +0.052 C 
ATOM      3  C   UNL     1      -1.152   6.695   2.974  0.00  0.00    +0.189 C 
ATOM      4  C   UNL     1      -1.192   7.115   1.506  0.00  0.00    +0.052 C 
ATOM      5  C   UNL     1      -1.215   5.867   0.621  0.00  0.00    -0.072 C 
ATOM      6  N   UNL     1       0.098   5.987   3.260  0.00  0.00    -0.207 N 
ATOM      7  C   UNL     1       0.437   5.574   4.641  0.00  0.00    +0.136 C 
ATOM      8  C   UNL     1       1.939   5.278   4.548  0.00  0.00    +0.086 C 
ATOM      9  C   UNL     1       2.209   5.268   3.057  0.00  0.00    +0.069 C 
ATOM     10  N   UNL     1       1.148   5.649   2.425  0.00  0.00    -0.185 NA
ATOM     11  C   UNL     1       0.147   6.760   5.523  0.00  0.00    +0.017 A 
ATOM     12  C   UNL     1       0.688   6.804   6.795  0.00  0.00    +0.009 A 
ATOM     13  C   UNL     1       0.423   7.872   7.630  0.00  0.00    +0.001 A 
ATOM     14  C   UNL     1      -0.389   8.902   7.189  0.00  0.00    +0.004 A 
ATOM     15  C   UNL     1      -0.924   8.865   5.920  0.00  0.00    +0.046 A 
ATOM     16  C   UNL     1      -0.654   7.796   5.066  0.00  0.00    +0.128 A 
ATOM     17  O   UNL     1      -1.174   7.851   3.813  0.00  0.00    -0.467 OA
ATOM     18  N   UNL     1      -2.414   5.068   0.951  0.00  0.00    +0.385 N 
ATOM     19  H   UNL     1      -3.247   5.660   0.849  0.00  0.00    -0.081 HD
ENDROOT
BRANCH  18  29
ATOM     20  C   UNL     1      -3.049   5.486  -3.916  0.00  0.00    +0.000 A 
ATOM     21  C   UNL     1      -3.687   6.064  -2.834  0.00  0.00    +0.000 A 
ATOM     22  C   UNL     1      -3.502   5.542  -1.571  0.00  0.00    +0.002 A 
ATOM     23  C   UNL     1      -2.677   4.442  -1.376  0.00  0.00    -0.058 A 
ATOM     24  C   UNL     1      -2.042   3.866  -2.453  0.00  0.00    -0.046 A 
ATOM     25  C   UNL     1      -2.228   4.394  -3.724  0.00  0.00    +0.004 A 
ATOM     26  C   UNL     1      -1.117   2.685  -2.312  0.00  0.00    +0.035 C 
ATOM     27  C   UNL     1      -1.349   1.979  -0.978  0.00  0.00    +0.003 C 
ATOM     28  C   UNL     1      -1.291   3.027   0.140  0.00  0.00    -0.010 C 
ATOM     29  C   UNL     1      -2.526   3.919   0.029  0.00  0.00    -0.037 C 
ENDBRANCH  18  29
BRANCH   9  30
ATOM     30  C   UNL     1       3.486   4.884   2.425  0.00  0.00    +0.001 A 
ATOM     31  C   UNL     1       4.568   4.488   3.215  0.00  0.00    +0.010 A 
ATOM     32  C   UNL     1       5.760   4.129   2.620  0.00  0.00    +0.004 A 
ATOM     33  C   UNL     1       5.887   4.159   1.244  0.00  0.00    +0.046 A 
ATOM     34  C   UNL     1       4.817   4.551   0.450  0.00  0.00    +0.127 A 
ATOM     35  C   UNL     1       3.615   4.909   1.036  0.00  0.00    +0.055 A 
BRANCH  34  36
ATOM     36  O   UNL     1       4.949   4.579  -0.902  0.00  0.00    -0.434 OA
BRANCH  36  37
ATOM     37  C   UNL     1       6.216   4.192  -1.439  0.00  0.00    +0.541 C 
ATOM     38  F   UNL     1       7.210   5.044  -0.947  0.00  0.00    -0.166 F 
ATOM     39  F   UNL     1       6.500   2.875  -1.060  0.00  0.00    -0.166 F 
ENDBRANCH  36  37
ENDBRANCH  34  36
ENDBRANCH   9  30
TORSDOF 4
