REMARK  Name = ZINC36275499
REMARK  6 active torsions:
REMARK  status: ('A' for Active; 'I' for Inactive)
REMARK    1  A    between atoms: C_1  and  C_2
REMARK    2  A    between atoms: C_5  and  C_9
REMARK    3  A    between atoms: C_7  and  C_8
REMARK    4  A    between atoms: C_10  and  C_24
REMARK    5  A    between atoms: C_18  and  C_20
REMARK    6  A    between atoms: C_20  and  C_22
REMARK                            x       y       z     vdW  Elec       q    Type
REMARK                         _______ _______ _______ _____ _____    ______ ____
ROOT
ATOM      1  C   UNL     1       0.059  -4.255  -0.021  0.00  0.00    +0.007 A 
ATOM      2  C   UNL     1      -0.988  -4.962   0.468  0.00  0.00    -0.003 A 
ATOM      3  S   UNL     1      -0.487  -6.656   0.235  0.00  0.00    -0.073 S 
ATOM      4  C   UNL     1       1.101  -6.379  -0.506  0.00  0.00    +0.116 A 
ATOM      5  C   UNL     1       1.203  -4.979  -0.561  0.00  0.00    +0.080 A 
ATOM      6  C   UNL     1       2.412  -4.468  -1.132  0.00  0.00    +0.260 A 
ATOM      7  O   UNL     1       2.595  -3.266  -1.219  0.00  0.00    -0.267 OA
ATOM      8  N   UNL     1       3.344  -5.334  -1.571  0.00  0.00    -0.309 N 
ATOM      9  H   UNL     1       4.165  -4.994  -1.959  0.00  0.00    +0.170 HD
ATOM     10  C   UNL     1       3.157  -6.676  -1.482  0.00  0.00    +0.129 A 
ATOM     11  N   UNL     1       2.069  -7.173  -0.956  0.00  0.00    -0.225 NA
ATOM     12  C   UNL     1      -2.269  -4.440   1.066  0.00  0.00    +0.052 C 
ENDROOT
BRANCH   1  17
ATOM     13  C   UNL     1      -0.018   1.503   0.010  0.00  0.00    +0.044 C 
ATOM     14  C   UNL     1       0.002  -0.004   0.002  0.00  0.00    -0.048 A 
ATOM     15  C   UNL     1       0.006  -0.686  -1.202  0.00  0.00    +0.004 A 
ATOM     16  C   UNL     1       0.024  -2.066  -1.215  0.00  0.00    +0.009 A 
ATOM     17  C   UNL     1       0.040  -2.772  -0.013  0.00  0.00    -0.016 A 
ATOM     18  C   UNL     1       0.036  -2.079   1.196  0.00  0.00    +0.012 A 
ATOM     19  C   UNL     1       0.023  -0.699   1.198  0.00  0.00    -0.047 A 
ATOM     20  C   UNL     1       0.025   0.052   2.504  0.00  0.00    +0.044 C 
ENDBRANCH   1  17
BRANCH  10  21
ATOM     21  C   UNL     1       4.229  -7.608  -1.986  0.00  0.00    +0.143 C 
ATOM     22  C   UNL     1       3.908  -8.024  -3.423  0.00  0.00    +0.033 C 
ATOM     23 CL   UNL     1       5.824  -6.769  -1.945  0.00  0.00    -0.114 Cl
ENDBRANCH  10  21
TORSDOF 2
