REMARK  Name = ZINC29432632
REMARK  13 active torsions:
REMARK  status: ('A' for Active; 'I' for Inactive)
REMARK    1  A    between atoms: C_1  and  C_2
REMARK    2  A    between atoms: C_2  and  C_3
REMARK    3  A    between atoms: C_3  and  C_4
REMARK    4  A    between atoms: C_4  and  C_5
REMARK    5  A    between atoms: C_5  and  C_6
REMARK    6  A    between atoms: C_6  and  C_8
REMARK    7  A    between atoms: C_6  and  N_9
REMARK    8  A    between atoms: C_10  and  C_12
REMARK    9  A    between atoms: C_12  and  N_13
REMARK   10  A    between atoms: C_19  and  C_22
REMARK   11  A    between atoms: C_22  and  C_23
REMARK   12  A    between atoms: C_22  and  C_24
REMARK   13  A    between atoms: C_22  and  C_25
REMARK                            x       y       z     vdW  Elec       q    Type
REMARK                         _______ _______ _______ _____ _____    ______ ____
ROOT
ATOM      1  N   UNL     1      -0.504  -7.634  -2.414  0.00  0.00    -0.215 N 
ATOM      2  C   UNL     1       0.768  -7.869  -2.030  0.00  0.00    +0.247 C 
ATOM      3  O   UNL     1       1.626  -7.047  -1.790  0.00  0.00    -0.273 OA
ATOM      4  C   UNL     1       0.897  -9.374  -1.962  0.00  0.00    +0.113 C 
ATOM      5  C   UNL     1       1.237  -9.814  -0.542  0.00  0.00    +0.035 C 
ATOM      6  C   UNL     1       2.608  -9.257  -0.148  0.00  0.00    +0.006 C 
ATOM      7  C   UNL     1       3.666  -9.770  -1.127  0.00  0.00    -0.005 C 
ATOM      8  C   UNL     1       3.323  -9.304  -2.544  0.00  0.00    +0.006 C 
ATOM      9  C   UNL     1       1.955  -9.861  -2.946  0.00  0.00    +0.035 C 
ATOM     10  N   UNL     1      -0.432  -9.864  -2.349  0.00  0.00    -0.285 N 
ATOM     11  C   UNL     1      -1.185  -8.773  -2.589  0.00  0.00    +0.310 C 
ATOM     12  O   UNL     1      -2.350  -8.819  -2.931  0.00  0.00    -0.252 OA
ATOM     13  H   UNL     1      -0.713 -10.790  -2.414  0.00  0.00    +0.151 HD
ENDROOT
BRANCH   7  14
ATOM     14  C   UNL     1       5.037  -9.222  -0.729  0.00  0.00    -0.035 C 
ATOM     15  C   UNL     1       5.382  -9.690   0.687  0.00  0.00    +0.011 C 
ATOM     16  C   UNL     1       6.096  -9.736  -1.707  0.00  0.00    +0.011 C 
ATOM     17  C   UNL     1       5.007  -7.693  -0.767  0.00  0.00    +0.011 C 
ENDBRANCH   7  14
BRANCH   1  18
ATOM     18  C   UNL     1      -1.071  -6.298  -2.609  0.00  0.00    +0.213 C 
BRANCH  18  20
ATOM     19  N   UNL     1      -2.249  -4.596  -1.253  0.00  0.00    -0.311 N 
ATOM     20  C   UNL     1      -1.666  -5.810  -1.313  0.00  0.00    +0.231 C 
ATOM     21  O   UNL     1      -1.621  -6.511  -0.324  0.00  0.00    -0.274 OA
ATOM     22  H   UNL     1      -2.285  -4.037  -2.044  0.00  0.00    +0.149 HD
BRANCH  19  23
ATOM     23  C   UNL     1      -2.827  -4.123   0.007  0.00  0.00    +0.070 C 
ATOM     24  C   UNL     1      -4.256  -4.653   0.143  0.00  0.00    +0.028 C 
BRANCH  23  25
ATOM     25  C   UNL     1      -2.848  -2.593   0.015  0.00  0.00    +0.022 C 
BRANCH  25  26
ATOM     26  C   UNL     1      -1.413  -2.063   0.004  0.00  0.00    +0.002 C 
BRANCH  26  27
ATOM     27  C   UNL     1      -1.433  -0.534   0.013  0.00  0.00    -0.000 C 
BRANCH  27  29
ATOM     28  C   UNL     1      -0.019   1.526   0.010  0.00  0.00    +0.004 C 
ATOM     29  C   UNL     1       0.002  -0.004   0.002  0.00  0.00    -0.003 C 
ENDBRANCH  27  29
ENDBRANCH  26  27
ENDBRANCH  25  26
ENDBRANCH  23  25
ENDBRANCH  19  23
ENDBRANCH  18  20
ENDBRANCH   1  18
TORSDOF 8
