REMARK  Name = ZINC66139144
REMARK  7 active torsions:
REMARK  status: ('A' for Active; 'I' for Inactive)
REMARK    1  A    between atoms: C_1  and  C_2
REMARK    2  A    between atoms: C_7  and  C_11
REMARK    3  A    between atoms: C_11  and  N_12
REMARK    4  A    between atoms: N_15  and  C_16
REMARK    5  A    between atoms: C_16  and  C_17
REMARK    6  A    between atoms: C_17  and  C_18
REMARK    7  A    between atoms: C_18  and  C_19
REMARK                            x       y       z     vdW  Elec       q    Type
REMARK                         _______ _______ _______ _____ _____    ______ ____
ROOT
ATOM      1  N   UNL     1       1.469  -5.880   2.655  0.00  0.00    -0.294 N 
ATOM      2  C   UNL     1       1.732  -7.014   3.335  0.00  0.00    +0.300 C 
ATOM      3  O   UNL     1       0.822  -7.750   3.664  0.00  0.00    -0.253 OA
ATOM      4  N   UNL     1       3.003  -7.331   3.651  0.00  0.00    -0.299 N 
ATOM      5  H   UNL     1       2.195  -5.293   2.393  0.00  0.00    +0.151 HD
ATOM      6  H   UNL     1       3.729  -6.743   3.388  0.00  0.00    +0.150 HD
ENDROOT
BRANCH   1   7
ATOM      7  C   UNL     1       0.087  -5.536   2.312  0.00  0.00    +0.160 C 
BRANCH   7  14
ATOM      8  C   UNL     1      -0.018   1.503   0.010  0.00  0.00    +0.044 C 
ATOM      9  C   UNL     1       0.002  -0.004   0.002  0.00  0.00    -0.046 A 
ATOM     10  C   UNL     1       0.006  -0.703  -1.216  0.00  0.00    +0.021 A 
ATOM     11  C   UNL     1       0.025  -2.052  -1.227  0.00  0.00    +0.093 A 
ATOM     12  N   UNL     1       0.040  -2.757  -0.058  0.00  0.00    -0.308 N 
ATOM     13  C   UNL     1       0.059  -4.097   0.214  0.00  0.00    +0.115 A 
ATOM     14  C   UNL     1       0.067  -4.231   1.559  0.00  0.00    +0.051 A 
ATOM     15  N   UNL     1       0.053  -3.014   2.108  0.00  0.00    -0.342 N 
ATOM     16  C   UNL     1       0.036  -2.103   1.146  0.00  0.00    +0.116 A 
ATOM     17  C   UNL     1       0.023  -0.694   1.174  0.00  0.00    +0.048 A 
ATOM     18  H   UNL     1       0.055  -2.827   3.060  0.00  0.00    +0.167 HD
ENDBRANCH   7  14
ENDBRANCH   1   7
BRANCH   4  19
ATOM     19  C   UNL     1       3.289  -8.563   4.390  0.00  0.00    +0.106 C 
BRANCH  19  20
ATOM     20  C   UNL     1       4.798  -8.683   4.617  0.00  0.00    +0.025 C 
BRANCH  20  21
ATOM     21  C   UNL     1       5.096  -9.970   5.389  0.00  0.00    +0.064 C 
BRANCH  21  22
ATOM     22  C   UNL     1       6.582 -10.088   5.612  0.00  0.00    +0.079 A 
ATOM     23  N   UNL     1       7.291  -9.647   6.621  0.00  0.00    -0.249 NA
ATOM     24  C   UNL     1       8.605  -9.822   6.691  0.00  0.00    +0.052 A 
ATOM     25  C   UNL     1       9.148 -10.490   5.638  0.00  0.00    +0.013 A 
ATOM     26  S   UNL     1       7.734 -10.827   4.628  0.00  0.00    -0.077 S 
ATOM     27  C   UNL     1      10.581 -10.838   5.422  0.00  0.00    +0.044 C 
ATOM     28  C   UNL     1      11.429 -10.009   6.400  0.00  0.00    +0.006 C 
ATOM     29  C   UNL     1      10.807 -10.103   7.796  0.00  0.00    +0.006 C 
ATOM     30  C   UNL     1       9.483  -9.337   7.835  0.00  0.00    +0.056 C 
ENDBRANCH  21  22
ENDBRANCH  20  21
ENDBRANCH  19  20
ENDBRANCH   4  19
TORSDOF 6
