REMARK  Name = ZINC04113664
REMARK  9 active torsions:
REMARK  status: ('A' for Active; 'I' for Inactive)
REMARK    1  A    between atoms: C_1  and  C_2
REMARK    2  A    between atoms: C_3  and  C_20
REMARK    3  A    between atoms: C_4  and  C_10
REMARK    4  A    between atoms: C_12  and  O_18
REMARK    5  A    between atoms: C_13  and  O_17
REMARK    6  A    between atoms: O_18  and  C_19
REMARK    7  A    between atoms: C_20  and  O_22
REMARK    8  A    between atoms: O_22  and  C_23
REMARK    9  A    between atoms: C_23  and  C_24
REMARK                            x       y       z     vdW  Elec       q    Type
REMARK                         _______ _______ _______ _____ _____    ______ ____
ROOT
ATOM      1  C   UNL     1       8.507  -1.273   6.154  0.00  0.00    +0.061 C 
ATOM      2  C   UNL     1       7.301  -0.654   6.813  0.00  0.00    +0.021 C 
ATOM      3  C   UNL     1       6.164  -0.495   6.102  0.00  0.00    +0.078 C 
ATOM      4  C   UNL     1       4.978   0.137   6.801  0.00  0.00    +0.144 C 
ATOM      5  N   UNL     1       5.159   0.517   8.212  0.00  0.00    -0.288 N 
ATOM      6  C   UNL     1       6.357   0.293   8.787  0.00  0.00    +0.304 C 
ATOM      7  O   UNL     1       6.519   0.608   9.950  0.00  0.00    -0.252 OA
ATOM      8  N   UNL     1       7.375  -0.265   8.120  0.00  0.00    -0.273 N 
ATOM      9  H   UNL     1       4.435   0.923   8.714  0.00  0.00    +0.151 HD
ATOM     10  H   UNL     1       8.213  -0.399   8.591  0.00  0.00    +0.156 HD
ENDROOT
BRANCH   4  11
ATOM     11  C   UNL     1       4.587   1.371   6.029  0.00  0.00    -0.018 A 
ATOM     12  C   UNL     1       3.451   1.360   5.241  0.00  0.00    +0.055 A 
ATOM     13  C   UNL     1       3.086   2.495   4.535  0.00  0.00    +0.163 A 
ATOM     14  C   UNL     1       3.872   3.642   4.613  0.00  0.00    +0.173 A 
ATOM     15  C   UNL     1       5.012   3.644   5.401  0.00  0.00    +0.063 A 
ATOM     16  C   UNL     1       5.367   2.509   6.107  0.00  0.00    +0.025 A 
ATOM     17 BR   UNL     1       6.082   5.199   5.510  0.00  0.00    -0.046 Br
BRANCH  14  18
ATOM     18  O   UNL     1       3.521   4.757   3.918  0.00  0.00    -0.503 OA
ATOM     19  H   UNL     1       3.896   4.800   3.028  0.00  0.00    +0.292 HD
ENDBRANCH  14  18
BRANCH  13  20
ATOM     20  O   UNL     1       1.966   2.488   3.764  0.00  0.00    -0.491 OA
ATOM     21  C   UNL     1       1.170   1.302   3.788  0.00  0.00    +0.277 C 
ENDBRANCH  13  20
ENDBRANCH   4  11
BRANCH   3  22
ATOM     22  C   UNL     1       6.086  -0.898   4.748  0.00  0.00    +0.339 C 
ATOM     23  O   UNL     1       5.523  -1.936   4.454  0.00  0.00    -0.245 OA
BRANCH  22  24
ATOM     24  O   UNL     1       6.636  -0.132   3.783  0.00  0.00    -0.457 OA
BRANCH  24  25
ATOM     25  C   UNL     1       6.416  -0.536   2.430  0.00  0.00    +0.268 C 
BRANCH  25  26
ATOM     26  C   UNL     1       7.190   0.366   1.504  0.00  0.00    -0.007 A 
ATOM     27  C   UNL     1       6.571   1.463   0.933  0.00  0.00    +0.011 A 
ATOM     28  C   UNL     1       7.277   2.294   0.083  0.00  0.00    +0.050 A 
ATOM     29  C   UNL     1       8.607   2.029  -0.199  0.00  0.00    +0.166 A 
ATOM     30  C   UNL     1       9.231   0.924   0.376  0.00  0.00    +0.167 A 
ATOM     31  C   UNL     1       8.517   0.096   1.227  0.00  0.00    +0.056 A 
ATOM     32  O   UNL     1      10.525   0.881  -0.054  0.00  0.00    -0.453 OA
ATOM     33  C   UNL     1      10.802   2.195  -0.573  0.00  0.00    +0.466 C 
ATOM     34  O   UNL     1       9.511   2.678  -0.990  0.00  0.00    -0.453 OA
ENDBRANCH  25  26
ENDBRANCH  24  25
ENDBRANCH  22  24
ENDBRANCH   3  22
TORSDOF 7
