REMARK  Name = ZINC64139385
REMARK  12 active torsions:
REMARK  status: ('A' for Active; 'I' for Inactive)
REMARK    1  A    between atoms: C_1  and  C_2
REMARK    2  A    between atoms: C_4  and  C_30
REMARK    3  A    between atoms: C_5  and  C_11
REMARK    4  A    between atoms: C_7  and  C_8
REMARK    5  A    between atoms: C_8  and  C_10
REMARK    6  A    between atoms: C_11  and  C_12
REMARK    7  A    between atoms: N_14  and  C_15
REMARK    8  A    between atoms: C_15  and  C_16
REMARK    9  A    between atoms: C_16  and  C_18
REMARK   10  A    between atoms: C_16  and  N_25
REMARK   11  A    between atoms: C_30  and  O_32
REMARK   12  A    between atoms: O_32  and  C_33
REMARK                            x       y       z     vdW  Elec       q    Type
REMARK                         _______ _______ _______ _____ _____    ______ ____
ROOT
ATOM      1  C   UNL     1       3.963  -0.292  -2.233  0.00  0.00    +0.219 C 
ATOM      2  O   UNL     1       4.092   0.866  -1.897  0.00  0.00    -0.275 OA
ATOM      3  N   UNL     1       5.031  -0.993  -2.661  0.00  0.00    -0.316 N 
ATOM      4  H   UNL     1       4.928  -1.919  -2.930  0.00  0.00    +0.149 HD
ENDROOT
BRANCH   1   5
ATOM      5  C   UNL     1       2.607  -0.947  -2.173  0.00  0.00    +0.151 C 
BRANCH   5   9
ATOM      6  C   UNL     1       0.232   3.125  -1.717  0.00  0.00    +0.019 C 
ATOM      7  C   UNL     1      -0.038   1.632  -1.520  0.00  0.00    +0.077 C 
ATOM      8  C   UNL     1       0.808   0.803  -2.469  0.00  0.00    +0.067 C 
ATOM      9  C   UNL     1       1.592   0.045  -1.665  0.00  0.00    +0.061 C 
ATOM     10  N   UNL     1       1.362   0.278  -0.372  0.00  0.00    -0.251 NA
ATOM     11  C   UNL     1       0.438   1.175  -0.154  0.00  0.00    +0.091 C 
BRANCH  11  12
ATOM     12  C   UNL     1      -0.045   1.651   1.151  0.00  0.00    +0.175 C 
ATOM     13  O   UNL     1      -0.914   2.495   1.206  0.00  0.00    -0.291 OA
ATOM     14  C   UNL     1       0.539   1.088   2.421  0.00  0.00    +0.093 C 
ENDBRANCH  11  12
BRANCH   8  15
ATOM     15  C   UNL     1       0.781   0.818  -3.936  0.00  0.00    +0.337 C 
ATOM     16  O   UNL     1       1.525   0.090  -4.564  0.00  0.00    -0.245 OA
BRANCH  15  17
ATOM     17  O   UNL     1      -0.068   1.639  -4.586  0.00  0.00    -0.465 OA
ATOM     18  C   UNL     1      -0.040   1.601  -6.014  0.00  0.00    +0.280 C 
ENDBRANCH  15  17
ENDBRANCH   8  15
ENDBRANCH   5   9
ENDBRANCH   1   5
BRANCH   3  19
ATOM     19  C   UNL     1       6.349  -0.356  -2.720  0.00  0.00    +0.093 C 
BRANCH  19  20
ATOM     20  C   UNL     1       7.354  -1.320  -3.355  0.00  0.00    -0.019 C 
BRANCH  20  21
ATOM     21  C   UNL     1       7.529  -2.522  -2.463  0.00  0.00    -0.041 A 
ATOM     22  C   UNL     1       6.870  -3.702  -2.756  0.00  0.00    +0.003 A 
ATOM     23  C   UNL     1       7.031  -4.805  -1.938  0.00  0.00    +0.000 A 
ATOM     24  C   UNL     1       7.851  -4.729  -0.828  0.00  0.00    +0.001 A 
ATOM     25  C   UNL     1       8.511  -3.550  -0.534  0.00  0.00    +0.020 A 
ATOM     26  C   UNL     1       8.354  -2.448  -1.356  0.00  0.00    +0.043 A 
ATOM     27 CL   UNL     1       9.188  -0.969  -0.992  0.00  0.00    -0.083 Cl
ENDBRANCH  20  21
BRANCH  20  28
ATOM     28  N   UNL     1       6.854  -1.752  -4.667  0.00  0.00    +0.385 N 
ATOM     29  C   UNL     1       6.644  -0.575  -5.548  0.00  0.00    -0.078 C 
ATOM     30  C   UNL     1       6.684  -1.186  -6.971  0.00  0.00    -0.020 C 
ATOM     31  C   UNL     1       7.779  -2.270  -6.851  0.00  0.00    -0.020 C 
ATOM     32  C   UNL     1       7.867  -2.589  -5.348  0.00  0.00    -0.078 C 
ATOM     33  H   UNL     1       5.993  -2.267  -4.560  0.00  0.00    -0.081 HD
ENDBRANCH  20  28
ENDBRANCH  19  20
ENDBRANCH   3  19
TORSDOF 9
