REMARK  Name = ZINC49024333
REMARK  5 active torsions:
REMARK  status: ('A' for Active; 'I' for Inactive)
REMARK    1  A    between atoms: C_1  and  C_2
REMARK    2  A    between atoms: C_2  and  C_3
REMARK    3  A    between atoms: C_6  and  N_9
REMARK    4  A    between atoms: N_9  and  C_10
REMARK    5  A    between atoms: N_9  and  C_11
REMARK                            x       y       z     vdW  Elec       q    Type
REMARK                         _______ _______ _______ _____ _____    ______ ____
ROOT
ATOM      1  C   UNL     1       4.641  -3.348  -3.631  0.00  0.00    +0.031 A 
ATOM      2  C   UNL     1       5.353  -3.703  -4.777  0.00  0.00    +0.024 A 
ATOM      3  C   UNL     1       6.475  -4.473  -4.676  0.00  0.00    +0.015 A 
ATOM      4  C   UNL     1       6.913  -4.907  -3.421  0.00  0.00    +0.048 A 
ATOM      5  C   UNL     1       6.204  -4.554  -2.257  0.00  0.00    +0.047 A 
ATOM      6  C   UNL     1       5.070  -3.768  -2.375  0.00  0.00    +0.047 A 
ATOM      7  N   UNL     1       6.833  -5.103  -1.143  0.00  0.00    -0.278 N 
ATOM      8  C   UNL     1       7.926  -5.803  -1.493  0.00  0.00    +0.289 C 
ATOM      9  O   UNL     1       8.673  -6.391  -0.740  0.00  0.00    -0.266 OA
ATOM     10  C   UNL     1       8.053  -5.726  -2.985  0.00  0.00    +0.249 C 
ATOM     11  O   UNL     1       8.911  -6.230  -3.681  0.00  0.00    -0.282 OA
ATOM     12  H   UNL     1       6.524  -4.993  -0.230  0.00  0.00    +0.155 HD
ENDROOT
BRANCH   1  13
ATOM     13  N   UNL     1       3.501  -2.565  -3.743  0.00  0.00    -0.330 N 
ATOM     14  C   UNL     1       2.973  -2.226  -5.067  0.00  0.00    +0.129 C 
BRANCH  13  18
ATOM     15  C   UNL     1       0.737  -0.470  -1.259  0.00  0.00    -0.011 C 
ATOM     16  C   UNL     1       2.205  -0.040  -1.231  0.00  0.00    +0.005 C 
ATOM     17  C   UNL     1       2.910  -0.550  -2.489  0.00  0.00    +0.023 C 
ATOM     18  C   UNL     1       2.826  -2.077  -2.538  0.00  0.00    +0.073 C 
ATOM     19  C   UNL     1       1.358  -2.506  -2.567  0.00  0.00    +0.023 C 
ATOM     20  C   UNL     1       0.653  -1.997  -1.308  0.00  0.00    +0.005 C 
BRANCH  15  22
ATOM     21  C   UNL     1       0.006   1.569  -0.014  0.00  0.00    +0.004 C 
ATOM     22  C   UNL     1       0.032   0.040  -0.001  0.00  0.00    -0.000 C 
ENDBRANCH  15  22
ENDBRANCH  13  18
ENDBRANCH   1  13
TORSDOF 3
