REMARK  Name = ZINC03845048
REMARK  4 active torsions:
REMARK  status: ('A' for Active; 'I' for Inactive)
REMARK    1  A    between atoms: C_4  and  C_7
REMARK    2  A    between atoms: C_7  and  C_9
REMARK    3  A    between atoms: C_13  and  C_22
REMARK    4  A    between atoms: C_14  and  N_21
REMARK                            x       y       z     vdW  Elec       q    Type
REMARK                         _______ _______ _______ _____ _____    ______ ____
ROOT
ATOM      1  C   UNL     1      -3.665   3.116   0.044  0.00  0.00    +0.087 A 
ATOM      2  C   UNL     1      -2.478   3.831   0.011  0.00  0.00    +0.027 A 
ATOM      3  C   UNL     1      -1.252   3.127   0.004  0.00  0.00    -0.000 A 
ATOM      4  C   UNL     1      -0.042   3.830  -0.045  0.00  0.00    +0.023 A 
ATOM      5  C   UNL     1       1.162   3.132  -0.052  0.00  0.00    +0.035 A 
ATOM      6  C   UNL     1       1.157   1.719  -0.010  0.00  0.00    +0.037 A 
ATOM      7  C   UNL     1      -0.040   1.026   0.038  0.00  0.00    +0.049 A 
ATOM      8  C   UNL     1      -1.247   1.714   0.040  0.00  0.00    +0.051 A 
ATOM      9  N   UNL     1      -2.432   1.012   0.082  0.00  0.00    -0.321 N 
ATOM     10  H   UNL     1      -2.412   0.013   0.111  0.00  0.00    +0.169 HD
ATOM     11  C   UNL     1      -3.617   1.650   0.086  0.00  0.00    +0.260 A 
ATOM     12  O   UNL     1      -4.652   1.010   0.124  0.00  0.00    -0.267 OA
ENDROOT
BRANCH   6  13
ATOM     13  N   UNL     1       2.354   1.026  -0.017  0.00  0.00    -0.357 N 
ATOM     14  H   UNL     1       2.353   0.056   0.011  0.00  0.00    +0.142 HD
ATOM     15  H   UNL     1       3.194   1.509  -0.051  0.00  0.00    +0.142 HD
ENDBRANCH   6  13
BRANCH   1  16
ATOM     16  C   UNL     1      -4.957   3.818   0.048  0.00  0.00    +0.198 C 
ATOM     17  O   UNL     1      -5.278   4.495   1.006  0.00  0.00    -0.286 OA
BRANCH  16  21
ATOM     18  C   UNL     1      -7.566   3.484  -3.288  0.00  0.00    +0.000 A 
ATOM     19  C   UNL     1      -7.894   4.324  -2.238  0.00  0.00    +0.001 A 
ATOM     20  C   UNL     1      -7.051   4.438  -1.152  0.00  0.00    +0.012 A 
ATOM     21  C   UNL     1      -5.865   3.702  -1.113  0.00  0.00    +0.022 A 
ATOM     22  C   UNL     1      -5.537   2.860  -2.178  0.00  0.00    +0.012 A 
ATOM     23  C   UNL     1      -6.392   2.752  -3.255  0.00  0.00    +0.001 A 
ENDBRANCH  16  21
ENDBRANCH   1  16
BRANCH   5  24
ATOM     24  C   UNL     1       2.433   3.861  -0.104  0.00  0.00    +0.260 C 
ATOM     25  O   UNL     1       2.436   5.074  -0.140  0.00  0.00    -0.296 OA
ENDBRANCH   5  24
TORSDOF 4
