REMARK  Name = ZINC65518775
REMARK  8 active torsions:
REMARK  status: ('A' for Active; 'I' for Inactive)
REMARK    1  A    between atoms: C_1  and  C_2
REMARK    2  A    between atoms: C_2  and  C_3
REMARK    3  A    between atoms: C_2  and  N_4
REMARK    4  A    between atoms: C_7  and  C_9
REMARK    5  A    between atoms: C_9  and  N_10
REMARK    6  A    between atoms: N_13  and  N_14
REMARK    7  A    between atoms: C_15  and  C_17
REMARK    8  A    between atoms: N_21  and  C_22
REMARK                            x       y       z     vdW  Elec       q    Type
REMARK                         _______ _______ _______ _____ _____    ______ ____
ROOT
ATOM      1  N   UNL     1      -5.178  -2.856  -0.677  0.00  0.00    -0.298 N 
ATOM      2  C   UNL     1      -6.212  -3.518  -0.122  0.00  0.00    +0.316 C 
ATOM      3  O   UNL     1      -6.303  -3.600   1.087  0.00  0.00    -0.251 OA
ATOM      4  N   UNL     1      -7.146  -4.090  -0.909  0.00  0.00    -0.218 N 
ATOM      5  H   UNL     1      -5.105  -2.790  -1.642  0.00  0.00    +0.150 HD
ATOM      6  H   UNL     1      -7.890  -4.566  -0.509  0.00  0.00    +0.174 HD
ENDROOT
BRANCH   4   7
ATOM      7  N   UNL     1      -7.041  -3.995  -2.303  0.00  0.00    -0.228 N 
ATOM      8  C   UNL     1      -7.975  -4.567  -3.089  0.00  0.00    +0.277 C 
ATOM      9  O   UNL     1      -8.851  -5.251  -2.594  0.00  0.00    -0.267 OA
ATOM     10  H   UNL     1      -6.297  -3.518  -2.702  0.00  0.00    +0.173 HD
BRANCH   8  11
ATOM     11  C   UNL     1      -7.935  -4.364  -4.541  0.00  0.00    +0.107 A 
ATOM     12  C   UNL     1      -6.960  -3.687  -5.242  0.00  0.00    +0.047 A 
ATOM     13  C   UNL     1      -7.316  -3.738  -6.594  0.00  0.00    +0.036 A 
ATOM     14  C   UNL     1      -8.477  -4.429  -6.692  0.00  0.00    +0.101 A 
ATOM     15  N   UNL     1      -8.861  -4.820  -5.452  0.00  0.00    -0.345 N 
ATOM     16  C   UNL     1     -10.062  -5.595  -5.133  0.00  0.00    +0.149 C 
ATOM     17 BR   UNL     1      -6.349  -2.975  -8.030  0.00  0.00    -0.049 Br
ENDBRANCH   8  11
ENDBRANCH   4   7
BRANCH   1  18
ATOM     18  C   UNL     1      -4.163  -2.234   0.177  0.00  0.00    +0.107 C 
BRANCH  18  22
ATOM     19  N   UNL     1      -2.025   0.522  -0.049  0.00  0.00    +0.381 N 
ATOM     20  C   UNL     1      -2.608   0.709  -1.402  0.00  0.00    -0.078 C 
ATOM     21  C   UNL     1      -3.731  -0.358  -1.455  0.00  0.00    -0.015 C 
ATOM     22  C   UNL     1      -3.108  -1.552  -0.697  0.00  0.00    -0.012 C 
ATOM     23  C   UNL     1      -2.002  -0.939   0.181  0.00  0.00    -0.074 C 
ATOM     24  H   UNL     1      -2.601   0.975   0.644  0.00  0.00    -0.081 HD
BRANCH  19  26
ATOM     25  C   UNL     1      -0.703   2.574  -0.247  0.00  0.00    -0.014 C 
ATOM     26  C   UNL     1      -0.660   1.063  -0.007  0.00  0.00    -0.075 C 
ATOM     27  C   UNL     1      -0.042   0.782   1.365  0.00  0.00    -0.014 C 
ENDBRANCH  19  26
ENDBRANCH  18  22
ENDBRANCH   1  18
TORSDOF 5
