REMARK  Name = ZINC00861039
REMARK  8 active torsions:
REMARK  status: ('A' for Active; 'I' for Inactive)
REMARK    1  A    between atoms: C_1  and  C_2
REMARK    2  A    between atoms: C_3  and  C_32
REMARK    3  A    between atoms: C_4  and  C_23
REMARK    4  A    between atoms: C_10  and  C_15
REMARK    5  A    between atoms: C_18  and  O_21
REMARK    6  A    between atoms: O_21  and  C_22
REMARK    7  A    between atoms: C_32  and  O_34
REMARK    8  A    between atoms: O_34  and  C_35
REMARK                            x       y       z     vdW  Elec       q    Type
REMARK                         _______ _______ _______ _____ _____    ______ ____
ROOT
ATOM      1  C   UNL     1      -0.351  -6.187   2.721  0.00  0.00    +0.061 C 
ATOM      2  C   UNL     1      -0.819  -5.382   1.536  0.00  0.00    +0.016 C 
ATOM      3  C   UNL     1      -1.287  -4.135   1.719  0.00  0.00    +0.065 C 
ATOM      4  C   UNL     1      -1.754  -3.302   0.562  0.00  0.00    +0.092 C 
ATOM      5  C   UNL     1      -2.025  -4.160  -0.648  0.00  0.00    +0.024 C 
ATOM      6  C   UNL     1      -1.520  -5.409  -0.735  0.00  0.00    +0.016 C 
ATOM      7  N   UNL     1      -0.762  -5.924   0.283  0.00  0.00    -0.321 N 
ATOM      8  C   UNL     1      -1.776  -6.269  -1.948  0.00  0.00    +0.059 C 
ATOM      9  C   UNL     1      -3.139  -5.917  -2.548  0.00  0.00    +0.032 C 
ATOM     10  C   UNL     1      -3.142  -4.428  -2.909  0.00  0.00    +0.088 C 
ATOM     11  C   UNL     1      -2.817  -3.625  -1.679  0.00  0.00    +0.162 C 
ATOM     12  O   UNL     1      -3.248  -2.494  -1.575  0.00  0.00    -0.292 OA
ATOM     13  H   UNL     1      -0.104  -6.783   0.084  0.00  0.00    +0.152 HD
ENDROOT
BRANCH   4  14
ATOM     14  C   UNL     1      -0.692  -2.288   0.222  0.00  0.00    -0.032 A 
ATOM     15  C   UNL     1       0.561  -2.711  -0.182  0.00  0.00    +0.008 A 
ATOM     16  C   UNL     1       1.538  -1.785  -0.494  0.00  0.00    +0.050 A 
ATOM     17  C   UNL     1       1.264  -0.430  -0.404  0.00  0.00    +0.166 A 
ATOM     18  C   UNL     1       0.002  -0.004   0.002  0.00  0.00    +0.167 A 
ATOM     19  C   UNL     1      -0.973  -0.938   0.314  0.00  0.00    +0.054 A 
ATOM     20  O   UNL     1      -0.016   1.361   0.009  0.00  0.00    -0.453 OA
ATOM     21  C   UNL     1       1.366   1.764  -0.002  0.00  0.00    +0.466 C 
ATOM     22  O   UNL     1       2.037   0.668  -0.651  0.00  0.00    -0.453 OA
ENDBRANCH   4  14
BRANCH   9  23
ATOM     23  C   UNL     1      -3.374  -6.739  -3.788  0.00  0.00    -0.043 A 
ATOM     24  C   UNL     1      -2.496  -6.650  -4.852  0.00  0.00    +0.007 A 
ATOM     25  C   UNL     1      -2.706  -7.407  -5.988  0.00  0.00    +0.046 A 
ATOM     26  C   UNL     1      -3.805  -8.249  -6.066  0.00  0.00    +0.120 A 
ATOM     27  C   UNL     1      -4.688  -8.333  -4.999  0.00  0.00    +0.046 A 
ATOM     28  C   UNL     1      -4.471  -7.578  -3.863  0.00  0.00    +0.007 A 
BRANCH  26  29
ATOM     29  O   UNL     1      -4.018  -8.991  -7.185  0.00  0.00    -0.495 OA
ATOM     30  C   UNL     1      -3.067  -8.854  -8.244  0.00  0.00    +0.277 C 
ENDBRANCH  26  29
ENDBRANCH   9  23
BRANCH   3  31
ATOM     31  C   UNL     1      -1.341  -3.599   3.027  0.00  0.00    +0.338 C 
ATOM     32  O   UNL     1      -0.966  -4.265   3.973  0.00  0.00    -0.245 OA
BRANCH  31  33
ATOM     33  O   UNL     1      -1.810  -2.349   3.224  0.00  0.00    -0.458 OA
BRANCH  33  34
ATOM     34  C   UNL     1      -1.836  -1.871   4.571  0.00  0.00    +0.177 C 
ATOM     35  C   UNL     1      -3.212  -2.159   5.207  0.00  0.00    +0.044 C 
ATOM     36  C   UNL     1      -3.487  -0.920   6.094  0.00  0.00    +0.004 C 
ATOM     37  C   UNL     1      -2.923   0.244   5.240  0.00  0.00    +0.004 C 
ATOM     38  C   UNL     1      -1.653  -0.344   4.592  0.00  0.00    +0.044 C 
ENDBRANCH  33  34
ENDBRANCH  31  33
ENDBRANCH   3  31
TORSDOF 6
