REMARK  Name = ZINC12604696
REMARK  5 active torsions:
REMARK  status: ('A' for Active; 'I' for Inactive)
REMARK    1  A    between atoms: C_1  and  C_2
REMARK    2  A    between atoms: C_3  and  C_12
REMARK    3  A    between atoms: N_13  and  N_14
REMARK    4  A    between atoms: C_15  and  C_28
REMARK    5  A    between atoms: N_19  and  C_20
REMARK                            x       y       z     vdW  Elec       q    Type
REMARK                         _______ _______ _______ _____ _____    ______ ____
ROOT
ATOM      1  N   UNL     1       2.351  -0.032  -0.192  0.00  0.00    -0.207 N 
ATOM      2  C   UNL     1       2.311   1.330  -0.313  0.00  0.00    +0.082 A 
ATOM      3  C   UNL     1       3.462   2.035  -0.310  0.00  0.00    +0.077 A 
ATOM      4  S   UNL     1       4.689   0.750  -0.136  0.00  0.00    -0.056 S 
ATOM      5  C   UNL     1       3.578  -0.648  -0.079  0.00  0.00    +0.195 A 
ATOM      6  N   UNL     1       3.858  -1.931   0.043  0.00  0.00    -0.219 NA
ENDROOT
BRANCH   2   7
ATOM      7  C   UNL     1       1.013   2.027  -0.442  0.00  0.00    +0.003 A 
ATOM      8  C   UNL     1      -0.044   1.417  -1.120  0.00  0.00    +0.014 A 
ATOM      9  C   UNL     1      -1.255   2.068  -1.244  0.00  0.00    +0.048 A 
ATOM     10  C   UNL     1      -1.427   3.325  -0.688  0.00  0.00    +0.142 A 
ATOM     11  C   UNL     1      -0.375   3.940  -0.009  0.00  0.00    +0.076 A 
ATOM     12  C   UNL     1       0.842   3.296   0.115  0.00  0.00    +0.037 A 
ATOM     13  N   UNL     1      -0.567   5.216   0.541  0.00  0.00    -0.280 N 
ATOM     14  C   UNL     1      -1.825   5.684   0.685  0.00  0.00    +0.255 C 
ATOM     15  O   UNL     1      -2.014   6.796   1.131  0.00  0.00    -0.272 OA
ATOM     16  C   UNL     1      -2.995   4.819   0.289  0.00  0.00    +0.325 C 
ATOM     17  O   UNL     1      -2.619   3.972  -0.800  0.00  0.00    -0.481 OA
ATOM     18  H   UNL     1       0.193   5.754   0.814  0.00  0.00    +0.155 HD
ENDBRANCH   2   7
BRANCH   6  19
ATOM     19  C   UNL     1       5.150  -2.332   0.252  0.00  0.00    +0.102 A 
ATOM     20  C   UNL     1       6.005  -2.537  -0.833  0.00  0.00    +0.033 A 
ATOM     21  C   UNL     1       7.308  -2.936  -0.617  0.00  0.00    +0.040 A 
ATOM     22  C   UNL     1       7.766  -3.145   0.674  0.00  0.00    +0.126 A 
ATOM     23  C   UNL     1       6.923  -2.950   1.756  0.00  0.00    +0.078 A 
ATOM     24  C   UNL     1       5.618  -2.545   1.553  0.00  0.00    +0.151 A 
ATOM     25  F   UNL     1       4.796  -2.354   2.608  0.00  0.00    -0.203 F 
ATOM     26  F   UNL     1       9.041  -3.542   0.879  0.00  0.00    -0.205 F 
ENDBRANCH   6  19
BRANCH   1  28
ATOM     27  C   UNL     1       1.196  -2.037  -0.535  0.00  0.00    +0.143 C 
ATOM     28  N   UNL     1       1.170  -0.784  -0.187  0.00  0.00    -0.172 NA
BRANCH  27  31
ATOM     29  C   UNL     1      -1.483  -1.136   0.759  0.00  0.00    +0.064 C 
ATOM     30  C   UNL     1      -1.196  -2.489   0.162  0.00  0.00    +0.023 A 
ATOM     31  C   UNL     1      -0.015  -2.862  -0.401  0.00  0.00    +0.023 A 
ATOM     32  C   UNL     1      -0.186  -4.254  -0.854  0.00  0.00    +0.009 A 
ATOM     33  C   UNL     1       0.647  -5.175  -1.485  0.00  0.00    +0.010 A 
ATOM     34  C   UNL     1       0.175  -6.436  -1.776  0.00  0.00    +0.001 A 
ATOM     35  C   UNL     1      -1.123  -6.792  -1.438  0.00  0.00    +0.002 A 
ATOM     36  C   UNL     1      -1.957  -5.894  -0.809  0.00  0.00    +0.026 A 
ATOM     37  C   UNL     1      -1.498  -4.616  -0.506  0.00  0.00    +0.047 A 
ATOM     38  N   UNL     1      -2.081  -3.524   0.102  0.00  0.00    -0.358 N 
ATOM     39  H   UNL     1      -2.990  -3.497   0.439  0.00  0.00    +0.166 HD
ENDBRANCH  27  31
ENDBRANCH   1  28
TORSDOF 4
