REMARK  Name = ZINC42128316
REMARK  4 active torsions:
REMARK  status: ('A' for Active; 'I' for Inactive)
REMARK    1  A    between atoms: C_3  and  O_12
REMARK    2  A    between atoms: O_12  and  C_13
REMARK    3  A    between atoms: C_13  and  C_14
REMARK    4  A    between atoms: N_16  and  C_17
REMARK                            x       y       z     vdW  Elec       q    Type
REMARK                         _______ _______ _______ _____ _____    ______ ____
ROOT
ATOM      1  C   UNL     1       3.415   3.565  -0.013  0.00  0.00    +0.324 C 
ENDROOT
BRANCH   1   2
ATOM      2  C   UNL     1       4.788   4.186  -0.024  0.00  0.00    +0.251 C 
ATOM      3  O   UNL     1       5.774   3.479  -0.037  0.00  0.00    -0.272 OA
ATOM      4  N   UNL     1       4.921   5.528  -0.019  0.00  0.00    -0.301 N 
ATOM      5  H   UNL     1       4.133   6.093  -0.008  0.00  0.00    +0.150 HD
BRANCH   4   6
ATOM      6  C   UNL     1       6.256   6.132  -0.029  0.00  0.00    +0.159 C 
ATOM      7  C   UNL     1       6.178   7.541  -0.621  0.00  0.00    +0.032 C 
ATOM      8  C   UNL     1       7.518   7.955  -1.201  0.00  0.00    +0.004 C 
ATOM      9  C   UNL     1       8.607   8.134  -0.159  0.00  0.00    +0.019 C 
ATOM     10  C   UNL     1       8.971   6.794   0.485  0.00  0.00    +0.104 C 
ATOM     11  N   UNL     1       8.055   6.550   1.612  0.00  0.00    -0.314 N 
ATOM     12  C   UNL     1       6.781   6.230   1.388  0.00  0.00    +0.233 C 
ATOM     13  O   UNL     1       6.037   6.022   2.324  0.00  0.00    -0.274 OA
ATOM     14  H   UNL     1       8.383   6.618   2.522  0.00  0.00    +0.149 HD
ENDBRANCH   4   6
ENDBRANCH   1   2
BRANCH   1  15
ATOM     15  O   UNL     1       3.537   2.141  -0.022  0.00  0.00    -0.483 OA
BRANCH  15  18
ATOM     16  C   UNL     1      -0.017   1.401   0.010  0.00  0.00    +0.012 A 
ATOM     17  C   UNL     1       1.155   2.092   0.002  0.00  0.00    +0.046 A 
ATOM     18  C   UNL     1       2.383   1.424  -0.013  0.00  0.00    +0.122 A 
ATOM     19  C   UNL     1       2.438   0.059  -0.021  0.00  0.00    +0.054 A 
ATOM     20  C   UNL     1       1.246  -0.684  -0.013  0.00  0.00    -0.014 A 
ATOM     21  C   UNL     1       0.002  -0.004   0.002  0.00  0.00    -0.017 A 
ATOM     22  C   UNL     1      -1.190  -0.749   0.009  0.00  0.00    +0.023 A 
ATOM     23  C   UNL     1      -1.134  -2.109   0.001  0.00  0.00    +0.018 A 
ATOM     24  C   UNL     1       0.090  -2.778  -0.015  0.00  0.00    +0.016 A 
ATOM     25  C   UNL     1       1.263  -2.090  -0.022  0.00  0.00    +0.010 A 
ATOM     26 BR   UNL     1      -2.741  -3.107   0.011  0.00  0.00    -0.050 Br
ENDBRANCH  15  18
ENDBRANCH   1  15
TORSDOF 4
