REMARK  Name = ZINC44918839
REMARK  5 active torsions:
REMARK  status: ('A' for Active; 'I' for Inactive)
REMARK    1  A    between atoms: C_1  and  C_2
REMARK    2  A    between atoms: C_9  and  O_21
REMARK    3  A    between atoms: C_12  and  C_14
REMARK    4  A    between atoms: N_17  and  C_20
REMARK    5  A    between atoms: C_18  and  C_19
REMARK                            x       y       z     vdW  Elec       q    Type
REMARK                         _______ _______ _______ _____ _____    ______ ____
ROOT
ATOM      1  C   UNL     1       0.687   1.618  -0.514  0.00  0.00    +0.068 C 
ATOM      2  C   UNL     1       0.704   0.113  -0.435  0.00  0.00    +0.066 A 
ATOM      3  C   UNL     1       0.241  -0.764  -1.433  0.00  0.00    +0.036 A 
ATOM      4  C   UNL     1       0.426  -2.043  -0.982  0.00  0.00    +0.157 A 
ATOM      5  N   UNL     1       1.000  -1.941   0.268  0.00  0.00    -0.260 N 
ATOM      6  H   UNL     1       1.255  -2.682   0.839  0.00  0.00    +0.191 HD
ATOM      7  N   UNL     1       1.155  -0.587   0.567  0.00  0.00    -0.177 NA
ATOM      8  N   UNL     1       0.145  -3.237  -1.530  0.00  0.00    -0.197 NA
ATOM      9  C   UNL     1      -0.358  -3.652  -2.599  0.00  0.00    +0.199 C 
ATOM     10  C   UNL     1      -0.822  -2.898  -3.783  0.00  0.00    +0.165 C 
ATOM     11  S   UNL     1      -1.629  -1.347  -3.362  0.00  0.00    -0.138 S 
ATOM     12  C   UNL     1      -0.333  -0.277  -2.729  0.00  0.00    +0.115 C 
ENDROOT
BRANCH  12  13
ATOM     13  C   UNL     1      -0.901   1.104  -2.521  0.00  0.00    +0.010 A 
ATOM     14  C   UNL     1      -2.101   1.410  -1.870  0.00  0.00    +0.139 A 
ATOM     15  N   UNL     1      -2.255   2.710  -1.888  0.00  0.00    -0.179 NA
ATOM     16  N   UNL     1      -1.157   3.271  -2.552  0.00  0.00    -0.271 N 
ATOM     17  C   UNL     1      -0.338   2.266  -2.926  0.00  0.00    +0.040 A 
ATOM     18  C   UNL     1       0.967   2.410  -3.665  0.00  0.00    +0.065 C 
ATOM     19  C   UNL     1      -0.934   4.699  -2.794  0.00  0.00    +0.172 C 
ENDBRANCH  12  13
BRANCH   9  20
ATOM     20  O   UNL     1      -0.499  -4.990  -2.683  0.00  0.00    -0.495 OA
ATOM     21  H   UNL     1      -0.191  -5.468  -1.901  0.00  0.00    +0.293 HD
ENDBRANCH   9  20
TORSDOF 2
