REMARK  Name = ZINC14478038
REMARK  4 active torsions:
REMARK  status: ('A' for Active; 'I' for Inactive)
REMARK    1  A    between atoms: N_9  and  S_10
REMARK    2  A    between atoms: S_10  and  C_13
REMARK    3  A    between atoms: C_26  and  C_29
REMARK    4  A    between atoms: C_34  and  N_35
REMARK                            x       y       z     vdW  Elec       q    Type
REMARK                         _______ _______ _______ _____ _____    ______ ____
ROOT
ATOM      1  C   UNL     1      -4.889   4.735   2.078  0.00  0.00    +0.109 A 
ATOM      2  C   UNL     1      -5.425   3.743   2.880  0.00  0.00    +0.030 A 
ATOM      3  C   UNL     1      -4.766   2.536   3.006  0.00  0.00    +0.025 A 
ATOM      4  C   UNL     1      -3.572   2.321   2.330  0.00  0.00    +0.031 A 
ATOM      5  C   UNL     1      -3.037   3.295   1.520  0.00  0.00    -0.018 A 
ATOM      6  C   UNL     1      -3.703   4.522   1.406  0.00  0.00    +0.034 A 
ATOM      7  C   UNL     1      -1.751   3.127   0.775  0.00  0.00    +0.049 C 
ATOM      8  C   UNL     1      -1.992   2.902  -0.698  0.00  0.00    -0.023 C 
ATOM      9  C   UNL     1      -1.123   2.044  -1.174  0.00  0.00    -0.030 C 
ATOM     10  C   UNL     1      -0.178   1.583  -0.081  0.00  0.00    +0.033 C 
ATOM     11  C   UNL     1      -0.967   1.877   1.229  0.00  0.00    +0.029 C 
ATOM     12  C   UNL     1      -1.934   0.709   1.449  0.00  0.00    +0.107 C 
ATOM     13  N   UNL     1      -2.918   1.092   2.467  0.00  0.00    -0.336 N 
ATOM     14  H   UNL     1      -3.110   0.508   3.217  0.00  0.00    +0.147 HD
ENDROOT
BRANCH  12  15
ATOM     15  C   UNL     1      -2.640   0.388   0.157  0.00  0.00    +0.003 A 
ATOM     16  C   UNL     1      -3.808   1.048  -0.175  0.00  0.00    +0.008 A 
ATOM     17  C   UNL     1      -4.455   0.753  -1.360  0.00  0.00    +0.000 A 
ATOM     18  C   UNL     1      -3.935  -0.202  -2.213  0.00  0.00    +0.002 A 
ATOM     19  C   UNL     1      -2.767  -0.862  -1.881  0.00  0.00    +0.033 A 
ATOM     20  C   UNL     1      -2.116  -0.563  -0.698  0.00  0.00    +0.131 A 
BRANCH  20  21
ATOM     21  N   UNL     1      -0.862  -1.266  -0.345  0.00  0.00    +0.057 N 
ATOM     22  O   UNL     1      -0.336  -2.014  -1.150  0.00  0.00    -0.126 OA
ATOM     23  O   UNL     1      -0.356  -1.096   0.749  0.00  0.00    -0.126 OA
ENDBRANCH  20  21
ENDBRANCH  12  15
BRANCH   1  24
ATOM     24  S   UNL     1      -5.726   6.277   1.914  0.00  0.00    +0.075 S 
ATOM     25  O   UNL     1      -5.303   6.838   0.679  0.00  0.00    -0.150 OA
ATOM     26  O   UNL     1      -7.093   6.031   2.211  0.00  0.00    -0.150 OA
BRANCH  24  35
ATOM     27  C   UNL     1      -6.481   7.890   7.005  0.00  0.00    +0.000 A 
ATOM     28  C   UNL     1      -7.181   6.975   6.240  0.00  0.00    +0.002 A 
ATOM     29  C   UNL     1      -6.798   6.720   4.940  0.00  0.00    +0.025 A 
ATOM     30  C   UNL     1      -5.704   7.388   4.385  0.00  0.00    +0.054 A 
ATOM     31  C   UNL     1      -5.007   8.299   5.162  0.00  0.00    -0.023 A 
ATOM     32  C   UNL     1      -5.394   8.551   6.464  0.00  0.00    +0.005 A 
ATOM     33  C   UNL     1      -3.877   8.870   4.335  0.00  0.00    +0.058 C 
ATOM     34  C   UNL     1      -4.002   8.168   2.973  0.00  0.00    +0.136 C 
ATOM     35  N   UNL     1      -5.154   7.273   3.107  0.00  0.00    -0.202 N 
ENDBRANCH  24  35
ENDBRANCH   1  24
TORSDOF 4
