REMARK  Name = ZINC13499571
REMARK  11 active torsions:
REMARK  status: ('A' for Active; 'I' for Inactive)
REMARK    1  A    between atoms: C_1  and  C_2
REMARK    2  A    between atoms: C_2  and  C_3
REMARK    3  A    between atoms: C_3  and  C_4
REMARK    4  A    between atoms: C_4  and  C_6
REMARK    5  A    between atoms: C_4  and  N_72
REMARK    6  A    between atoms: N_10  and  C_11
REMARK    7  A    between atoms: C_16  and  C_17
REMARK    8  A    between atoms: C_16  and  N_72
REMARK    9  A    between atoms: C_20  and  C_30
REMARK   10  A    between atoms: C_22  and  C_29
REMARK   11  A    between atoms: C_31  and  N_72
REMARK                            x       y       z     vdW  Elec       q    Type
REMARK                         _______ _______ _______ _____ _____    ______ ____
ROOT
ATOM      1  N   UNL     1      -0.771  -2.295   0.986  0.00  0.00    +0.391 N 
ATOM      2  H   UNL     1      -0.209  -3.148   1.090  0.00  0.00    -0.080 HD
ENDROOT
BRANCH   1   3
ATOM      3  C   UNL     1      -1.490  -2.037   2.251  0.00  0.00    -0.067 C 
ATOM      4  C   UNL     1      -2.372  -3.254   2.600  0.00  0.00    -0.015 C 
ATOM      5  C   UNL     1      -3.642  -2.633   3.234  0.00  0.00    -0.002 C 
ATOM      6  C   UNL     1      -3.863  -1.359   2.382  0.00  0.00    -0.002 C 
ATOM      7  C   UNL     1      -2.438  -0.832   2.114  0.00  0.00    -0.015 C 
ENDBRANCH   1   3
BRANCH   1   8
ATOM      8  C   UNL     1      -1.739  -2.489  -0.114  0.00  0.00    +0.003 C 
BRANCH   8   9
ATOM      9  C   UNL     1      -2.128  -1.161  -0.712  0.00  0.00    +0.138 A 
ATOM     10  N   UNL     1      -1.351  -0.119  -0.878  0.00  0.00    -0.115 NA
ATOM     11  N   UNL     1      -2.051   0.817  -1.421  0.00  0.00    -0.023 NA
ATOM     12  N   UNL     1      -3.256   0.402  -1.597  0.00  0.00    -0.044 NA
ATOM     13  N   UNL     1      -3.344  -0.814  -1.173  0.00  0.00    -0.228 N 
BRANCH  13  14
ATOM     14  C   UNL     1      -4.542  -1.657  -1.191  0.00  0.00    +0.111 C 
ATOM     15  C   UNL     1      -5.068  -1.798  -2.634  0.00  0.00    +0.027 C 
ATOM     16  C   UNL     1      -6.610  -1.792  -2.478  0.00  0.00    +0.002 C 
ATOM     17  C   UNL     1      -6.836  -0.753  -1.351  0.00  0.00    +0.002 C 
ATOM     18  C   UNL     1      -5.666  -0.993  -0.375  0.00  0.00    +0.027 C 
ENDBRANCH  13  14
ENDBRANCH   8   9
BRANCH   8  19
ATOM     19  C   UNL     1      -1.087  -3.360  -1.190  0.00  0.00    -0.008 C 
BRANCH  19  21
ATOM     20  C   UNL     1      -0.296  -5.666  -1.737  0.00  0.00    +0.004 C 
ATOM     21  C   UNL     1      -0.834  -4.761  -0.627  0.00  0.00    -0.005 C 
ENDBRANCH  19  21
ENDBRANCH   8  19
ENDBRANCH   1   8
BRANCH   1  22
ATOM     22  C   UNL     1       0.127  -1.163   0.675  0.00  0.00    -0.036 C 
BRANCH  22  23
ATOM     23  C   UNL     1       1.341  -1.252   1.564  0.00  0.00    +0.001 A 
ATOM     24  C   UNL     1       2.463  -1.866   1.116  0.00  0.00    +0.017 A 
ATOM     25  C   UNL     1       3.627  -1.931   2.003  0.00  0.00    +0.002 A 
ATOM     26  C   UNL     1       4.814  -2.548   1.594  0.00  0.00    -0.041 A 
ATOM     27  C   UNL     1       5.880  -2.596   2.447  0.00  0.00    +0.007 A 
ATOM     28  C   UNL     1       5.796  -2.039   3.716  0.00  0.00    -0.048 A 
ATOM     29  C   UNL     1       4.636  -1.427   4.139  0.00  0.00    +0.029 A 
ATOM     30  C   UNL     1       3.537  -1.365   3.288  0.00  0.00    +0.050 A 
ATOM     31  N   UNL     1       2.365  -0.759   3.686  0.00  0.00    -0.322 N 
ATOM     32  H   UNL     1       2.305  -0.369   4.572  0.00  0.00    +0.169 HD
ATOM     33  C   UNL     1       1.303  -0.699   2.863  0.00  0.00    +0.251 A 
ATOM     34  O   UNL     1       0.283  -0.155   3.248  0.00  0.00    -0.268 OA
ATOM     35  C   UNL     1       6.985  -2.104   4.639  0.00  0.00    +0.044 C 
ATOM     36  C   UNL     1       4.916  -3.157   0.220  0.00  0.00    +0.044 C 
ENDBRANCH  22  23
ENDBRANCH   1  22
TORSDOF 8
