REMARK  Name = ZINC22756090
REMARK  11 active torsions:
REMARK  status: ('A' for Active; 'I' for Inactive)
REMARK    1  A    between atoms: C_1  and  C_2
REMARK    2  A    between atoms: C_5  and  N_11
REMARK    3  A    between atoms: C_6  and  N_8
REMARK    4  A    between atoms: C_12  and  C_14
REMARK    5  A    between atoms: C_14  and  C_16
REMARK    6  A    between atoms: C_14  and  O_22
REMARK    7  A    between atoms: O_22  and  C_23
REMARK    8  A    between atoms: C_23  and  C_25
REMARK    9  A    between atoms: C_26  and  N_36
REMARK   10  A    between atoms: C_28  and  C_35
REMARK   11  A    between atoms: C_30  and  C_34
REMARK                            x       y       z     vdW  Elec       q    Type
REMARK                         _______ _______ _______ _____ _____    ______ ____
ROOT
ATOM      1  C   UNL     1       0.890   4.768  -0.203  0.00  0.00    +0.292 C 
ENDROOT
BRANCH   1   2
ATOM      2  C   UNL     1       0.926   3.289  -0.486  0.00  0.00    +0.002 A 
ATOM      3  C   UNL     1      -0.251   2.600  -0.717  0.00  0.00    +0.008 A 
ATOM      4  C   UNL     1      -0.217   1.243  -0.977  0.00  0.00    +0.000 A 
ATOM      5  C   UNL     1       0.992   0.574  -1.007  0.00  0.00    +0.000 A 
ATOM      6  C   UNL     1       2.168   1.263  -0.777  0.00  0.00    +0.000 A 
ATOM      7  C   UNL     1       2.135   2.620  -0.517  0.00  0.00    +0.008 A 
ENDBRANCH   1   2
BRANCH   1   9
ATOM      8  N   UNL     1       0.212   5.454  -2.481  0.00  0.00    -0.280 N 
ATOM      9  C   UNL     1       1.115   5.530  -1.484  0.00  0.00    +0.263 C 
ATOM     10  O   UNL     1       2.109   6.212  -1.617  0.00  0.00    -0.271 OA
ATOM     11  H   UNL     1      -0.683   4.824  -2.366  0.00  0.00    +0.155 HD
BRANCH   8  16
ATOM     12  C   UNL     1       1.025   8.380  -7.273  0.00  0.00    +0.044 C 
ATOM     13  C   UNL     1       0.809   7.603  -6.000  0.00  0.00    -0.048 A 
ATOM     14  C   UNL     1       1.868   6.939  -5.409  0.00  0.00    +0.005 A 
ATOM     15  C   UNL     1       1.674   6.225  -4.243  0.00  0.00    +0.026 A 
ATOM     16  C   UNL     1       0.412   6.176  -3.663  0.00  0.00    +0.064 A 
ATOM     17  C   UNL     1      -0.650   6.839  -4.262  0.00  0.00    +0.148 A 
ATOM     18  C   UNL     1      -0.448   7.556  -5.426  0.00  0.00    +0.038 A 
BRANCH  17  19
ATOM     19  N   UNL     1      -1.997   6.784  -3.651  0.00  0.00    +0.058 N 
ATOM     20  O   UNL     1      -2.958   7.228  -4.253  0.00  0.00    -0.126 OA
ATOM     21  O   UNL     1      -2.145   6.294  -2.546  0.00  0.00    -0.126 OA
ENDBRANCH  17  19
ENDBRANCH   8  16
ENDBRANCH   1   9
BRANCH   1  22
ATOM     22  O   UNL     1       1.915   5.099   0.735  0.00  0.00    -0.443 OA
BRANCH  22  23
ATOM     23  C   UNL     1       1.589   5.049   2.043  0.00  0.00    +0.349 C 
ATOM     24  O   UNL     1       0.462   4.732   2.377  0.00  0.00    -0.244 OA
BRANCH  23  25
ATOM     25  C   UNL     1       2.556   5.364   3.027  0.00  0.00    +0.119 A 
ATOM     26  C   UNL     1       2.410   5.369   4.398  0.00  0.00    +0.057 A 
ATOM     27  C   UNL     1       3.558   5.731   5.212  0.00  0.00    +0.050 A 
ATOM     28  C   UNL     1       3.674   5.812   6.619  0.00  0.00    +0.052 A 
ATOM     29  N   UNL     1       4.824   6.165   7.152  0.00  0.00    -0.237 NA
ATOM     30  C   UNL     1       5.886   6.449   6.418  0.00  0.00    +0.128 A 
ATOM     31  N   UNL     1       5.845   6.392   5.101  0.00  0.00    -0.225 NA
ATOM     32  C   UNL     1       4.733   6.048   4.485  0.00  0.00    +0.114 A 
ATOM     33  S   UNL     1       4.256   5.843   2.790  0.00  0.00    -0.060 S 
ATOM     34  C   UNL     1       7.169   6.846   7.100  0.00  0.00    +0.088 C 
ATOM     35  C   UNL     1       2.491   5.499   7.499  0.00  0.00    +0.066 C 
BRANCH  26  36
ATOM     36  N   UNL     1       1.199   5.037   4.986  0.00  0.00    -0.356 N 
ATOM     37  H   UNL     1       1.098   5.045   6.081  0.00  0.00    +0.142 HD
ATOM     38  H   UNL     1       0.338   4.765   4.356  0.00  0.00    +0.142 HD
ENDBRANCH  26  36
ENDBRANCH  23  25
ENDBRANCH  22  23
ENDBRANCH   1  22
TORSDOF 8
