REMARK  Name = ZINC05642647
REMARK  7 active torsions:
REMARK  status: ('A' for Active; 'I' for Inactive)
REMARK    1  A    between atoms: C_1  and  C_2
REMARK    2  A    between atoms: C_2  and  C_3
REMARK    3  A    between atoms: C_3  and  C_4
REMARK    4  A    between atoms: C_3  and  N_6
REMARK    5  A    between atoms: C_4  and  C_5
REMARK    6  A    between atoms: C_13  and  C_20
REMARK    7  A    between atoms: C_17  and  O_19
REMARK                            x       y       z     vdW  Elec       q    Type
REMARK                         _______ _______ _______ _____ _____    ______ ____
ROOT
ATOM      1  N   UNL     1      -2.082  -0.162   1.273  0.00  0.00    -0.263 N 
ATOM      2  C   UNL     1      -3.230   0.617   1.400  0.00  0.00    +0.161 A 
ATOM      3  C   UNL     1      -3.501   0.720   2.740  0.00  0.00    +0.079 A 
ATOM      4  C   UNL     1      -2.505   0.002   3.442  0.00  0.00    +0.271 A 
ATOM      5  O   UNL     1      -2.432  -0.118   4.653  0.00  0.00    -0.266 OA
ATOM      6  N   UNL     1      -1.657  -0.532   2.549  0.00  0.00    -0.261 N 
ATOM      7  H   UNL     1      -0.882  -1.078   2.755  0.00  0.00    +0.190 HD
ATOM      8  C   UNL     1      -4.619   1.432   3.442  0.00  0.00    +0.116 C 
ATOM      9  S   UNL     1      -5.131   2.931   2.595  0.00  0.00    -0.138 S 
ATOM     10  C   UNL     1      -5.851   2.392   1.037  0.00  0.00    +0.165 C 
ATOM     11  C   UNL     1      -4.852   1.829   0.103  0.00  0.00    +0.199 C 
ATOM     12  N   UNL     1      -3.849   1.108   0.332  0.00  0.00    -0.197 NA
ENDROOT
BRANCH   8  13
ATOM     13  C   UNL     1      -4.166   1.794   4.833  0.00  0.00    -0.030 A 
ATOM     14  C   UNL     1      -3.073   2.620   5.011  0.00  0.00    +0.006 A 
ATOM     15  C   UNL     1      -2.657   2.952   6.287  0.00  0.00    +0.020 A 
ATOM     16  C   UNL     1      -3.337   2.457   7.386  0.00  0.00    +0.041 A 
ATOM     17  C   UNL     1      -4.431   1.629   7.207  0.00  0.00    +0.020 A 
ATOM     18  C   UNL     1      -4.849   1.303   5.931  0.00  0.00    +0.006 A 
ATOM     19 CL   UNL     1      -2.815   2.873   8.989  0.00  0.00    -0.084 Cl
ENDBRANCH   8  13
BRANCH  11  20
ATOM     20  O   UNL     1      -5.047   2.138  -1.190  0.00  0.00    -0.495 OA
ATOM     21  H   UNL     1      -4.386   1.763  -1.788  0.00  0.00    +0.293 HD
ENDBRANCH  11  20
BRANCH   1  22
ATOM     22  C   UNL     1      -1.433  -0.534   0.013  0.00  0.00    +0.107 C 
BRANCH  22  24
ATOM     23  C   UNL     1      -0.019   1.526   0.010  0.00  0.00    +0.006 C 
ATOM     24  C   UNL     1       0.002  -0.004   0.002  0.00  0.00    +0.023 C 
ENDBRANCH  22  24
BRANCH  22  25
ATOM     25  C   UNL     1      -1.416  -2.058  -0.121  0.00  0.00    +0.023 C 
ATOM     26  C   UNL     1      -2.850  -2.576  -0.236  0.00  0.00    +0.006 C 
ENDBRANCH  22  25
ENDBRANCH   1  22
TORSDOF 5
