REMARK  Name = ZINC14927837
REMARK  8 active torsions:
REMARK  status: ('A' for Active; 'I' for Inactive)
REMARK    1  A    between atoms: C_1  and  C_2
REMARK    2  A    between atoms: C_5  and  C_29
REMARK    3  A    between atoms: C_6  and  N_8
REMARK    4  A    between atoms: C_9  and  C_11
REMARK    5  A    between atoms: C_11  and  C_13
REMARK    6  A    between atoms: C_11  and  N_55
REMARK    7  A    between atoms: N_16  and  S_19
REMARK    8  A    between atoms: S_19  and  C_22
REMARK                            x       y       z     vdW  Elec       q    Type
REMARK                         _______ _______ _______ _____ _____    ______ ____
ROOT
ATOM      1  C   UNL     1      -1.291   5.935   1.125  0.00  0.00    -0.060 C 
ATOM      2  C   UNL     1      -0.923   7.419   1.014  0.00  0.00    +0.091 C 
ATOM      3  N   UNL     1      -2.163   8.198   0.876  0.00  0.00    -0.180 NA
ATOM      4  C   UNL     1      -3.128   7.793  -0.157  0.00  0.00    +0.091 C 
ATOM      5  C   UNL     1      -3.409   6.295   0.001  0.00  0.00    -0.060 C 
ATOM      6  N   UNL     1      -2.124   5.564  -0.039  0.00  0.00    +0.389 N 
ATOM      7  H   UNL     1      -1.624   5.816  -0.900  0.00  0.00    -0.081 HD
ENDROOT
BRANCH   3   8
ATOM      8  S   UNL     1      -2.464   9.498   1.858  0.00  0.00    +0.061 S 
ATOM      9  O   UNL     1      -1.201   9.963   2.313  0.00  0.00    -0.153 OA
ATOM     10  O   UNL     1      -3.376  10.333   1.158  0.00  0.00    -0.153 OA
BRANCH   8  11
ATOM     11  C   UNL     1      -3.319   8.894   3.275  0.00  0.00    +0.107 A 
ATOM     12  C   UNL     1      -4.700   8.840   3.277  0.00  0.00    +0.028 A 
ATOM     13  C   UNL     1      -5.372   8.361   4.387  0.00  0.00    +0.003 A 
ATOM     14  C   UNL     1      -4.662   7.946   5.498  0.00  0.00    +0.015 A 
ATOM     15  C   UNL     1      -3.280   8.005   5.498  0.00  0.00    +0.020 A 
ATOM     16  C   UNL     1      -2.609   8.480   4.386  0.00  0.00    +0.043 A 
ATOM     17 BR   UNL     1      -2.310   7.439   7.019  0.00  0.00    -0.050 Br
ENDBRANCH   8  11
ENDBRANCH   3   8
BRANCH   6  18
ATOM     18  C   UNL     1      -2.371   4.107  -0.038  0.00  0.00    +0.017 C 
ATOM     19  C   UNL     1      -3.400   3.738   1.032  0.00  0.00    -0.004 C 
BRANCH  18  21
ATOM     20  N   UNL     1      -2.913   2.405  -1.749  0.00  0.00    -0.287 N 
ATOM     21  C   UNL     1      -2.890   3.705  -1.394  0.00  0.00    +0.203 C 
ATOM     22  O   UNL     1      -3.288   4.551  -2.167  0.00  0.00    -0.277 OA
ATOM     23  H   UNL     1      -2.653   1.723  -1.109  0.00  0.00    +0.155 HD
BRANCH  20  29
ATOM     24  C   UNL     1      -5.580   3.323  -5.775  0.00  0.00    +0.044 C 
ATOM     25  C   UNL     1      -4.606   2.463  -5.012  0.00  0.00    -0.049 A 
ATOM     26  C   UNL     1      -4.109   1.307  -5.586  0.00  0.00    +0.004 A 
ATOM     27  C   UNL     1      -3.215   0.515  -4.889  0.00  0.00    +0.005 A 
ATOM     28  C   UNL     1      -2.815   0.877  -3.617  0.00  0.00    -0.029 A 
ATOM     29  C   UNL     1      -3.312   2.038  -3.039  0.00  0.00    +0.036 A 
ATOM     30  C   UNL     1      -4.209   2.831  -3.742  0.00  0.00    +0.027 A 
ATOM     31  C   UNL     1      -1.841   0.013  -2.858  0.00  0.00    +0.045 C 
ENDBRANCH  20  29
ENDBRANCH  18  21
ENDBRANCH   6  18
TORSDOF 5
