REMARK  Name = ZINC46889960
REMARK  8 active torsions:
REMARK  status: ('A' for Active; 'I' for Inactive)
REMARK    1  A    between atoms: C_1  and  C_2
REMARK    2  A    between atoms: C_2  and  C_27
REMARK    3  A    between atoms: C_4  and  N_10
REMARK    4  A    between atoms: C_6  and  C_8
REMARK    5  A    between atoms: C_6  and  C_9
REMARK    6  A    between atoms: N_13  and  C_14
REMARK    7  A    between atoms: N_13  and  C_15
REMARK    8  A    between atoms: C_15  and  C_16
REMARK                            x       y       z     vdW  Elec       q    Type
REMARK                         _______ _______ _______ _____ _____    ______ ____
ROOT
ATOM      1  N   UNL     1       2.615  -0.819  -2.626  0.00  0.00    -0.297 N 
ATOM      2  C   UNL     1       3.770  -0.334  -3.123  0.00  0.00    +0.302 C 
ATOM      3  O   UNL     1       4.376   0.532  -2.522  0.00  0.00    -0.253 OA
ATOM      4  N   UNL     1       4.255  -0.809  -4.288  0.00  0.00    -0.285 N 
ATOM      5  C   UNL     1       3.525  -1.853  -5.013  0.00  0.00    +0.133 C 
ATOM      6  H   UNL     1       2.133  -1.510  -3.106  0.00  0.00    +0.151 HD
ENDROOT
BRANCH   1  10
ATOM      7  C   UNL     1      -0.019   1.528   0.010  0.00  0.00    -0.010 C 
ATOM      8  C   UNL     1       0.002  -0.004   0.002  0.00  0.00    -0.072 C 
ATOM      9  C   UNL     1       0.573  -0.505  -1.321  0.00  0.00    +0.009 C 
ATOM     10  C   UNL     1       2.088  -0.301  -1.357  0.00  0.00    +0.072 C 
ATOM     11  C   UNL     1       2.703  -1.086  -0.198  0.00  0.00    +0.009 C 
ATOM     12  C   UNL     1       2.147  -0.590   1.133  0.00  0.00    -0.072 C 
ATOM     13  N   UNL     1       0.697  -0.529   1.164  0.00  0.00    +0.386 N 
ATOM     14  C   UNL     1       2.769   0.766   1.481  0.00  0.00    -0.010 C 
ATOM     15  C   UNL     1       2.600  -1.589   2.223  0.00  0.00    -0.010 C 
ATOM     16  C   UNL     1      -1.468  -0.478   0.079  0.00  0.00    -0.010 C 
ATOM     17  H   UNL     1       0.416   0.021   1.982  0.00  0.00    -0.084 HD
ATOM     18  H   UNL     1       0.341  -1.472   1.351  0.00  0.00    -0.084 HD
ENDBRANCH   1  10
BRANCH   4  19
ATOM     19  C   UNL     1       5.510  -0.282  -4.829  0.00  0.00    +0.157 C 
BRANCH  19  20
ATOM     20  C   UNL     1       6.681  -1.111  -4.299  0.00  0.00    +0.228 C 
ATOM     21  C   UNL     1       8.001  -0.555  -4.851  0.00  0.00    +0.275 C 
ATOM     22  O   UNL     1       9.075  -1.343  -4.325  0.00  0.00    -0.485 OA
ATOM     23  C   UNL     1       9.040  -1.611  -2.991  0.00  0.00    +0.162 A 
ATOM     24  C   UNL     1      10.194  -2.042  -2.353  0.00  0.00    +0.049 A 
ATOM     25  C   UNL     1      10.173  -2.321  -1.000  0.00  0.00    +0.004 A 
ATOM     26  C   UNL     1       9.003  -2.173  -0.279  0.00  0.00    +0.004 A 
ATOM     27  C   UNL     1       7.850  -1.744  -0.908  0.00  0.00    +0.049 A 
ATOM     28  C   UNL     1       7.864  -1.460  -2.266  0.00  0.00    +0.163 A 
ATOM     29  O   UNL     1       6.723  -1.031  -2.870  0.00  0.00    -0.480 OA
ENDBRANCH  19  20
ENDBRANCH   4  19
TORSDOF 3
