REMARK  Name = ZINC55886199
REMARK  8 active torsions:
REMARK  status: ('A' for Active; 'I' for Inactive)
REMARK    1  A    between atoms: C_1  and  C_2
REMARK    2  A    between atoms: C_2  and  C_3
REMARK    3  A    between atoms: C_2  and  C_4
REMARK    4  A    between atoms: C_4  and  N_5
REMARK    5  A    between atoms: C_6  and  C_8
REMARK    6  A    between atoms: C_11  and  N_15
REMARK    7  A    between atoms: N_15  and  C_16
REMARK    8  A    between atoms: C_16  and  C_17
REMARK                            x       y       z     vdW  Elec       q    Type
REMARK                         _______ _______ _______ _____ _____    ______ ____
ROOT
ATOM      1  C   UNL     1      -2.558  -4.150  -0.259  0.00  0.00    +0.055 A 
ATOM      2  C   UNL     1      -1.341  -4.831  -0.361  0.00  0.00    +0.016 A 
ATOM      3  C   UNL     1      -1.325  -6.191  -0.481  0.00  0.00    +0.024 A 
ATOM      4  C   UNL     1      -2.520  -6.907  -0.502  0.00  0.00    +0.029 A 
ATOM      5  C   UNL     1      -3.736  -6.239  -0.401  0.00  0.00    +0.043 A 
ATOM      6  C   UNL     1      -3.760  -4.867  -0.274  0.00  0.00    +0.055 A 
ATOM      7 CL   UNL     1      -5.275  -4.030  -0.140  0.00  0.00    -0.083 Cl
ENDROOT
BRANCH   1   9
ATOM      8  N   UNL     1      -1.416  -1.993  -0.116  0.00  0.00    -0.311 N 
ATOM      9  C   UNL     1      -2.575  -2.682  -0.130  0.00  0.00    +0.245 C 
ATOM     10  O   UNL     1      -3.634  -2.092  -0.036  0.00  0.00    -0.270 OA
ATOM     11  H   UNL     1      -0.572  -2.463  -0.190  0.00  0.00    +0.149 HD
BRANCH   8  12
ATOM     12  C   UNL     1      -1.433  -0.534   0.013  0.00  0.00    +0.107 C 
BRANCH  12  14
ATOM     13  C   UNL     1      -0.019   1.526   0.010  0.00  0.00    +0.009 C 
ATOM     14  C   UNL     1       0.002  -0.004   0.002  0.00  0.00    -0.000 C 
ATOM     15  C   UNL     1       0.742  -0.511   1.242  0.00  0.00    +0.009 C 
ENDBRANCH  12  14
ENDBRANCH   8  12
ENDBRANCH   1   9
BRANCH   4  16
ATOM     16  N   UNL     1      -2.496  -8.292  -0.625  0.00  0.00    -0.338 N 
ATOM     17  H   UNL     1      -1.649  -8.758  -0.696  0.00  0.00    +0.146 HD
BRANCH  16  18
ATOM     18  C   UNL     1      -3.752  -9.046  -0.647  0.00  0.00    +0.155 C 
BRANCH  18  19
ATOM     19  C   UNL     1      -3.452 -10.517  -0.787  0.00  0.00    +0.040 A 
ATOM     20  C   UNL     1      -3.771 -11.397   0.225  0.00  0.00    +0.093 A 
ATOM     21  C   UNL     1      -3.486 -12.755   0.077  0.00  0.00    +0.259 A 
ATOM     22  O   UNL     1      -3.766 -13.539   0.970  0.00  0.00    -0.267 OA
ATOM     23  N   UNL     1      -2.892 -13.206  -1.068  0.00  0.00    -0.263 N 
ATOM     24  C   UNL     1      -2.551 -14.505  -1.361  0.00  0.00    +0.104 A 
ATOM     25  C   UNL     1      -1.974 -14.820  -2.520  0.00  0.00    +0.067 A 
ATOM     26  S   UNL     1      -1.865 -13.227  -3.320  0.00  0.00    -0.059 S 
ATOM     27  C   UNL     1      -2.610 -12.264  -2.021  0.00  0.00    +0.158 A 
ATOM     28  N   UNL     1      -2.879 -10.989  -1.891  0.00  0.00    -0.337 N 
ATOM     29  H   UNL     1      -2.655 -10.378  -2.610  0.00  0.00    +0.168 HD
ENDBRANCH  18  19
ENDBRANCH  16  18
ENDBRANCH   4  16
TORSDOF 6
