REMARK  Name = ZINC01956647
REMARK  11 active torsions:
REMARK  status: ('A' for Active; 'I' for Inactive)
REMARK    1  A    between atoms: C_1  and  C_2
REMARK    2  A    between atoms: C_2  and  O_3
REMARK    3  A    between atoms: O_3  and  C_4
REMARK    4  A    between atoms: C_4  and  C_6
REMARK    5  A    between atoms: C_10  and  N_11
REMARK    6  A    between atoms: C_12  and  C_14
REMARK    7  A    between atoms: C_14  and  C_16
REMARK    8  A    between atoms: C_14  and  O_17
REMARK    9  A    between atoms: O_17  and  C_18
REMARK   10  A    between atoms: C_21  and  C_24
REMARK   11  A    between atoms: C_31  and  C_35
REMARK                            x       y       z     vdW  Elec       q    Type
REMARK                         _______ _______ _______ _____ _____    ______ ____
ROOT
ATOM      1  N   UNL     1      -3.397  -2.316   2.413  0.00  0.00    -0.276 N 
ATOM      2  C   UNL     1      -4.020  -2.783   3.514  0.00  0.00    +0.258 C 
ATOM      3  O   UNL     1      -5.040  -3.430   3.404  0.00  0.00    -0.271 OA
ATOM      4  H   UNL     1      -2.582  -1.798   2.501  0.00  0.00    +0.155 HD
ENDROOT
BRANCH   1   9
ATOM      5  C   UNL     1      -3.421  -2.182  -0.075  0.00  0.00    +0.091 A 
ATOM      6  C   UNL     1      -4.161  -2.594  -1.255  0.00  0.00    -0.021 A 
ATOM      7  C   UNL     1      -5.268  -3.320  -0.988  0.00  0.00    -0.004 A 
ATOM      8  S   UNL     1      -5.309  -3.442   0.776  0.00  0.00    -0.077 S 
ATOM      9  C   UNL     1      -3.921  -2.577   1.157  0.00  0.00    +0.086 A 
ATOM     10  C   UNL     1      -6.234  -3.885  -1.982  0.00  0.00    +0.046 C 
ATOM     11  C   UNL     1      -5.990  -3.201  -3.335  0.00  0.00    -0.009 C 
ATOM     12  C   UNL     1      -4.488  -3.215  -3.634  0.00  0.00    +0.008 C 
ATOM     13  C   UNL     1      -3.760  -2.261  -2.685  0.00  0.00    +0.037 C 
ATOM     14  C   UNL     1      -6.741  -3.957  -4.434  0.00  0.00    +0.008 C 
BRANCH   5  15
ATOM     15  C   UNL     1      -2.195  -1.388  -0.181  0.00  0.00    +0.342 C 
ATOM     16  O   UNL     1      -1.117  -1.943  -0.278  0.00  0.00    -0.245 OA
BRANCH  15  17
ATOM     17  O   UNL     1      -2.261  -0.041  -0.172  0.00  0.00    -0.461 OA
BRANCH  17  19
ATOM     18  C   UNL     1      -1.300   2.175  -0.252  0.00  0.00    +0.048 C 
ATOM     19  C   UNL     1      -1.026   0.670  -0.280  0.00  0.00    +0.229 C 
ENDBRANCH  17  19
ENDBRANCH  15  17
ENDBRANCH   5  15
ENDBRANCH   1   9
BRANCH   2  20
ATOM     20  C   UNL     1      -3.450  -2.499   4.880  0.00  0.00    +0.256 C 
ATOM     21  C   UNL     1      -2.094  -3.192   5.020  0.00  0.00    +0.062 C 
BRANCH  20  22
ATOM     22  O   UNL     1      -4.343  -2.993   5.880  0.00  0.00    -0.480 OA
BRANCH  22  23
ATOM     23  C   UNL     1      -4.285  -2.405   7.104  0.00  0.00    +0.122 A 
ATOM     24  C   UNL     1      -3.312  -1.449   7.367  0.00  0.00    +0.046 A 
ATOM     25  C   UNL     1      -3.250  -0.851   8.608  0.00  0.00    +0.012 A 
ATOM     26  C   UNL     1      -4.165  -1.206   9.598  0.00  0.00    -0.018 A 
ATOM     27  C   UNL     1      -5.139  -2.166   9.331  0.00  0.00    +0.012 A 
ATOM     28  C   UNL     1      -5.200  -2.757   8.086  0.00  0.00    +0.046 A 
BRANCH  26  29
ATOM     29  C   UNL     1      -4.100  -0.565  10.934  0.00  0.00    -0.018 A 
ATOM     30  C   UNL     1      -3.129   0.399  11.201  0.00  0.00    +0.008 A 
ATOM     31  C   UNL     1      -3.074   0.992  12.446  0.00  0.00    +0.001 A 
ATOM     32  C   UNL     1      -3.980   0.633  13.428  0.00  0.00    +0.000 A 
ATOM     33  C   UNL     1      -4.945  -0.323  13.168  0.00  0.00    +0.001 A 
ATOM     34  C   UNL     1      -5.013  -0.919  11.925  0.00  0.00    +0.008 A 
ENDBRANCH  26  29
ENDBRANCH  22  23
ENDBRANCH  20  22
ENDBRANCH   2  20
TORSDOF 8
