REMARK  Name = ZINC63952618
REMARK  5 active torsions:
REMARK  status: ('A' for Active; 'I' for Inactive)
REMARK    1  A    between atoms: C_1  and  C_2
REMARK    2  A    between atoms: C_2  and  C_3
REMARK    3  A    between atoms: C_2  and  C_4
REMARK    4  A    between atoms: C_8  and  N_11
REMARK    5  A    between atoms: C_12  and  C_14
REMARK                            x       y       z     vdW  Elec       q    Type
REMARK                         _______ _______ _______ _____ _____    ______ ____
ROOT
ATOM      1  N   UNL     1      -4.035  -2.049  -2.590  0.00  0.00    -0.288 N 
ATOM      2  C   UNL     1      -4.463  -3.223  -3.095  0.00  0.00    +0.241 C 
ATOM      3  O   UNL     1      -3.730  -4.188  -3.091  0.00  0.00    -0.273 OA
ATOM      4  H   UNL     1      -4.622  -1.276  -2.593  0.00  0.00    +0.151 HD
ENDROOT
BRANCH   2   5
ATOM      5  C   UNL     1      -5.854  -3.335  -3.665  0.00  0.00    +0.190 C 
ATOM      6  C   UNL     1      -6.882  -3.070  -2.587  0.00  0.00    +0.016 C 
ATOM      7  C   UNL     1      -7.616  -4.201  -2.482  0.00  0.00    -0.004 A 
ATOM      8  C   UNL     1      -8.750  -4.574  -1.629  0.00  0.00    +0.010 A 
ATOM      9  C   UNL     1      -9.288  -5.809  -1.756  0.00  0.00    +0.001 A 
ATOM     10  C   UNL     1      -8.791  -6.738  -2.680  0.00  0.00    +0.002 A 
ATOM     11  C   UNL     1      -7.752  -6.468  -3.499  0.00  0.00    +0.026 A 
ATOM     12  C   UNL     1      -7.110  -5.200  -3.450  0.00  0.00    +0.043 A 
ATOM     13  N   UNL     1      -6.101  -4.705  -4.129  0.00  0.00    -0.370 N 
ATOM     14  H   UNL     1      -5.602  -5.167  -4.821  0.00  0.00    +0.161 HD
ENDBRANCH   2   5
BRANCH   1  18
ATOM     15  C   UNL     1      -1.433  -0.534   0.013  0.00  0.00    +0.132 C 
ATOM     16  N   UNL     1      -1.454  -2.023   0.047  0.00  0.00    -0.241 NA
ATOM     17  N   UNL     1      -2.596  -2.565  -0.680  0.00  0.00    -0.227 NA
ATOM     18  C   UNL     1      -2.683  -1.939  -2.037  0.00  0.00    +0.217 C 
ATOM     19  S   UNL     1      -2.276  -0.194  -1.590  0.00  0.00    -0.102 S 
ATOM     20  H   UNL     1      -0.588  -2.404  -0.303  0.00  0.00    +0.142 HD
ATOM     21  H   UNL     1      -2.536  -3.570  -0.749  0.00  0.00    +0.143 HD
BRANCH  15  23
ATOM     22  C   UNL     1      -0.019   1.526   0.010  0.00  0.00    +0.009 C 
ATOM     23  C   UNL     1       0.002  -0.004   0.002  0.00  0.00    +0.011 C 
ATOM     24  C   UNL     1       0.742  -0.511   1.242  0.00  0.00    +0.009 C 
ENDBRANCH  15  23
ENDBRANCH   1  18
TORSDOF 3
