REMARK  Name = ZINC13038413
REMARK  8 active torsions:
REMARK  status: ('A' for Active; 'I' for Inactive)
REMARK    1  A    between atoms: C_1  and  C_2
REMARK    2  A    between atoms: C_2  and  O_3
REMARK    3  A    between atoms: O_3  and  C_4
REMARK    4  A    between atoms: C_4  and  C_6
REMARK    5  A    between atoms: C_10  and  N_11
REMARK    6  A    between atoms: C_12  and  C_14
REMARK    7  A    between atoms: C_14  and  N_63
REMARK    8  A    between atoms: C_18  and  C_20
REMARK                            x       y       z     vdW  Elec       q    Type
REMARK                         _______ _______ _______ _____ _____    ______ ____
ROOT
ATOM      1  N   UNL     1      -3.221   3.888  -3.796  0.00  0.00    -0.281 N 
ATOM      2  C   UNL     1      -2.849   3.010  -2.844  0.00  0.00    +0.201 C 
ATOM      3  O   UNL     1      -2.968   1.819  -3.037  0.00  0.00    -0.278 OA
ATOM      4  H   UNL     1      -3.126   4.841  -3.642  0.00  0.00    +0.155 HD
ENDROOT
BRANCH   1   9
ATOM      5  C   UNL     1      -4.175   4.170  -6.088  0.00  0.00    +0.091 A 
ATOM      6  C   UNL     1      -4.680   3.438  -7.238  0.00  0.00    -0.021 A 
ATOM      7  C   UNL     1      -4.671   2.093  -7.113  0.00  0.00    -0.004 A 
ATOM      8  S   UNL     1      -3.996   1.792  -5.504  0.00  0.00    -0.077 S 
ATOM      9  C   UNL     1      -3.740   3.429  -4.997  0.00  0.00    +0.086 A 
ATOM     10  C   UNL     1      -5.129   1.089  -8.125  0.00  0.00    +0.043 C 
ATOM     11  C   UNL     1      -5.963   1.819  -9.188  0.00  0.00    +0.005 C 
ATOM     12  C   UNL     1      -5.204   3.071  -9.636  0.00  0.00    +0.005 C 
ATOM     13  C   UNL     1      -5.192   4.104  -8.509  0.00  0.00    +0.037 C 
BRANCH   5  14
ATOM     14  C   UNL     1      -4.125   5.633  -6.082  0.00  0.00    +0.342 C 
ATOM     15  O   UNL     1      -3.134   6.210  -6.486  0.00  0.00    -0.245 OA
BRANCH  14  16
ATOM     16  O   UNL     1      -5.179   6.342  -5.627  0.00  0.00    -0.461 OA
BRANCH  16  18
ATOM     17  C   UNL     1      -6.343   8.415  -5.100  0.00  0.00    +0.048 C 
ATOM     18  C   UNL     1      -5.060   7.789  -5.649  0.00  0.00    +0.229 C 
ENDBRANCH  16  18
ENDBRANCH  14  16
ENDBRANCH   5  14
ENDBRANCH   1   9
BRANCH   2  19
ATOM     19  C   UNL     1      -2.285   3.509  -1.538  0.00  0.00    +0.020 C 
BRANCH  19  24
ATOM     20  C   UNL     1      -0.799   1.616  -1.205  0.00  0.00    -0.077 C 
ATOM     21  C   UNL     1      -0.013   1.086   0.008  0.00  0.00    -0.020 C 
ATOM     22  C   UNL     1      -0.778   1.605   1.246  0.00  0.00    -0.013 C 
ATOM     23  C   UNL     1      -1.565   2.817   0.682  0.00  0.00    -0.037 C 
ATOM     24  N   UNL     1      -1.943   2.349  -0.661  0.00  0.00    +0.390 N 
ATOM     25  H   UNL     1      -2.755   1.725  -0.596  0.00  0.00    -0.080 HD
BRANCH  23  26
ATOM     26  C   UNL     1      -2.784   3.099   1.523  0.00  0.00    -0.057 A 
ATOM     27  C   UNL     1      -3.885   2.267   1.444  0.00  0.00    +0.006 A 
ATOM     28  C   UNL     1      -5.003   2.520   2.216  0.00  0.00    +0.049 A 
ATOM     29  C   UNL     1      -5.026   3.615   3.066  0.00  0.00    +0.162 A 
ATOM     30  C   UNL     1      -3.920   4.454   3.144  0.00  0.00    +0.162 A 
ATOM     31  C   UNL     1      -2.800   4.192   2.369  0.00  0.00    +0.051 A 
ATOM     32  O   UNL     1      -3.919   5.529   3.978  0.00  0.00    -0.485 OA
ATOM     33  C   UNL     1      -5.193   5.972   4.459  0.00  0.00    +0.270 C 
ATOM     34  C   UNL     1      -5.984   4.744   4.927  0.00  0.00    +0.270 C 
ATOM     35  O   UNL     1      -6.138   3.858   3.812  0.00  0.00    -0.485 OA
ENDBRANCH  23  26
ENDBRANCH  19  24
ENDBRANCH   2  19
TORSDOF 7
