REMARK  Name = ZINC35319441
REMARK  17 active torsions:
REMARK  status: ('A' for Active; 'I' for Inactive)
REMARK    1  A    between atoms: C_1  and  C_2
REMARK    2  A    between atoms: C_2  and  C_3
REMARK    3  A    between atoms: C_3  and  C_4
REMARK    4  A    between atoms: C_4  and  C_5
REMARK    5  A    between atoms: C_5  and  C_6
REMARK    6  A    between atoms: C_6  and  C_14
REMARK    7  A    between atoms: C_7  and  C_8
REMARK    8  A    between atoms: C_14  and  N_15
REMARK    9  A    between atoms: N_15  and  C_16
REMARK   10  A    between atoms: C_16  and  C_17
REMARK   11  A    between atoms: C_23  and  C_25
REMARK   12  A    between atoms: C_25  and  C_26
REMARK   13  A    between atoms: C_26  and  C_27
REMARK   14  A    between atoms: C_27  and  C_28
REMARK   15  A    between atoms: C_28  and  C_29
REMARK   16  A    between atoms: C_29  and  N_30
REMARK   17  A    between atoms: C_31  and  C_33
REMARK                            x       y       z     vdW  Elec       q    Type
REMARK                         _______ _______ _______ _____ _____    ______ ____
ROOT
ATOM      1  N   UNL     1      -4.226  -5.329  -1.859  0.00  0.00    -0.291 N 
ATOM      2  C   UNL     1      -4.736  -6.497  -1.420  0.00  0.00    +0.282 C 
ATOM      3  O   UNL     1      -4.131  -7.152  -0.592  0.00  0.00    -0.267 OA
ENDROOT
BRANCH   2   4
ATOM      4  C   UNL     1      -6.019  -6.979  -1.941  0.00  0.00    +0.189 A 
ATOM      5  C   UNL     1      -6.689  -8.092  -1.519  0.00  0.00    +0.054 A 
ATOM      6  C   UNL     1      -7.862  -8.171  -2.286  0.00  0.00    +0.042 A 
ATOM      7  C   UNL     1      -7.857  -7.117  -3.132  0.00  0.00    +0.196 A 
ATOM      8  O   UNL     1      -6.747  -6.399  -2.917  0.00  0.00    -0.458 OA
ENDBRANCH   2   4
BRANCH   1   9
ATOM      9  C   UNL     1      -5.000  -4.492  -2.780  0.00  0.00    +0.112 C 
BRANCH   9  10
ATOM     10  C   UNL     1      -4.764  -4.963  -4.216  0.00  0.00    +0.009 C 
ATOM     11  C   UNL     1      -3.299  -4.734  -4.594  0.00  0.00    +0.024 C 
ATOM     12  C   UNL     1      -3.058  -5.238  -6.020  0.00  0.00    +0.108 C 
ATOM     13  N   UNL     1      -4.021  -4.588  -6.920  0.00  0.00    -0.301 N 
ATOM     14  C   UNL     1      -5.453  -4.668  -6.599  0.00  0.00    +0.108 C 
ATOM     15  C   UNL     1      -5.667  -4.171  -5.166  0.00  0.00    +0.024 C 
ATOM     16  C   UNL     1      -3.599  -3.929  -8.018  0.00  0.00    +0.216 C 
ATOM     17  O   UNL     1      -2.415  -3.869  -8.271  0.00  0.00    -0.276 OA
BRANCH  16  18
ATOM     18  C   UNL     1      -4.600  -3.268  -8.930  0.00  0.00    +0.096 C 
BRANCH  18  19
ATOM     19  C   UNL     1      -3.864  -2.596 -10.091  0.00  0.00    +0.009 C 
BRANCH  19  20
ATOM     20  C   UNL     1      -4.879  -1.924 -11.018  0.00  0.00    -0.001 C 
BRANCH  20  21
ATOM     21  C   UNL     1      -4.144  -1.252 -12.179  0.00  0.00    -0.020 C 
BRANCH  21  22
ATOM     22  C   UNL     1      -5.159  -0.580 -13.106  0.00  0.00    -0.086 C 
BRANCH  22  23
ATOM     23  N   UNL     1      -4.453   0.065 -14.220  0.00  0.00    +0.378 N 
ATOM     24  H   UNL     1      -3.934  -0.629 -14.737  0.00  0.00    -0.090 HD
ATOM     25  H   UNL     1      -5.122   0.508 -14.832  0.00  0.00    -0.090 HD
ATOM     26  H   UNL     1      -3.816   0.760 -13.859  0.00  0.00    -0.090 HD
ENDBRANCH  22  23
ENDBRANCH  21  22
ENDBRANCH  20  21
ENDBRANCH  19  20
ENDBRANCH  18  19
ENDBRANCH  16  18
ENDBRANCH   9  10
ENDBRANCH   1   9
BRANCH   1  27
ATOM     27  C   UNL     1      -2.899  -4.896  -1.415  0.00  0.00    +0.139 C 
BRANCH  27  28
ATOM     28  C   UNL     1      -3.020  -4.177  -0.097  0.00  0.00    -0.052 C 
ATOM     29  C   UNL     1      -2.809  -4.831   1.037  0.00  0.00    +0.008 C 
BRANCH  29  30
ATOM     30  C   UNL     1      -3.098  -4.178   2.332  0.00  0.00    -0.025 A 
ATOM     31  C   UNL     1      -3.621  -4.922   3.390  0.00  0.00    +0.008 A 
ATOM     32  C   UNL     1      -3.888  -4.306   4.596  0.00  0.00    +0.001 A 
ATOM     33  C   UNL     1      -3.640  -2.955   4.756  0.00  0.00    +0.000 A 
ATOM     34  C   UNL     1      -3.122  -2.212   3.710  0.00  0.00    +0.001 A 
ATOM     35  C   UNL     1      -2.844  -2.817   2.502  0.00  0.00    +0.008 A 
ENDBRANCH  29  30
BRANCH  28  36
ATOM     36  C   UNL     1      -3.381  -2.714  -0.067  0.00  0.00    +0.032 C 
BRANCH  36  37
ATOM     37  C   UNL     1      -2.128  -1.874  -0.322  0.00  0.00    +0.004 C 
BRANCH  37  38
ATOM     38  C   UNL     1      -2.463  -0.391  -0.150  0.00  0.00    +0.000 C 
BRANCH  38  40
ATOM     39  C   UNL     1      -1.546   1.931  -0.232  0.00  0.00    +0.004 C 
ATOM     40  C   UNL     1      -1.210   0.448  -0.405  0.00  0.00    -0.003 C 
ENDBRANCH  38  40
ENDBRANCH  37  38
ENDBRANCH  36  37
ENDBRANCH  28  36
ENDBRANCH  27  28
ENDBRANCH   1  27
TORSDOF 16
