REMARK  Name = ZINC20784036
REMARK  8 active torsions:
REMARK  status: ('A' for Active; 'I' for Inactive)
REMARK    1  A    between atoms: C_3  and  C_32
REMARK    2  A    between atoms: C_6  and  C_7
REMARK    3  A    between atoms: C_7  and  N_8
REMARK    4  A    between atoms: N_8  and  C_9
REMARK    5  A    between atoms: C_9  and  C_10
REMARK    6  A    between atoms: C_19  and  N_20
REMARK    7  A    between atoms: C_24  and  C_27
REMARK    8  A    between atoms: C_27  and  O_28
REMARK                            x       y       z     vdW  Elec       q    Type
REMARK                         _______ _______ _______ _____ _____    ______ ____
ROOT
ATOM      1  C   UNL     1      -3.614   3.134   0.075  0.00  0.00    -0.024 A 
ATOM      2  C   UNL     1      -2.471   3.860  -0.087  0.00  0.00    +0.015 A 
ATOM      3  C   UNL     1      -1.244   3.171  -0.135  0.00  0.00    +0.004 A 
ATOM      4  C   UNL     1      -0.032   3.856  -0.317  0.00  0.00    +0.059 A 
ATOM      5  C   UNL     1       1.141   3.159  -0.361  0.00  0.00    +0.167 A 
ATOM      6  C   UNL     1       1.149   1.761  -0.225  0.00  0.00    +0.168 A 
ATOM      7  C   UNL     1      -0.016   1.071  -0.046  0.00  0.00    +0.078 A 
ATOM      8  C   UNL     1      -1.239   1.760  -0.003  0.00  0.00    +0.077 A 
ATOM      9  N   UNL     1      -2.393   1.102   0.164  0.00  0.00    -0.232 NA
ATOM     10  C   UNL     1      -3.544   1.741   0.205  0.00  0.00    +0.123 A 
ATOM     11  O   UNL     1       2.441   1.328  -0.306  0.00  0.00    -0.453 OA
ATOM     12  C   UNL     1       3.175   2.412  -0.903  0.00  0.00    +0.466 C 
ATOM     13  O   UNL     1       2.429   3.584  -0.526  0.00  0.00    -0.453 OA
ENDROOT
BRANCH  10  14
ATOM     14  N   UNL     1      -4.715   1.017   0.380  0.00  0.00    -0.315 N 
ATOM     15  C   UNL     1      -4.940   0.100  -0.745  0.00  0.00    +0.106 C 
ATOM     16  C   UNL     1      -6.306  -0.573  -0.592  0.00  0.00    +0.019 C 
ATOM     17  C   UNL     1      -6.346  -1.340   0.733  0.00  0.00    +0.009 C 
ATOM     18  C   UNL     1      -6.061  -0.371   1.884  0.00  0.00    +0.032 C 
ATOM     19  C   UNL     1      -4.702   0.296   1.659  0.00  0.00    +0.112 C 
BRANCH  18  20
ATOM     20  C   UNL     1      -6.040  -1.140   3.206  0.00  0.00    +0.160 C 
BRANCH  20  21
ATOM     21  O   UNL     1      -7.341  -1.669   3.470  0.00  0.00    -0.395 OA
ATOM     22  H   UNL     1      -7.521  -2.256   4.383  0.00  0.00    +0.209 HD
ENDBRANCH  20  21
ENDBRANCH  18  20
ENDBRANCH  10  14
BRANCH   1  23
ATOM     23  C   UNL     1      -4.950   3.831   0.126  0.00  0.00    -0.043 C 
BRANCH  23  24
ATOM     24  N   UNL     1      -5.410   3.904   1.519  0.00  0.00    +0.384 N 
ATOM     25  H   UNL     1      -4.667   4.462   2.108  0.00  0.00    -0.085 HD
ATOM     26  H   UNL     1      -5.499   2.882   1.916  0.00  0.00    -0.085 HD
BRANCH  24  27
ATOM     27  C   UNL     1      -6.712   4.579   1.609  0.00  0.00    -0.046 C 
BRANCH  27  33
ATOM     28  C   UNL     1      -7.912   3.610   3.580  0.00  0.00    +0.002 A 
ATOM     29  C   UNL     1      -8.310   3.659   4.903  0.00  0.00    +0.012 A 
ATOM     30  C   UNL     1      -7.957   4.738   5.692  0.00  0.00    +0.055 A 
ATOM     31  C   UNL     1      -7.201   5.765   5.159  0.00  0.00    +0.012 A 
ATOM     32  C   UNL     1      -6.798   5.714   3.838  0.00  0.00    +0.002 A 
ATOM     33  C   UNL     1      -7.151   4.635   3.049  0.00  0.00    -0.064 A 
BRANCH  30  34
ATOM     34  C   UNL     1      -8.397   4.794   7.132  0.00  0.00    +0.417 C 
ATOM     35  F   UNL     1      -9.637   5.437   7.216  0.00  0.00    -0.166 F 
ATOM     36  F   UNL     1      -8.510   3.494   7.636  0.00  0.00    -0.166 F 
ATOM     37  F   UNL     1      -7.452   5.504   7.881  0.00  0.00    -0.166 F 
ENDBRANCH  30  34
ENDBRANCH  27  33
ENDBRANCH  24  27
ENDBRANCH  23  24
ENDBRANCH   1  23
TORSDOF 8
