REMARK  Name = ZINC04502844
REMARK  10 active torsions:
REMARK  status: ('A' for Active; 'I' for Inactive)
REMARK    1  A    between atoms: C_1  and  C_2
REMARK    2  A    between atoms: C_2  and  O_3
REMARK    3  A    between atoms: O_3  and  C_4
REMARK    4  A    between atoms: C_4  and  C_6
REMARK    5  A    between atoms: C_7  and  C_27
REMARK    6  A    between atoms: C_11  and  C_13
REMARK    7  A    between atoms: C_16  and  O_19
REMARK    8  A    between atoms: O_19  and  C_20
REMARK    9  A    between atoms: C_21  and  N_26
REMARK   10  A    between atoms: C_22  and  C_24
REMARK                            x       y       z     vdW  Elec       q    Type
REMARK                         _______ _______ _______ _____ _____    ______ ____
ROOT
ATOM      1  C   UNL     1      -1.200  -0.757   0.228  0.00  0.00    +0.083 C 
ATOM      2  C   UNL     1      -1.212  -2.097  -0.101  0.00  0.00    +0.053 C 
ATOM      3  N   UNL     1      -2.359  -2.729  -0.301  0.00  0.00    -0.230 NA
ATOM      4  C   UNL     1      -3.544  -2.172  -0.212  0.00  0.00    +0.168 C 
ATOM      5  N   UNL     1      -3.755  -0.853   0.102  0.00  0.00    -0.255 N 
ATOM      6  C   UNL     1      -2.530  -0.047   0.355  0.00  0.00    +0.151 C 
ATOM      7  C   UNL     1      -5.046  -0.420   0.157  0.00  0.00    +0.115 C 
ATOM      8  C   UNL     1      -6.053  -1.308  -0.100  0.00  0.00    +0.127 C 
ATOM      9  S   UNL     1      -5.141  -2.805  -0.430  0.00  0.00    -0.040 S 
ATOM     10  C   UNL     1       0.089  -2.846  -0.232  0.00  0.00    +0.066 C 
ENDROOT
BRANCH   6  11
ATOM     11  C   UNL     1      -2.622   0.520   1.748  0.00  0.00    -0.022 A 
ATOM     12  C   UNL     1      -2.980  -0.297   2.804  0.00  0.00    +0.009 A 
ATOM     13  C   UNL     1      -3.059   0.220   4.082  0.00  0.00    +0.046 A 
ATOM     14  C   UNL     1      -2.790   1.563   4.305  0.00  0.00    +0.120 A 
ATOM     15  C   UNL     1      -2.437   2.382   3.242  0.00  0.00    +0.046 A 
ATOM     16  C   UNL     1      -2.353   1.859   1.966  0.00  0.00    +0.009 A 
BRANCH  14  17
ATOM     17  O   UNL     1      -2.873   2.075   5.561  0.00  0.00    -0.495 OA
ATOM     18  C   UNL     1      -3.242   1.173   6.606  0.00  0.00    +0.277 C 
ENDBRANCH  14  17
ENDBRANCH   6  11
BRANCH   7  19
ATOM     19  N   UNL     1      -5.332   0.894   0.467  0.00  0.00    -0.345 N 
ATOM     20  H   UNL     1      -6.254   1.194   0.503  0.00  0.00    +0.144 HD
ATOM     21  H   UNL     1      -4.611   1.517   0.648  0.00  0.00    +0.144 HD
ENDBRANCH   7  19
BRANCH   1  22
ATOM     22  C   UNL     1       0.006  -0.075   0.443  0.00  0.00    +0.339 C 
ATOM     23  O   UNL     1       1.057  -0.690   0.463  0.00  0.00    -0.245 OA
BRANCH  22  24
ATOM     24  O   UNL     1       0.002   1.263   0.629  0.00  0.00    -0.462 OA
BRANCH  24  26
ATOM     25  C   UNL     1       1.063   3.396   1.032  0.00  0.00    +0.048 C 
ATOM     26  C   UNL     1       1.267   1.892   0.843  0.00  0.00    +0.229 C 
ENDBRANCH  24  26
ENDBRANCH  22  24
ENDBRANCH   1  22
BRANCH   8  27
ATOM     27  C   UNL     1      -7.469  -1.093  -0.103  0.00  0.00    +0.110 C 
ATOM     28  N   UNL     1      -8.592  -0.923  -0.105  0.00  0.00    -0.190 NA
ENDBRANCH   8  27
TORSDOF 7
