REMARK  Name = ZINC00632221
REMARK  4 active torsions:
REMARK  status: ('A' for Active; 'I' for Inactive)
REMARK    1  A    between atoms: C_1  and  S_2
REMARK    2  A    between atoms: S_2  and  C_3
REMARK    3  A    between atoms: C_6  and  C_9
REMARK    4  A    between atoms: C_26  and  C_28
REMARK                            x       y       z     vdW  Elec       q    Type
REMARK                         _______ _______ _______ _____ _____    ______ ____
ROOT
ATOM      1  C   UNL     1      -5.834  -1.544   0.050  0.00  0.00    +0.234 C 
ATOM      2  C   UNL     1      -6.273  -1.782   1.465  0.00  0.00    +0.028 C 
ATOM      3  C   UNL     1      -6.178  -3.008   2.018  0.00  0.00    +0.083 C 
ATOM      4  C   UNL     1      -5.637  -4.101   1.170  0.00  0.00    +0.042 A 
ATOM      5  C   UNL     1      -5.197  -5.296   1.720  0.00  0.00    +0.013 A 
ATOM      6  C   UNL     1      -4.699  -6.286   0.894  0.00  0.00    +0.001 A 
ATOM      7  C   UNL     1      -4.639  -6.086  -0.474  0.00  0.00    +0.004 A 
ATOM      8  C   UNL     1      -5.075  -4.897  -1.030  0.00  0.00    +0.046 A 
ATOM      9  C   UNL     1      -5.577  -3.898  -0.215  0.00  0.00    +0.131 A 
ATOM     10  O   UNL     1      -6.017  -2.727  -0.731  0.00  0.00    -0.479 OA
ATOM     11  N   UNL     1      -6.562  -3.241   3.297  0.00  0.00    -0.213 NA
ATOM     12  C   UNL     1      -7.058  -2.328   4.099  0.00  0.00    +0.237 C 
ATOM     13  N   UNL     1      -7.487  -2.388   5.379  0.00  0.00    -0.205 NA
ATOM     14  C   UNL     1      -7.906  -1.217   5.773  0.00  0.00    +0.203 C 
ATOM     15  N   UNL     1      -7.769  -0.320   4.757  0.00  0.00    -0.251 N 
ATOM     16  N   UNL     1      -7.224  -1.023   3.680  0.00  0.00    -0.208 N 
ATOM     17  C   UNL     1      -6.834  -0.661   2.312  0.00  0.00    +0.166 C 
ATOM     18  H   UNL     1      -8.003   0.621   4.778  0.00  0.00    +0.171 HD
ENDROOT
BRANCH   1  22
ATOM     19  C   UNL     1      -1.702  -0.454   0.016  0.00  0.00    +0.008 A 
ATOM     20  C   UNL     1      -2.682   0.531   0.025  0.00  0.00    +0.015 A 
ATOM     21  C   UNL     1      -4.016   0.176   0.036  0.00  0.00    +0.008 A 
ATOM     22  C   UNL     1      -4.377  -1.159   0.038  0.00  0.00    -0.003 A 
ATOM     23  C   UNL     1      -3.404  -2.143   0.029  0.00  0.00    +0.008 A 
ATOM     24  C   UNL     1      -2.068  -1.794   0.012  0.00  0.00    +0.015 A 
BRANCH  19  26
ATOM     25  C   UNL     1      -0.022   1.810   0.012  0.00  0.00    +0.090 C 
ATOM     26  S   UNL     1       0.002  -0.004   0.002  0.00  0.00    -0.129 S 
ENDBRANCH  19  26
ENDBRANCH   1  22
BRANCH  17  27
ATOM     27  C   UNL     1      -8.044  -0.100   1.610  0.00  0.00    +0.016 A 
ATOM     28  C   UNL     1      -8.147   1.014   0.845  0.00  0.00    +0.013 A 
ATOM     29  C   UNL     1      -9.373   1.338   0.294  0.00  0.00    +0.008 A 
ATOM     30  C   UNL     1     -10.435   0.532   0.536  0.00  0.00    +0.045 A 
ATOM     31  S   UNL     1      -9.711  -0.735   1.564  0.00  0.00    -0.099 S 
ENDBRANCH  17  27
TORSDOF 3
