REMARK  Name = ZINC36575985
REMARK  17 active torsions:
REMARK  status: ('A' for Active; 'I' for Inactive)
REMARK    1  A    between atoms: C_1  and  C_2
REMARK    2  A    between atoms: C_2  and  C_3
REMARK    3  A    between atoms: C_3  and  N_4
REMARK    4  A    between atoms: N_4  and  C_5
REMARK    5  A    between atoms: C_5  and  C_7
REMARK    6  A    between atoms: C_5  and  C_14
REMARK    7  A    between atoms: C_11  and  O_13
REMARK    8  A    between atoms: N_16  and  C_17
REMARK    9  A    between atoms: C_17  and  C_18
REMARK   10  A    between atoms: C_17  and  C_19
REMARK   11  A    between atoms: C_17  and  C_20
REMARK   12  A    between atoms: C_20  and  C_21
REMARK   13  A    between atoms: C_21  and  C_22
REMARK   14  A    between atoms: C_21  and  C_23
REMARK   15  A    between atoms: C_21  and  C_24
REMARK   16  A    between atoms: C_25  and  C_27
REMARK   17  A    between atoms: C_31  and  N_33
REMARK                            x       y       z     vdW  Elec       q    Type
REMARK                         _______ _______ _______ _____ _____    ______ ____
ROOT
ATOM      1  C   UNL     1       1.218  -2.784   0.444  0.00  0.00    +0.193 C 
ENDROOT
BRANCH   1   2
ATOM      2  C   UNL     1       2.410  -2.918   1.355  0.00  0.00    -0.015 A 
ATOM      3  C   UNL     1       3.081  -1.788   1.787  0.00  0.00    +0.006 A 
ATOM      4  C   UNL     1       4.175  -1.908   2.623  0.00  0.00    +0.004 A 
ATOM      5  C   UNL     1       4.602  -3.158   3.029  0.00  0.00    +0.045 A 
ATOM      6  C   UNL     1       3.931  -4.293   2.598  0.00  0.00    +0.117 A 
ATOM      7  C   UNL     1       2.829  -4.170   1.764  0.00  0.00    +0.051 A 
BRANCH   6   8
ATOM      8  O   UNL     1       4.349  -5.523   2.997  0.00  0.00    -0.507 OA
ATOM      9  H   UNL     1       3.938  -5.832   3.816  0.00  0.00    +0.292 HD
ENDBRANCH   6   8
ENDBRANCH   1   2
BRANCH   1  10
ATOM     10  C   UNL     1       1.630  -3.095  -0.972  0.00  0.00    +0.239 C 
ATOM     11  O   UNL     1       1.506  -2.255  -1.838  0.00  0.00    -0.273 OA
ATOM     12  N   UNL     1       2.138  -4.306  -1.276  0.00  0.00    -0.308 N 
ATOM     13  H   UNL     1       2.237  -4.978  -0.584  0.00  0.00    +0.149 HD
BRANCH  12  14
ATOM     14  C   UNL     1       2.539  -4.608  -2.652  0.00  0.00    +0.030 C 
ATOM     15  C   UNL     1       1.291  -4.775  -3.522  0.00  0.00    +0.031 C 
ATOM     16  C   UNL     1       3.391  -3.460  -3.199  0.00  0.00    +0.031 C 
BRANCH  14  17
ATOM     17  C   UNL     1       3.353  -5.903  -2.674  0.00  0.00    +0.031 C 
BRANCH  17  18
ATOM     18  C   UNL     1       4.318  -5.918  -1.487  0.00  0.00    -0.036 C 
ATOM     19  C   UNL     1       3.527  -6.093  -0.189  0.00  0.00    +0.010 C 
ATOM     20  C   UNL     1       5.302  -7.080  -1.644  0.00  0.00    +0.010 C 
ATOM     21  C   UNL     1       5.090  -4.598  -1.439  0.00  0.00    +0.010 C 
ENDBRANCH  17  18
ENDBRANCH  14  17
ENDBRANCH  12  14
ENDBRANCH   1  10
BRANCH   1  22
ATOM     22  N   UNL     1       0.702  -1.415   0.513  0.00  0.00    -0.282 N 
ATOM     23  C   UNL     1       0.115  -0.973   1.642  0.00  0.00    +0.248 C 
ATOM     24  O   UNL     1      -0.250   0.184   1.725  0.00  0.00    -0.270 OA
BRANCH  23  25
ATOM     25  C   UNL     1      -0.086  -1.894   2.781  0.00  0.00    +0.039 A 
ATOM     26  C   UNL     1       0.455  -3.180   2.746  0.00  0.00    +0.013 A 
ATOM     27  C   UNL     1       0.264  -4.035   3.812  0.00  0.00    +0.003 A 
ATOM     28  C   UNL     1      -0.461  -3.619   4.915  0.00  0.00    +0.033 A 
ATOM     29  C   UNL     1      -0.999  -2.345   4.956  0.00  0.00    +0.127 A 
ATOM     30  C   UNL     1      -0.811  -1.479   3.899  0.00  0.00    +0.045 A 
BRANCH  29  31
ATOM     31  N   UNL     1      -1.774  -1.909   6.140  0.00  0.00    +0.056 N 
ATOM     32  O   UNL     1      -1.935  -2.666   7.069  0.00  0.00    -0.126 OA
ATOM     33  O   UNL     1      -2.245  -0.797   6.177  0.00  0.00    -0.126 OA
ENDBRANCH  29  31
ENDBRANCH  23  25
BRANCH  22  34
ATOM     34  C   UNL     1       0.824  -0.527  -0.646  0.00  0.00    +0.109 C 
BRANCH  34  36
ATOM     35  C   UNL     1      -0.312   0.287  -2.717  0.00  0.00    +0.005 C 
ATOM     36  C   UNL     1      -0.393  -0.706  -1.556  0.00  0.00    +0.016 C 
ENDBRANCH  34  36
ENDBRANCH  22  34
ENDBRANCH   1  22
TORSDOF 11
