REMARK  Name = ZINC59293273
REMARK  9 active torsions:
REMARK  status: ('A' for Active; 'I' for Inactive)
REMARK    1  A    between atoms: C_1  and  C_2
REMARK    2  A    between atoms: C_3  and  C_24
REMARK    3  A    between atoms: N_11  and  C_14
REMARK    4  A    between atoms: C_16  and  C_20
REMARK    5  A    between atoms: C_17  and  N_19
REMARK    6  A    between atoms: C_20  and  O_22
REMARK    7  A    between atoms: O_22  and  C_23
REMARK    8  A    between atoms: C_24  and  O_26
REMARK    9  A    between atoms: O_26  and  C_27
REMARK                            x       y       z     vdW  Elec       q    Type
REMARK                         _______ _______ _______ _____ _____    ______ ____
ROOT
ATOM      1  C   UNL     1      -0.027   1.502  -0.070  0.00  0.00    +0.087 C 
ATOM      2  C   UNL     1      -0.002  -0.005  -0.036  0.00  0.00    +0.116 C 
ATOM      3  C   UNL     1      -1.160  -0.671   0.074  0.00  0.00    +0.098 C 
ATOM      4  C   UNL     1      -1.185  -2.172   0.113  0.00  0.00    +0.145 C 
ATOM      5  C   UNL     1      -1.722  -2.725  -1.183  0.00  0.00    -0.001 A 
ATOM      6  C   UNL     1      -1.295  -2.644  -2.490  0.00  0.00    +0.022 A 
ATOM      7  C   UNL     1      -2.014  -3.273  -3.493  0.00  0.00    +0.018 A 
ATOM      8  C   UNL     1      -3.160  -3.982  -3.177  0.00  0.00    +0.017 A 
ATOM      9  C   UNL     1      -3.590  -4.065  -1.869  0.00  0.00    +0.025 A 
ATOM     10  C   UNL     1      -2.872  -3.434  -0.855  0.00  0.00    +0.041 A 
ATOM     11  N   UNL     1      -3.101  -3.372   0.521  0.00  0.00    -0.273 N 
ATOM     12  C   UNL     1      -2.162  -2.653   1.161  0.00  0.00    +0.240 C 
ATOM     13  O   UNL     1      -2.108  -2.432   2.352  0.00  0.00    -0.274 OA
ATOM     14  C   UNL     1      -4.233  -4.016   1.191  0.00  0.00    +0.138 C 
ATOM     15 BR   UNL     1      -1.431  -3.163  -5.288  0.00  0.00    -0.050 Br
ATOM     16  C   UNL     1       0.186  -2.718   0.390  0.00  0.00    +0.117 C 
ATOM     17  C   UNL     1       1.283  -1.925   0.262  0.00  0.00    +0.195 C 
ATOM     18  O   UNL     1       1.178  -0.639  -0.122  0.00  0.00    -0.446 OA
ENDROOT
BRANCH  17  19
ATOM     19  N   UNL     1       2.521  -2.447   0.525  0.00  0.00    -0.329 N 
ATOM     20  H   UNL     1       2.619  -3.393   0.712  0.00  0.00    +0.145 HD
ATOM     21  H   UNL     1       3.301  -1.870   0.524  0.00  0.00    +0.145 HD
ENDBRANCH  17  19
BRANCH  16  22
ATOM     22  C   UNL     1       0.336  -4.056   0.783  0.00  0.00    +0.341 C 
ATOM     23  O   UNL     1       0.286  -4.945  -0.049  0.00  0.00    -0.245 OA
BRANCH  22  24
ATOM     24  O   UNL     1       0.536  -4.359   2.084  0.00  0.00    -0.465 OA
ATOM     25  C   UNL     1       0.681  -5.743   2.413  0.00  0.00    +0.280 C 
ENDBRANCH  22  24
ENDBRANCH  16  22
BRANCH   3  26
ATOM     26  C   UNL     1      -2.376   0.050   0.154  0.00  0.00    +0.340 C 
ATOM     27  O   UNL     1      -2.365   1.266   0.123  0.00  0.00    -0.245 OA
BRANCH  26  28
ATOM     28  O   UNL     1      -3.547  -0.612   0.265  0.00  0.00    -0.465 OA
ATOM     29  C   UNL     1      -4.734   0.179   0.342  0.00  0.00    +0.280 C 
ENDBRANCH  26  28
ENDBRANCH   3  26
TORSDOF 5
