REMARK  Name = ZINC39448720
REMARK  6 active torsions:
REMARK  status: ('A' for Active; 'I' for Inactive)
REMARK    1  A    between atoms: C_4  and  C_7
REMARK    2  A    between atoms: C_7  and  C_10
REMARK    3  A    between atoms: N_8  and  O_9
REMARK    4  A    between atoms: N_11  and  O_12
REMARK    5  A    between atoms: N_13  and  C_14
REMARK    6  A    between atoms: C_15  and  C_23
REMARK                            x       y       z     vdW  Elec       q    Type
REMARK                         _______ _______ _______ _____ _____    ______ ____
ROOT
ATOM      1  C   UNL     1       3.708  -2.168   0.067  0.00  0.00    +0.192 C 
ATOM      2  N   UNL     1       2.585  -2.825   0.074  0.00  0.00    -0.069 NA
ATOM      3  N   UNL     1       4.911  -2.851   0.161  0.00  0.00    -0.289 N 
ATOM      4  H   UNL     1       5.748  -2.361   0.155  0.00  0.00    +0.154 HD
ENDROOT
BRANCH   3   5
ATOM      5  C   UNL     1       4.918  -4.232   0.262  0.00  0.00    +0.089 A 
ATOM      6  C   UNL     1       6.016  -5.074   0.370  0.00  0.00    +0.084 A 
ATOM      7  C   UNL     1       5.751  -6.496   0.464  0.00  0.00    -0.014 A 
ATOM      8  C   UNL     1       4.437  -6.819   0.433  0.00  0.00    +0.022 A 
ATOM      9  S   UNL     1       3.598  -5.272   0.291  0.00  0.00    -0.075 S 
ATOM     10  C   UNL     1       3.872  -8.203   0.509  0.00  0.00    +0.202 C 
ATOM     11  O   UNL     1       4.949  -9.130   0.294  0.00  0.00    -0.374 OA
ATOM     12  C   UNL     1       6.107  -8.859   1.088  0.00  0.00    +0.165 C 
ATOM     13  C   UNL     1       6.804  -7.588   0.590  0.00  0.00    +0.065 C 
BRANCH   6  14
ATOM     14  C   UNL     1       7.352  -4.560   0.387  0.00  0.00    +0.102 C 
ATOM     15  N   UNL     1       8.412  -4.153   0.400  0.00  0.00    -0.191 NA
ENDBRANCH   6  14
ENDBRANCH   3   5
BRANCH   1  16
ATOM     16  C   UNL     1       3.701  -0.693  -0.042  0.00  0.00    +0.153 C 
ATOM     17  N   UNL     1       4.824  -0.043  -0.157  0.00  0.00    -0.083 NA
BRANCH  16  21
ATOM     18  C   UNL     1       0.017   1.427   0.023  0.00  0.00    +0.000 A 
ATOM     19  C   UNL     1       0.636   1.085   1.212  0.00  0.00    +0.001 A 
ATOM     20  C   UNL     1       1.832   0.397   1.198  0.00  0.00    +0.010 A 
ATOM     21  C   UNL     1       2.416   0.046  -0.019  0.00  0.00    +0.007 A 
ATOM     22  C   UNL     1       1.787   0.393  -1.214  0.00  0.00    +0.010 A 
ATOM     23  C   UNL     1       0.592   1.081  -1.187  0.00  0.00    +0.001 A 
ENDBRANCH  16  21
BRANCH  17  24
ATOM     24  O   UNL     1       4.826   1.373  -0.153  0.00  0.00    -0.409 OA
ATOM     25  H   UNL     1       5.705   1.765  -0.244  0.00  0.00    +0.328 HD
ENDBRANCH  17  24
ENDBRANCH   1  16
BRANCH   2  26
ATOM     26  O   UNL     1       1.355  -2.125   0.088  0.00  0.00    -0.408 OA
ATOM     27  H   UNL     1       0.578  -2.695   0.170  0.00  0.00    +0.328 HD
ENDBRANCH   2  26
TORSDOF 6
