REMARK  Name = ZINC16943671
REMARK  10 active torsions:
REMARK  status: ('A' for Active; 'I' for Inactive)
REMARK    1  A    between atoms: C_1  and  O_2
REMARK    2  A    between atoms: O_2  and  C_3
REMARK    3  A    between atoms: C_5  and  C_13
REMARK    4  A    between atoms: C_7  and  O_11
REMARK    5  A    between atoms: C_8  and  O_9
REMARK    6  A    between atoms: O_9  and  C_10
REMARK    7  A    between atoms: O_11  and  C_12
REMARK    8  A    between atoms: C_20  and  S_31
REMARK    9  A    between atoms: S_31  and  C_32
REMARK   10  A    between atoms: C_32  and  C_33
REMARK                            x       y       z     vdW  Elec       q    Type
REMARK                         _______ _______ _______ _____ _____    ______ ____
ROOT
ATOM      1  C   UNL     1      -1.121   7.130   1.859  0.00  0.00    +0.093 C 
ATOM      2  C   UNL     1      -1.162   7.445   3.324  0.00  0.00    +0.069 A 
ATOM      3  C   UNL     1      -2.336   7.236   4.060  0.00  0.00    +0.258 A 
ATOM      4  O   UNL     1      -3.339   6.798   3.519  0.00  0.00    -0.267 OA
ATOM      5  N   UNL     1      -2.336   7.527   5.378  0.00  0.00    -0.302 N 
ATOM      6  H   UNL     1      -3.140   7.391   5.903  0.00  0.00    +0.171 HD
ATOM      7  C   UNL     1      -1.210   8.012   5.971  0.00  0.00    +0.171 A 
ATOM      8  N   UNL     1      -0.104   8.212   5.283  0.00  0.00    -0.208 NA
ATOM      9  C   UNL     1      -0.048   7.945   3.974  0.00  0.00    +0.135 A 
ATOM     10  N   UNL     1       1.116   8.164   3.264  0.00  0.00    -0.302 N 
ATOM     11  C   UNL     1       1.089   8.277   1.900  0.00  0.00    +0.017 C 
ATOM     12  C   UNL     1       0.048   7.801   1.185  0.00  0.00    +0.024 C 
ATOM     13  C   UNL     1       0.021   7.914  -0.217  0.00  0.00    +0.162 C 
ATOM     14  O   UNL     1      -0.939   7.492  -0.830  0.00  0.00    -0.292 OA
ATOM     15  C   UNL     1       1.158   8.546  -0.972  0.00  0.00    +0.080 C 
ATOM     16  C   UNL     1       2.453   8.353  -0.175  0.00  0.00    +0.014 C 
ATOM     17  C   UNL     1       2.256   8.951   1.220  0.00  0.00    +0.051 C 
ATOM     18  H   UNL     1       1.960   8.238   3.736  0.00  0.00    +0.153 HD
ENDROOT
BRANCH   1  21
ATOM     19  C   UNL     1       0.202   3.593   2.026  0.00  0.00    +0.165 A 
ATOM     20  C   UNL     1       0.093   4.967   2.186  0.00  0.00    +0.054 A 
ATOM     21  C   UNL     1      -1.004   5.638   1.679  0.00  0.00    -0.028 A 
ATOM     22  C   UNL     1      -1.993   4.945   1.007  0.00  0.00    +0.054 A 
ATOM     23  C   UNL     1      -1.889   3.572   0.838  0.00  0.00    +0.165 A 
ATOM     24  C   UNL     1      -0.787   2.894   1.346  0.00  0.00    +0.204 A 
BRANCH  19  26
ATOM     25  C   UNL     1       2.258   3.716   3.216  0.00  0.00    +0.277 C 
ATOM     26  O   UNL     1       1.279   2.933   2.530  0.00  0.00    -0.491 OA
ENDBRANCH  19  26
BRANCH  24  27
ATOM     27  O   UNL     1      -0.682   1.547   1.184  0.00  0.00    -0.488 OA
ATOM     28  C   UNL     1      -0.013   1.086   0.008  0.00  0.00    +0.277 C 
ENDBRANCH  24  27
BRANCH  23  29
ATOM     29  O   UNL     1      -2.862   2.892   0.177  0.00  0.00    -0.491 OA
ATOM     30  C   UNL     1      -3.965   3.654  -0.318  0.00  0.00    +0.277 C 
ENDBRANCH  23  29
ENDBRANCH   1  21
BRANCH   7  31
ATOM     31  S   UNL     1      -1.232   8.380   7.694  0.00  0.00    -0.083 S 
BRANCH  31  32
ATOM     32  C   UNL     1       0.467   8.964   7.913  0.00  0.00    +0.115 C 
BRANCH  32  33
ATOM     33  C   UNL     1       0.684   9.347   9.354  0.00  0.00    -0.002 A 
ATOM     34  C   UNL     1       0.437  10.641   9.771  0.00  0.00    +0.007 A 
ATOM     35  C   UNL     1       0.631  10.990  11.094  0.00  0.00    +0.000 A 
ATOM     36  C   UNL     1       1.084  10.049  12.000  0.00  0.00    +0.003 A 
ATOM     37  C   UNL     1       1.338   8.756  11.584  0.00  0.00    +0.038 A 
ATOM     38  C   UNL     1       1.138   8.403  10.260  0.00  0.00    +0.127 A 
ATOM     39  F   UNL     1       1.386   7.139   9.852  0.00  0.00    -0.205 F 
ENDBRANCH  32  33
ENDBRANCH  31  32
ENDBRANCH   7  31
TORSDOF 7
