REMARK  Name = ZINC22932351
REMARK  4 active torsions:
REMARK  status: ('A' for Active; 'I' for Inactive)
REMARK    1  A    between atoms: C_4  and  C_7
REMARK    2  A    between atoms: C_7  and  N_8
REMARK    3  A    between atoms: N_11  and  C_14
REMARK    4  A    between atoms: C_14  and  C_15
REMARK                            x       y       z     vdW  Elec       q    Type
REMARK                         _______ _______ _______ _____ _____    ______ ____
ROOT
ATOM      1  C   UNL     1       5.513  -2.784   4.880  0.00  0.00    -0.003 C 
ENDROOT
BRANCH   1   2
ATOM      2  C   UNL     1       6.872  -3.436   4.896  0.00  0.00    +0.094 A 
ATOM      3  N   UNL     1       7.445  -3.703   6.099  0.00  0.00    -0.312 N 
ATOM      4  C   UNL     1       8.664  -4.288   6.167  0.00  0.00    +0.259 A 
ATOM      5  O   UNL     1       9.189  -4.532   7.237  0.00  0.00    -0.267 OA
ATOM      6  C   UNL     1       9.329  -4.616   4.897  0.00  0.00    +0.067 A 
ATOM      7  C   UNL     1      10.585  -5.218   4.857  0.00  0.00    +0.030 A 
ATOM      8  C   UNL     1      11.163  -5.504   3.639  0.00  0.00    +0.020 A 
ATOM      9  C   UNL     1      10.504  -5.196   2.455  0.00  0.00    +0.032 A 
ATOM     10  C   UNL     1       9.262  -4.600   2.473  0.00  0.00    +0.045 A 
ATOM     11  C   UNL     1       8.656  -4.301   3.696  0.00  0.00    +0.092 A 
ATOM     12  N   UNL     1       7.433  -3.719   3.760  0.00  0.00    -0.235 NA
ATOM     13 BR   UNL     1       8.383  -4.188   0.851  0.00  0.00    -0.048 Br
ATOM     14 BR   UNL     1      12.867  -6.321   3.578  0.00  0.00    -0.050 Br
ATOM     15  H   UNL     1       6.976  -3.473   6.916  0.00  0.00    +0.170 HD
ENDBRANCH   1   2
BRANCH   1  19
ATOM     16  N   UNL     1       4.153  -0.953   1.342  0.00  0.00    -0.302 NA
ATOM     17  C   UNL     1       3.246  -1.885   2.027  0.00  0.00    +0.066 C 
ATOM     18  C   UNL     1       3.706  -2.068   3.475  0.00  0.00    -0.063 C 
ATOM     19  N   UNL     1       5.078  -2.592   3.490  0.00  0.00    +0.386 N 
ATOM     20  C   UNL     1       5.976  -1.639   2.824  0.00  0.00    -0.063 C 
ATOM     21  C   UNL     1       5.535  -1.453   1.371  0.00  0.00    +0.066 C 
ATOM     22  H   UNL     1       5.106  -3.476   3.005  0.00  0.00    -0.081 HD
BRANCH  16  23
ATOM     23  C   UNL     1       3.711  -0.707  -0.038  0.00  0.00    +0.119 C 
BRANCH  23  27
ATOM     24  C   UNL     1      -0.017   1.378   0.010  0.00  0.00    +0.000 A 
ATOM     25  C   UNL     1       1.171   2.086   0.002  0.00  0.00    +0.000 A 
ATOM     26  C   UNL     1       2.377   1.411  -0.013  0.00  0.00    +0.005 A 
ATOM     27  C   UNL     1       2.396   0.029  -0.020  0.00  0.00    -0.033 A 
ATOM     28  C   UNL     1       1.208  -0.679  -0.012  0.00  0.00    +0.005 A 
ATOM     29  C   UNL     1       0.002  -0.004   0.002  0.00  0.00    +0.000 A 
ENDBRANCH  23  27
ENDBRANCH  16  23
ENDBRANCH   1  19
TORSDOF 4
