REMARK  Name = ZINC12147132
REMARK  8 active torsions:
REMARK  status: ('A' for Active; 'I' for Inactive)
REMARK    1  A    between atoms: C_1  and  C_2
REMARK    2  A    between atoms: C_2  and  C_3
REMARK    3  A    between atoms: C_2  and  C_4
REMARK    4  A    between atoms: C_2  and  C_5
REMARK    5  A    between atoms: C_6  and  C_11
REMARK    6  A    between atoms: C_11  and  N_12
REMARK    7  A    between atoms: N_12  and  C_13
REMARK    8  A    between atoms: N_12  and  C_14
REMARK                            x       y       z     vdW  Elec       q    Type
REMARK                         _______ _______ _______ _____ _____    ______ ____
ROOT
ATOM      1  N   UNL     1       3.423   0.210  -0.641  0.00  0.00    -0.328 N 
ATOM      2  C   UNL     1       4.563   1.116  -0.801  0.00  0.00    +0.129 C 
ENDROOT
BRANCH   1   3
ATOM      3  C   UNL     1       2.145   0.729  -0.403  0.00  0.00    +0.033 A 
ATOM      4  C   UNL     1       1.064  -0.129  -0.251  0.00  0.00    +0.027 A 
ATOM      5  C   UNL     1      -0.198   0.383  -0.017  0.00  0.00    +0.051 A 
ATOM      6  C   UNL     1      -0.389   1.754   0.066  0.00  0.00    +0.162 A 
ATOM      7  C   UNL     1       0.691   2.615  -0.084  0.00  0.00    +0.164 A 
ATOM      8  C   UNL     1       1.958   2.101  -0.320  0.00  0.00    +0.072 A 
ATOM      9  O   UNL     1       0.524   3.963   0.003  0.00  0.00    -0.485 OA
ATOM     10  C   UNL     1      -0.813   4.457  -0.133  0.00  0.00    +0.270 C 
ATOM     11  C   UNL     1      -1.734   3.596   0.742  0.00  0.00    +0.270 C 
ATOM     12  O   UNL     1      -1.642   2.240   0.289  0.00  0.00    -0.485 OA
ENDBRANCH   1   3
BRANCH   1  13
ATOM     13  C   UNL     1       3.620  -1.239  -0.729  0.00  0.00    +0.143 C 
BRANCH  13  15
ATOM     14  C   UNL     1       3.293  -3.028  -2.572  0.00  0.00    +0.073 A 
ATOM     15  C   UNL     1       3.336  -1.700  -2.135  0.00  0.00    +0.011 A 
ATOM     16  C   UNL     1       3.070  -0.903  -3.196  0.00  0.00    +0.110 A 
ATOM     17  N   UNL     1       2.875  -1.698  -4.269  0.00  0.00    -0.284 N 
ATOM     18  H   UNL     1       2.666  -1.392  -5.197  0.00  0.00    +0.188 HD
ATOM     19  N   UNL     1       3.017  -3.028  -3.851  0.00  0.00    -0.178 NA
BRANCH  14  21
ATOM     20  C   UNL     1       2.417  -4.354  -0.669  0.00  0.00    +0.017 C 
ATOM     21  C   UNL     1       3.525  -4.248  -1.718  0.00  0.00    +0.007 C 
ATOM     22  C   UNL     1       3.514  -5.498  -2.601  0.00  0.00    +0.017 C 
ATOM     23  C   UNL     1       4.880  -4.130  -1.018  0.00  0.00    +0.017 C 
ENDBRANCH  14  21
ENDBRANCH  13  15
ENDBRANCH   1  13
TORSDOF 4
