REMARK  Name = ZINC00542110
REMARK  5 active torsions:
REMARK  status: ('A' for Active; 'I' for Inactive)
REMARK    1  A    between atoms: C_1  and  C_2
REMARK    2  A    between atoms: C_2  and  C_3
REMARK    3  A    between atoms: C_8  and  N_9
REMARK    4  A    between atoms: C_10  and  C_12
REMARK    5  A    between atoms: C_12  and  C_23
REMARK                            x       y       z     vdW  Elec       q    Type
REMARK                         _______ _______ _______ _____ _____    ______ ____
ROOT
ATOM      1  N   UNL     1       2.833  -0.268  -0.113  0.00  0.00    -0.282 N 
ATOM      2  C   UNL     1       4.165  -0.474  -0.091  0.00  0.00    +0.261 C 
ATOM      3  O   UNL     1       4.734  -0.865  -1.088  0.00  0.00    -0.271 OA
ATOM      4  H   UNL     1       2.390   0.120   0.658  0.00  0.00    +0.155 HD
ENDROOT
BRANCH   2   5
ATOM      5  C   UNL     1       4.947  -0.219   1.171  0.00  0.00    +0.190 C 
ATOM      6  C   UNL     1       6.218  -1.068   1.165  0.00  0.00    +0.093 C 
ATOM      7  C   UNL     1       5.872  -2.524   1.332  0.00  0.00    -0.029 A 
ATOM      8  C   UNL     1       6.765  -3.498   0.933  0.00  0.00    +0.004 A 
ATOM      9  C   UNL     1       6.449  -4.836   1.089  0.00  0.00    +0.000 A 
ATOM     10  C   UNL     1       5.239  -5.210   1.647  0.00  0.00    +0.001 A 
ATOM     11  C   UNL     1       4.335  -4.247   2.049  0.00  0.00    +0.015 A 
ATOM     12  C   UNL     1       4.650  -2.899   1.892  0.00  0.00    +0.062 A 
ATOM     13  C   UNL     1       3.694  -1.848   2.310  0.00  0.00    +0.340 C 
ATOM     14  O   UNL     1       2.557  -2.119   2.639  0.00  0.00    -0.245 OA
ATOM     15  O   UNL     1       4.146  -0.568   2.308  0.00  0.00    -0.445 OA
ATOM     16  C   UNL     1       5.323   1.262   1.248  0.00  0.00    +0.066 C 
ENDBRANCH   2   5
BRANCH   1  22
ATOM     17  C   UNL     1       0.882   0.020  -1.507  0.00  0.00    -0.026 A 
ATOM     18  C   UNL     1       0.154  -0.320  -2.631  0.00  0.00    +0.005 A 
ATOM     19  C   UNL     1       0.622  -1.295  -3.491  0.00  0.00    +0.000 A 
ATOM     20  C   UNL     1       1.822  -1.933  -3.232  0.00  0.00    +0.002 A 
ATOM     21  C   UNL     1       2.555  -1.597  -2.111  0.00  0.00    +0.023 A 
ATOM     22  C   UNL     1       2.090  -0.614  -1.246  0.00  0.00    +0.037 A 
BRANCH  17  24
ATOM     23  C   UNL     1       0.991   2.432  -0.940  0.00  0.00    +0.009 C 
ATOM     24  C   UNL     1       0.371   1.083  -0.570  0.00  0.00    +0.033 C 
ENDBRANCH  17  24
ENDBRANCH   1  22
TORSDOF 3
