REMARK  Name = ZINC39237635
REMARK  5 active torsions:
REMARK  status: ('A' for Active; 'I' for Inactive)
REMARK    1  A    between atoms: C_4  and  C_7
REMARK    2  A    between atoms: C_10  and  S_18
REMARK    3  A    between atoms: N_11  and  C_12
REMARK    4  A    between atoms: S_18  and  C_19
REMARK    5  A    between atoms: C_21  and  C_32
REMARK                            x       y       z     vdW  Elec       q    Type
REMARK                         _______ _______ _______ _____ _____    ______ ____
ROOT
ATOM      1  C   UNL     1       7.763  -3.396   0.303  0.00  0.00    +0.171 C 
ATOM      2  C   UNL     1       8.777  -4.351   0.904  0.00  0.00    -0.009 C 
ATOM      3  C   UNL     1       9.736  -4.885   0.039  0.00  0.00    +0.003 A 
ATOM      4  C   UNL     1      10.717  -5.781   0.515  0.00  0.00    +0.030 A 
ATOM      5  C   UNL     1      11.639  -6.286  -0.348  0.00  0.00    +0.042 A 
ATOM      6  C   UNL     1      11.637  -5.936  -1.698  0.00  0.00    +0.022 A 
ATOM      7  C   UNL     1      10.716  -5.077  -2.215  0.00  0.00    +0.025 A 
ATOM      8  C   UNL     1       9.732  -4.516  -1.381  0.00  0.00    +0.041 A 
ATOM      9  N   UNL     1       8.828  -3.673  -1.891  0.00  0.00    -0.284 N 
ATOM     10  C   UNL     1       7.877  -3.106  -1.176  0.00  0.00    +0.235 C 
ATOM     11  O   UNL     1       7.088  -2.347  -1.709  0.00  0.00    -0.274 OA
ATOM     12 CL   UNL     1      12.844  -7.388   0.242  0.00  0.00    -0.084 Cl
ATOM     13  H   UNL     1       8.876  -3.467  -2.837  0.00  0.00    +0.155 HD
ENDROOT
BRANCH   2  14
ATOM     14  C   UNL     1       8.753  -4.686   2.281  0.00  0.00    -0.020 A 
ATOM     15  C   UNL     1       8.983  -3.699   3.253  0.00  0.00    +0.008 A 
ATOM     16  C   UNL     1       8.957  -4.035   4.589  0.00  0.00    +0.001 A 
ATOM     17  C   UNL     1       8.706  -5.342   4.974  0.00  0.00    +0.000 A 
ATOM     18  C   UNL     1       8.477  -6.323   4.023  0.00  0.00    +0.001 A 
ATOM     19  C   UNL     1       8.493  -6.007   2.683  0.00  0.00    +0.008 A 
ENDBRANCH   2  14
BRANCH   1  20
ATOM     20  S   UNL     1       6.109  -4.074   0.612  0.00  0.00    -0.068 S 
BRANCH  20  24
ATOM     21  C   UNL     1       3.242  -1.591  -0.327  0.00  0.00    +0.165 A 
ATOM     22  N   UNL     1       4.323  -0.909  -0.626  0.00  0.00    -0.128 NA
ATOM     23  N   UNL     1       5.369  -1.609  -0.366  0.00  0.00    -0.122 NA
ATOM     24  C   UNL     1       5.020  -2.781   0.115  0.00  0.00    +0.193 A 
ATOM     25  N   UNL     1       3.655  -2.809   0.161  0.00  0.00    -0.299 N 
BRANCH  21  29
ATOM     26  C   UNL     1      -0.773  -0.277  -0.766  0.00  0.00    +0.000 A 
ATOM     27  C   UNL     1      -0.446  -1.165   0.243  0.00  0.00    +0.001 A 
ATOM     28  C   UNL     1       0.857  -1.595   0.391  0.00  0.00    +0.011 A 
ATOM     29  C   UNL     1       1.845  -1.134  -0.480  0.00  0.00    +0.019 A 
ATOM     30  C   UNL     1       1.507  -0.239  -1.497  0.00  0.00    +0.011 A 
ATOM     31  C   UNL     1       0.201   0.185  -1.633  0.00  0.00    +0.001 A 
ENDBRANCH  21  29
BRANCH  25  32
ATOM     32  C   UNL     1       2.808  -3.908   0.630  0.00  0.00    +0.091 C 
ATOM     33  C   UNL     1       3.133  -4.214   2.094  0.00  0.00    +0.025 C 
ATOM     34  C   UNL     1       2.248  -5.362   2.584  0.00  0.00    +0.002 C 
ATOM     35  C   UNL     1       2.509  -6.606   1.732  0.00  0.00    +0.000 C 
ATOM     36  C   UNL     1       2.183  -6.300   0.269  0.00  0.00    +0.002 C 
ATOM     37  C   UNL     1       3.068  -5.152  -0.221  0.00  0.00    +0.025 C 
ENDBRANCH  25  32
ENDBRANCH  20  24
ENDBRANCH   1  20
TORSDOF 5
