REMARK  Name = ZINC63814518
REMARK  12 active torsions:
REMARK  status: ('A' for Active; 'I' for Inactive)
REMARK    1  A    between atoms: C_1  and  C_2
REMARK    2  A    between atoms: N_4  and  C_5
REMARK    3  A    between atoms: C_5  and  C_7
REMARK    4  A    between atoms: C_5  and  C_17
REMARK    5  A    between atoms: C_7  and  C_8
REMARK    6  A    between atoms: C_17  and  O_19
REMARK    7  A    between atoms: O_19  and  C_20
REMARK    8  A    between atoms: C_20  and  C_21
REMARK    9  A    between atoms: C_21  and  C_23
REMARK   10  A    between atoms: C_25  and  C_34
REMARK   11  A    between atoms: C_25  and  C_35
REMARK   12  A    between atoms: N_32  and  C_33
REMARK                            x       y       z     vdW  Elec       q    Type
REMARK                         _______ _______ _______ _____ _____    ______ ____
ROOT
ATOM      1  C   UNL     1       0.637  -5.036   0.859  0.00  0.00    +0.328 C 
ATOM      2  O   UNL     1       1.725  -5.447   1.188  0.00  0.00    -0.249 OA
ENDROOT
BRANCH   1   3
ATOM      3  C   UNL     1      -0.209  -4.272   1.844  0.00  0.00    +0.186 C 
BRANCH   3   7
ATOM      4  C   UNL     1       2.225  -4.061   4.791  0.00  0.00    +0.109 C 
ATOM      5  C   UNL     1       1.351  -4.598   3.687  0.00  0.00    +0.211 C 
ATOM      6  O   UNL     1       1.287  -5.793   3.492  0.00  0.00    -0.276 OA
ATOM      7  N   UNL     1       0.640  -3.750   2.917  0.00  0.00    -0.302 N 
ATOM      8  H   UNL     1       0.692  -2.794   3.073  0.00  0.00    +0.150 HD
ENDBRANCH   3   7
BRANCH   3   9
ATOM      9  C   UNL     1      -1.266  -5.205   2.439  0.00  0.00    +0.067 C 
BRANCH   9  10
ATOM     10  C   UNL     1      -2.189  -4.415   3.330  0.00  0.00    -0.039 C 
ATOM     11  C   UNL     1      -3.383  -3.877   2.992  0.00  0.00    -0.001 A 
ATOM     12  C   UNL     1      -4.150  -3.867   1.740  0.00  0.00    +0.010 A 
ATOM     13  C   UNL     1      -5.343  -3.230   1.707  0.00  0.00    +0.001 A 
ATOM     14  C   UNL     1      -5.864  -2.581   2.835  0.00  0.00    +0.002 A 
ATOM     15  C   UNL     1      -5.218  -2.548   4.020  0.00  0.00    +0.026 A 
ATOM     16  C   UNL     1      -3.956  -3.186   4.169  0.00  0.00    +0.043 A 
ATOM     17  N   UNL     1      -3.147  -3.292   5.195  0.00  0.00    -0.380 N 
ATOM     18  C   UNL     1      -1.972  -4.069   4.786  0.00  0.00    +0.144 C 
ATOM     19  H   UNL     1      -3.302  -2.921   6.078  0.00  0.00    +0.160 HD
ENDBRANCH   9  10
ENDBRANCH   3   9
ENDBRANCH   1   3
BRANCH   1  20
ATOM     20  O   UNL     1       0.184  -5.260  -0.384  0.00  0.00    -0.455 OA
BRANCH  20  21
ATOM     21  C   UNL     1       1.039  -5.991  -1.265  0.00  0.00    +0.311 C 
BRANCH  21  22
ATOM     22  C   UNL     1       0.367  -6.143  -2.606  0.00  0.00    +0.195 C 
ATOM     23  O   UNL     1      -0.738  -5.672  -2.789  0.00  0.00    -0.289 OA
BRANCH  22  24
ATOM     24  C   UNL     1       1.017  -6.829  -3.641  0.00  0.00    +0.069 C 
ATOM     25  C   UNL     1       0.408  -7.879  -4.245  0.00  0.00    +0.024 C 
ATOM     26  C   UNL     1       0.899  -8.624  -5.469  0.00  0.00    +0.030 C 
ATOM     27  C   UNL     1      -0.153  -9.684  -5.703  0.00  0.00    -0.015 A 
ATOM     28  C   UNL     1      -0.285 -10.673  -6.652  0.00  0.00    +0.006 A 
ATOM     29  C   UNL     1      -1.379 -11.520  -6.619  0.00  0.00    +0.000 A 
ATOM     30  C   UNL     1      -2.337 -11.369  -5.632  0.00  0.00    +0.002 A 
ATOM     31  C   UNL     1      -2.207 -10.380  -4.680  0.00  0.00    +0.024 A 
ATOM     32  C   UNL     1      -1.107  -9.523  -4.706  0.00  0.00    +0.038 A 
ATOM     33  N   UNL     1      -0.756  -8.469  -3.864  0.00  0.00    -0.305 N 
ATOM     34  C   UNL     1      -1.551  -8.044  -2.709  0.00  0.00    +0.135 C 
ATOM     35  C   UNL     1       0.985  -7.681  -6.671  0.00  0.00    +0.022 C 
ATOM     36  C   UNL     1       2.259  -9.269  -5.195  0.00  0.00    +0.022 C 
ENDBRANCH  22  24
ENDBRANCH  21  22
ENDBRANCH  20  21
ENDBRANCH   1  20
TORSDOF 8
