REMARK  Name = ZINC66672556
REMARK  4 active torsions:
REMARK  status: ('A' for Active; 'I' for Inactive)
REMARK    1  A    between atoms: C_1  and  C_2
REMARK    2  A    between atoms: C_7  and  C_8
REMARK    3  A    between atoms: N_10  and  C_11
REMARK    4  A    between atoms: N_15  and  C_16
REMARK                            x       y       z     vdW  Elec       q    Type
REMARK                         _______ _______ _______ _____ _____    ______ ____
ROOT
ATOM      1  C   UNL     1       0.032  -0.392   2.496  0.00  0.00    +0.266 C 
ATOM      2  O   UNL     1       0.018   0.795   2.765  0.00  0.00    -0.268 OA
ATOM      3  N   UNL     1       0.054  -1.306   3.485  0.00  0.00    -0.265 N 
ATOM      4  H   UNL     1       0.065  -2.252   3.271  0.00  0.00    +0.157 HD
ENDROOT
BRANCH   1  11
ATOM      5  C   UNL     1      -0.018   1.503   0.010  0.00  0.00    +0.047 C 
ATOM      6  C   UNL     1       0.002  -0.004   0.002  0.00  0.00    -0.010 A 
ATOM      7  C   UNL     1       0.008  -0.834  -1.125  0.00  0.00    +0.042 A 
ATOM      8  C   UNL     1       0.027  -2.156  -0.678  0.00  0.00    +0.027 A 
ATOM      9  N   UNL     1       0.035  -2.137   0.655  0.00  0.00    -0.354 N 
ATOM     10  H   UNL     1       0.050  -2.920   1.227  0.00  0.00    +0.166 HD
ATOM     11  C   UNL     1       0.024  -0.827   1.094  0.00  0.00    +0.106 A 
ATOM     12  C   UNL     1       0.032  -3.337  -1.615  0.00  0.00    +0.054 C 
ATOM     13  C   UNL     1      -0.487  -2.895  -2.986  0.00  0.00    +0.014 C 
ATOM     14  C   UNL     1       0.287  -1.673  -3.491  0.00  0.00    +0.080 C 
ATOM     15  C   UNL     1       0.001  -0.505  -2.559  0.00  0.00    +0.165 C 
ATOM     16  O   UNL     1      -0.216   0.616  -2.968  0.00  0.00    -0.292 OA
ENDBRANCH   1  11
BRANCH   3  17
ATOM     17  C   UNL     1       0.062  -0.893   4.816  0.00  0.00    +0.124 A 
ATOM     18  C   UNL     1       0.043   0.394   5.260  0.00  0.00    +0.065 A 
ATOM     19  C   UNL     1       0.058   0.365   6.657  0.00  0.00    +0.136 A 
ATOM     20  N   UNL     1       0.086  -0.883   7.046  0.00  0.00    -0.177 NA
ATOM     21  N   UNL     1       0.084  -1.701   5.908  0.00  0.00    -0.243 N 
BRANCH  21  22
ATOM     22  C   UNL     1       0.104  -3.166   5.898  0.00  0.00    +0.139 C 
ATOM     23  C   UNL     1      -1.137  -3.692   6.615  0.00  0.00    +0.032 C 
ATOM     24  C   UNL     1      -0.991  -5.209   6.786  0.00  0.00    +0.007 C 
ATOM     25  C   UNL     1       0.109  -5.474   7.812  0.00  0.00    +0.035 C 
ATOM     26  C   UNL     1       1.359  -4.712   7.457  0.00  0.00    -0.042 A 
ATOM     27  C   UNL     1       1.356  -3.650   6.582  0.00  0.00    -0.020 A 
ATOM     28  C   UNL     1       2.543  -2.986   6.303  0.00  0.00    +0.006 A 
ATOM     29  C   UNL     1       3.725  -3.384   6.894  0.00  0.00    +0.000 A 
ATOM     30  C   UNL     1       3.728  -4.452   7.771  0.00  0.00    +0.000 A 
ATOM     31  C   UNL     1       2.550  -5.112   8.049  0.00  0.00    +0.004 A 
ENDBRANCH  21  22
ENDBRANCH   3  17
TORSDOF 3
