REMARK  Name = ZINC36126567
REMARK  7 active torsions:
REMARK  status: ('A' for Active; 'I' for Inactive)
REMARK    1  A    between atoms: C_1  and  C_2
REMARK    2  A    between atoms: C_4  and  O_24
REMARK    3  A    between atoms: C_5  and  S_9
REMARK    4  A    between atoms: C_7  and  C_8
REMARK    5  A    between atoms: S_9  and  N_12
REMARK    6  A    between atoms: N_12  and  C_13
REMARK    7  A    between atoms: O_24  and  C_25
REMARK                            x       y       z     vdW  Elec       q    Type
REMARK                         _______ _______ _______ _____ _____    ______ ____
ROOT
ATOM      1  N   UNL     1      -1.418  -5.042  -0.545  0.00  0.00    -0.213 N 
ATOM      2  H   UNL     1      -1.476  -5.651  -1.298  0.00  0.00    +0.174 HD
ENDROOT
BRANCH   1   3
ATOM      3  C   UNL     1      -2.575  -4.688   0.158  0.00  0.00    +0.091 A 
ATOM      4  C   UNL     1      -2.522  -4.487   1.532  0.00  0.00    +0.028 A 
ATOM      5  C   UNL     1      -3.664  -4.136   2.227  0.00  0.00    +0.004 A 
ATOM      6  C   UNL     1      -4.866  -3.982   1.560  0.00  0.00    +0.027 A 
ATOM      7  C   UNL     1      -4.928  -4.181   0.190  0.00  0.00    +0.078 A 
ATOM      8  C   UNL     1      -3.780  -4.529  -0.516  0.00  0.00    +0.164 A 
ATOM      9  O   UNL     1      -3.852  -4.718  -1.862  0.00  0.00    -0.479 OA
ATOM     10  C   UNL     1      -5.079  -5.247  -2.372  0.00  0.00    +0.325 C 
ATOM     11  C   UNL     1      -6.242  -4.509  -1.757  0.00  0.00    +0.255 C 
ATOM     12  O   UNL     1      -7.268  -4.357  -2.386  0.00  0.00    -0.272 OA
ATOM     13  N   UNL     1      -6.138  -4.028  -0.502  0.00  0.00    -0.280 N 
ATOM     14  H   UNL     1      -6.888  -3.573  -0.088  0.00  0.00    +0.155 HD
ENDBRANCH   1   3
BRANCH   1  15
ATOM     15  S   UNL     1       0.049  -4.423  -0.092  0.00  0.00    +0.076 S 
ATOM     16  O   UNL     1       0.991  -4.854  -1.065  0.00  0.00    -0.150 OA
ATOM     17  O   UNL     1       0.200  -4.707   1.292  0.00  0.00    -0.150 OA
BRANCH  15  22
ATOM     18  C   UNL     1      -0.319   1.583  -0.586  0.00  0.00    +0.044 C 
ATOM     19  C   UNL     1      -0.227   0.084  -0.465  0.00  0.00    -0.044 A 
ATOM     20  C   UNL     1      -0.334  -0.707  -1.593  0.00  0.00    +0.051 A 
ATOM     21  C   UNL     1      -0.249  -2.087  -1.482  0.00  0.00    +0.147 A 
ATOM     22  C   UNL     1      -0.058  -2.670  -0.238  0.00  0.00    +0.150 A 
ATOM     23  C   UNL     1       0.047  -1.875   0.887  0.00  0.00    +0.036 A 
ATOM     24  C   UNL     1      -0.032  -0.499   0.773  0.00  0.00    -0.045 A 
ATOM     25  C   UNL     1       0.090   0.366   2.001  0.00  0.00    +0.044 C 
BRANCH  21  26
ATOM     26  O   UNL     1      -0.353  -2.867  -2.590  0.00  0.00    -0.493 OA
ATOM     27  C   UNL     1      -0.550  -2.198  -3.838  0.00  0.00    +0.277 C 
ENDBRANCH  21  26
ENDBRANCH  15  22
ENDBRANCH   1  15
TORSDOF 4
