REMARK  Name = ZINC19939086
REMARK  9 active torsions:
REMARK  status: ('A' for Active; 'I' for Inactive)
REMARK    1  A    between atoms: C_1  and  C_2
REMARK    2  A    between atoms: C_5  and  C_9
REMARK    3  A    between atoms: C_7  and  C_8
REMARK    4  A    between atoms: C_10  and  C_15
REMARK    5  A    between atoms: C_15  and  N_16
REMARK    6  A    between atoms: N_16  and  C_17
REMARK    7  A    between atoms: C_17  and  C_18
REMARK    8  A    between atoms: C_18  and  C_19
REMARK    9  A    between atoms: C_21  and  C_24
REMARK                            x       y       z     vdW  Elec       q    Type
REMARK                         _______ _______ _______ _____ _____    ______ ____
ROOT
ATOM      1  C   UNL     1       3.589   0.682  -0.164  0.00  0.00    +0.120 C 
ENDROOT
BRANCH   1   3
ATOM      2  C   UNL     1       1.257   1.802  -0.417  0.00  0.00    +0.097 A 
ATOM      3  C   UNL     1       2.086   0.720  -0.061  0.00  0.00    +0.011 A 
ATOM      4  C   UNL     1       1.293  -0.278   0.388  0.00  0.00    +0.110 A 
ATOM      5  N   UNL     1       0.013   0.145   0.323  0.00  0.00    -0.284 N 
ATOM      6  H   UNL     1      -0.803  -0.519   0.644  0.00  0.00    +0.188 HD
ATOM      7  N   UNL     1       0.010   1.451  -0.184  0.00  0.00    -0.174 NA
BRANCH   2  12
ATOM      8  C   UNL     1       3.015   6.867  -2.521  0.00  0.00    +0.044 C 
ATOM      9  C   UNL     1       2.555   5.541  -1.971  0.00  0.00    -0.047 A 
ATOM     10  C   UNL     1       3.239   4.957  -0.920  0.00  0.00    +0.004 A 
ATOM     11  C   UNL     1       2.822   3.744  -0.411  0.00  0.00    +0.010 A 
ATOM     12  C   UNL     1       1.710   3.107  -0.959  0.00  0.00    +0.003 A 
ATOM     13  C   UNL     1       1.029   3.697  -2.021  0.00  0.00    +0.013 A 
ATOM     14  C   UNL     1       1.451   4.914  -2.518  0.00  0.00    -0.047 A 
ATOM     15  C   UNL     1       0.712   5.556  -3.664  0.00  0.00    +0.044 C 
ENDBRANCH   2  12
ENDBRANCH   1   3
BRANCH   1  16
ATOM     16  N   UNL     1       3.980   0.532  -1.572  0.00  0.00    -0.311 NA
ATOM     17  H   UNL     1       3.492  -0.358  -1.995  0.00  0.00    +0.122 HD
BRANCH  16  18
ATOM     18  C   UNL     1       5.435   0.378  -1.700  0.00  0.00    +0.090 C 
BRANCH  18  19
ATOM     19  C   UNL     1       5.803   0.225  -3.177  0.00  0.00    +0.114 C 
BRANCH  19  20
ATOM     20  C   UNL     1       7.296   0.067  -3.309  0.00  0.00    +0.229 A 
ATOM     21  N   UNL     1       7.963  -1.060  -3.295  0.00  0.00    -0.191 NA
ATOM     22  C   UNL     1       9.262  -0.716  -3.444  0.00  0.00    +0.202 A 
ATOM     23  N   UNL     1       9.307   0.588  -3.539  0.00  0.00    -0.056 NA
ATOM     24  O   UNL     1       8.187   1.050  -3.469  0.00  0.00    -0.338 OA
BRANCH  22  25
ATOM     25  C   UNL     1      10.420  -1.643  -3.491  0.00  0.00    +0.022 A 
ATOM     26  C   UNL     1      10.221  -3.016  -3.370  0.00  0.00    +0.012 A 
ATOM     27  C   UNL     1      11.301  -3.874  -3.419  0.00  0.00    +0.001 A 
ATOM     28  C   UNL     1      12.580  -3.372  -3.578  0.00  0.00    +0.000 A 
ATOM     29  C   UNL     1      12.784  -2.009  -3.693  0.00  0.00    +0.001 A 
ATOM     30  C   UNL     1      11.710  -1.142  -3.650  0.00  0.00    +0.012 A 
ENDBRANCH  22  25
ENDBRANCH  19  20
ENDBRANCH  18  19
ENDBRANCH  16  18
ENDBRANCH   1  16
TORSDOF 7
