REMARK  Name = ZINC20803057
REMARK  8 active torsions:
REMARK  status: ('A' for Active; 'I' for Inactive)
REMARK    1  A    between atoms: C_1  and  C_2
REMARK    2  A    between atoms: C_6  and  C_7
REMARK    3  A    between atoms: C_7  and  N_8
REMARK    4  A    between atoms: N_8  and  C_9
REMARK    5  A    between atoms: N_8  and  C_10
REMARK    6  A    between atoms: C_10  and  C_11
REMARK    7  A    between atoms: N_13  and  C_14
REMARK    8  A    between atoms: C_17  and  N_21
REMARK                            x       y       z     vdW  Elec       q    Type
REMARK                         _______ _______ _______ _____ _____    ______ ____
ROOT
ATOM      1  C   UNL     1      -2.768   0.860   4.819  0.00  0.00    +0.201 C 
ATOM      2  O   UNL     1      -3.691   0.559   4.092  0.00  0.00    -0.278 OA
ATOM      3  N   UNL     1      -3.011   1.424   6.018  0.00  0.00    -0.286 N 
ATOM      4  H   UNL     1      -2.280   1.592   6.633  0.00  0.00    +0.155 HD
ENDROOT
BRANCH   3   5
ATOM      5  C   UNL     1      -4.319   1.768   6.377  0.00  0.00    +0.048 A 
ATOM      6  C   UNL     1      -5.266   2.025   5.394  0.00  0.00    +0.026 A 
ATOM      7  C   UNL     1      -6.556   2.364   5.751  0.00  0.00    +0.034 A 
ATOM      8  C   UNL     1      -6.906   2.449   7.087  0.00  0.00    +0.127 A 
ATOM      9  C   UNL     1      -5.967   2.194   8.068  0.00  0.00    +0.049 A 
ATOM     10  C   UNL     1      -4.676   1.848   7.718  0.00  0.00    +0.041 A 
ATOM     11 BR   UNL     1      -3.393   1.492   9.061  0.00  0.00    -0.048 Br
BRANCH   8  12
ATOM     12  N   UNL     1      -8.290   2.814   7.465  0.00  0.00    +0.056 N 
ATOM     13  O   UNL     1      -9.113   3.037   6.608  0.00  0.00    -0.126 OA
ATOM     14  O   UNL     1      -8.598   2.888   8.632  0.00  0.00    -0.126 OA
ENDBRANCH   8  12
ENDBRANCH   3   5
BRANCH   1  15
ATOM     15  C   UNL     1      -1.349   0.604   4.381  0.00  0.00    +0.019 C 
BRANCH  15  16
ATOM     16  N   UNL     1      -1.351  -0.012   3.047  0.00  0.00    +0.387 N 
ATOM     17  C   UNL     1      -1.980  -1.338   3.122  0.00  0.00    -0.095 C 
ATOM     18  H   UNL     1      -1.871   0.571   2.408  0.00  0.00    -0.081 HD
BRANCH  16  19
ATOM     19  C   UNL     1       0.031  -0.152   2.570  0.00  0.00    -0.035 C 
BRANCH  19  25
ATOM     20  C   UNL     1      -0.038   1.531   0.001  0.00  0.00    +0.044 C 
ATOM     21  C   UNL     1      -0.006   0.025  -0.009  0.00  0.00    -0.042 A 
ATOM     22  C   UNL     1      -0.001  -0.669  -1.205  0.00  0.00    +0.011 A 
ATOM     23  C   UNL     1       0.028  -2.024  -1.178  0.00  0.00    +0.045 A 
ATOM     24  S   UNL     1       0.048  -2.359   0.575  0.00  0.00    -0.103 S 
ATOM     25  C   UNL     1       0.023  -0.670   1.154  0.00  0.00    -0.024 A 
ENDBRANCH  19  25
ENDBRANCH  16  19
ENDBRANCH  15  16
ENDBRANCH   1  15
TORSDOF 6
