REMARK  Name = ZINC09046272
REMARK  17 active torsions:
REMARK  status: ('A' for Active; 'I' for Inactive)
REMARK    1  A    between atoms: C_1  and  C_2
REMARK    2  A    between atoms: C_2  and  N_73
REMARK    3  A    between atoms: C_3  and  C_4
REMARK    4  A    between atoms: C_3  and  N_73
REMARK    5  A    between atoms: C_5  and  C_6
REMARK    6  A    between atoms: C_5  and  N_73
REMARK    7  A    between atoms: C_6  and  N_7
REMARK    8  A    between atoms: C_8  and  C_27
REMARK    9  A    between atoms: C_11  and  C_12
REMARK   10  A    between atoms: C_11  and  O_22
REMARK   11  A    between atoms: C_15  and  O_18
REMARK   12  A    between atoms: O_18  and  C_19
REMARK   13  A    between atoms: C_19  and  C_20
REMARK   14  A    between atoms: C_19  and  C_21
REMARK   15  A    between atoms: C_30  and  C_33
REMARK   16  A    between atoms: C_33  and  C_34
REMARK   17  A    between atoms: C_33  and  C_35
REMARK                            x       y       z     vdW  Elec       q    Type
REMARK                         _______ _______ _______ _____ _____    ______ ____
ROOT
ATOM      1  N   UNL     1       0.853   0.968  -1.282  0.00  0.00    -0.285 N 
ATOM      2  C   UNL     1       0.633   2.348  -0.840  0.00  0.00    +0.144 C 
ATOM      3  C   UNL     1      -0.855   2.597  -0.922  0.00  0.00    +0.071 C 
ATOM      4  C   UNL     1      -1.521   3.764  -0.602  0.00  0.00    +0.133 C 
ATOM      5  C   UNL     1      -1.424   1.405  -1.395  0.00  0.00    +0.249 C 
ATOM      6  O   UNL     1      -2.609   1.211  -1.599  0.00  0.00    -0.282 OA
ATOM      7  C   UNL     1      -0.330   0.418  -1.600  0.00  0.00    +0.288 C 
ATOM      8  O   UNL     1      -0.484  -0.717  -2.002  0.00  0.00    -0.266 OA
ENDROOT
BRANCH   4   9
ATOM      9  C   UNL     1      -2.992   3.795  -0.597  0.00  0.00    +0.017 A 
ATOM     10  C   UNL     1      -3.677   4.758  -1.348  0.00  0.00    +0.015 A 
ATOM     11  C   UNL     1      -5.053   4.779  -1.345  0.00  0.00    +0.046 A 
ATOM     12  C   UNL     1      -5.763   3.853  -0.588  0.00  0.00    +0.121 A 
ATOM     13  C   UNL     1      -5.087   2.898   0.165  0.00  0.00    +0.046 A 
ATOM     14  C   UNL     1      -3.711   2.865   0.164  0.00  0.00    +0.015 A 
BRANCH  12  15
ATOM     15  O   UNL     1      -7.119   3.881  -0.583  0.00  0.00    -0.489 OA
BRANCH  15  16
ATOM     16  C   UNL     1      -7.784   2.971   0.295  0.00  0.00    +0.167 C 
ATOM     17  C   UNL     1      -9.157   3.533   0.669  0.00  0.00    +0.051 C 
ATOM     18  C   UNL     1      -7.960   1.622  -0.407  0.00  0.00    +0.051 C 
ENDBRANCH  15  16
ENDBRANCH  12  15
ENDBRANCH   4   9
BRANCH   2  19
ATOM     19  C   UNL     1       1.367   3.304  -1.744  0.00  0.00    -0.022 A 
ATOM     20  C   UNL     1       1.399   3.078  -3.108  0.00  0.00    +0.006 A 
ATOM     21  C   UNL     1       2.069   3.957  -3.938  0.00  0.00    +0.004 A 
ATOM     22  C   UNL     1       2.715   5.056  -3.405  0.00  0.00    -0.045 A 
ATOM     23  C   UNL     1       2.688   5.279  -2.041  0.00  0.00    +0.004 A 
ATOM     24  C   UNL     1       2.014   4.402  -1.210  0.00  0.00    +0.006 A 
BRANCH  22  25
ATOM     25  C   UNL     1       3.449   6.012  -4.310  0.00  0.00    +0.013 C 
ATOM     26  C   UNL     1       4.553   5.261  -5.056  0.00  0.00    +0.012 C 
ATOM     27  C   UNL     1       2.469   6.613  -5.319  0.00  0.00    +0.012 C 
ENDBRANCH  22  25
ENDBRANCH   2  19
BRANCH   4  28
ATOM     28  O   UNL     1      -0.822   4.877  -0.293  0.00  0.00    -0.506 OA
ATOM     29  H   UNL     1      -1.456   5.623  -0.088  0.00  0.00    +0.292 HD
ENDBRANCH   4  28
BRANCH   1  30
ATOM     30  C   UNL     1       2.153   0.298  -1.363  0.00  0.00    +0.090 C 
BRANCH  30  31
ATOM     31  C   UNL     1       2.758   0.524  -2.750  0.00  0.00    -0.060 C 
BRANCH  31  32
ATOM     32  N   UNL     1       4.008  -0.259  -2.855  0.00  0.00    +0.380 N 
ATOM     33  H   UNL     1       4.535  -0.165  -1.979  0.00  0.00    -0.082 HD
BRANCH  32  35
ATOM     34  C   UNL     1       4.982  -2.500  -2.957  0.00  0.00    -0.017 C 
ATOM     35  C   UNL     1       3.692  -1.686  -3.075  0.00  0.00    -0.082 C 
ENDBRANCH  32  35
BRANCH  32  36
ATOM     36  C   UNL     1       4.833   0.254  -3.969  0.00  0.00    -0.082 C 
ATOM     37  C   UNL     1       5.516   1.547  -3.518  0.00  0.00    -0.017 C 
ENDBRANCH  32  36
ENDBRANCH  31  32
ENDBRANCH  30  31
ENDBRANCH   1  30
TORSDOF 11
