REMARK  Name = ZINC08856521
REMARK  4 active torsions:
REMARK  status: ('A' for Active; 'I' for Inactive)
REMARK    1  A    between atoms: C_8  and  C_26
REMARK    2  A    between atoms: C_10  and  C_17
REMARK    3  A    between atoms: C_21  and  N_23
REMARK    4  A    between atoms: C_26  and  C_28
REMARK                            x       y       z     vdW  Elec       q    Type
REMARK                         _______ _______ _______ _____ _____    ______ ____
ROOT
ATOM      1  C   UNL     1       3.589   5.838  -0.647  0.00  0.00    +0.000 A 
ATOM      2  C   UNL     1       4.676   6.259  -1.391  0.00  0.00    +0.002 A 
ATOM      3  C   UNL     1       5.604   5.346  -1.847  0.00  0.00    +0.023 A 
ATOM      4  C   UNL     1       5.452   3.990  -1.561  0.00  0.00    +0.036 A 
ATOM      5  C   UNL     1       4.353   3.578  -0.814  0.00  0.00    -0.027 A 
ATOM      6  C   UNL     1       3.430   4.493  -0.360  0.00  0.00    +0.004 A 
ATOM      7  C   UNL     1       4.476   2.084  -0.686  0.00  0.00    +0.051 C 
ATOM      8  C   UNL     1       3.267   1.376  -1.304  0.00  0.00    +0.069 C 
ATOM      9  C   UNL     1       2.416   0.901  -0.112  0.00  0.00    +0.016 C 
ATOM     10  C   UNL     1       3.168   1.355   1.152  0.00  0.00    -0.059 C 
ATOM     11  C   UNL     1       5.314   0.402   0.852  0.00  0.00    -0.076 C 
ATOM     12  C   UNL     1       4.768  -0.198   2.172  0.00  0.00    -0.020 C 
ATOM     13  C   UNL     1       3.267   0.166   2.124  0.00  0.00    -0.016 C 
ATOM     14  C   UNL     1       5.741   1.737  -1.429  0.00  0.00    +0.212 C 
ATOM     15  O   UNL     1       6.215   0.630  -1.572  0.00  0.00    -0.277 OA
ATOM     16  N   UNL     1       6.243   2.892  -1.904  0.00  0.00    -0.286 N 
ATOM     17  H   UNL     1       7.059   2.954  -2.424  0.00  0.00    +0.155 HD
ATOM     18  N   UNL     1       4.522   1.643   0.722  0.00  0.00    +0.395 N 
ATOM     19  H   UNL     1       4.933   2.382   1.304  0.00  0.00    -0.079 HD
ENDROOT
BRANCH   9  20
ATOM     20  C   UNL     1       1.050   1.537  -0.162  0.00  0.00    -0.043 A 
ATOM     21  C   UNL     1       0.045   0.959  -0.914  0.00  0.00    +0.004 A 
ATOM     22  C   UNL     1      -1.207   1.542  -0.959  0.00  0.00    +0.002 A 
ATOM     23  C   UNL     1      -1.454   2.704  -0.252  0.00  0.00    +0.033 A 
ATOM     24  C   UNL     1      -0.450   3.280   0.504  0.00  0.00    +0.126 A 
ATOM     25  C   UNL     1       0.804   2.699   0.545  0.00  0.00    +0.036 A 
BRANCH  24  26
ATOM     26  N   UNL     1      -0.716   4.521   1.265  0.00  0.00    +0.056 N 
ATOM     27  O   UNL     1       0.170   5.031   1.928  0.00  0.00    -0.126 OA
ATOM     28  O   UNL     1      -1.821   5.033   1.229  0.00  0.00    -0.126 OA
ENDBRANCH  24  26
ENDBRANCH   9  20
BRANCH   8  29
ATOM     29  C   UNL     1       2.479   2.336  -2.158  0.00  0.00    +0.166 C 
ATOM     30  O   UNL     1       1.798   3.193  -1.636  0.00  0.00    -0.292 OA
BRANCH  29  31
ATOM     31  C   UNL     1       2.535   2.234  -3.622  0.00  0.00    +0.021 A 
ATOM     32  C   UNL     1       3.321   1.245  -4.227  0.00  0.00    +0.015 A 
ATOM     33  C   UNL     1       3.372   1.152  -5.599  0.00  0.00    +0.050 A 
ATOM     34  C   UNL     1       2.647   2.035  -6.389  0.00  0.00    +0.166 A 
ATOM     35  C   UNL     1       1.861   3.024  -5.793  0.00  0.00    +0.167 A 
ATOM     36  C   UNL     1       1.800   3.121  -4.417  0.00  0.00    +0.061 A 
ATOM     37  O   UNL     1       1.257   3.752  -6.777  0.00  0.00    -0.453 OA
ATOM     38  C   UNL     1       1.356   2.946  -7.966  0.00  0.00    +0.466 C 
ATOM     39  O   UNL     1       2.533   2.148  -7.743  0.00  0.00    -0.453 OA
ENDBRANCH  29  31
ENDBRANCH   8  29
TORSDOF 4
