REMARK  Name = ZINC63919965
REMARK  7 active torsions:
REMARK  status: ('A' for Active; 'I' for Inactive)
REMARK    1  A    between atoms: C_7  and  C_10
REMARK    2  A    between atoms: C_10  and  C_12
REMARK    3  A    between atoms: C_10  and  C_29
REMARK    4  A    between atoms: C_12  and  N_13
REMARK    5  A    between atoms: C_14  and  C_16
REMARK    6  A    between atoms: C_16  and  N_17
REMARK    7  A    between atoms: C_18  and  C_20
REMARK                            x       y       z     vdW  Elec       q    Type
REMARK                         _______ _______ _______ _____ _____    ______ ____
ROOT
ATOM      1  C   UNL     1       0.923  -4.026  -1.281  0.00  0.00    +0.116 C 
ENDROOT
BRANCH   1   2
ATOM      2  N   UNL     1      -0.070  -5.102  -1.340  0.00  0.00    -0.313 N 
ATOM      3  C   UNL     1      -0.058  -5.974  -2.367  0.00  0.00    +0.230 C 
ATOM      4  O   UNL     1       0.774  -5.869  -3.243  0.00  0.00    -0.274 OA
ATOM      5  H   UNL     1      -0.735  -5.186  -0.639  0.00  0.00    +0.149 HD
BRANCH   3   6
ATOM      6  C   UNL     1      -1.080  -7.080  -2.428  0.00  0.00    +0.200 C 
BRANCH   6   7
ATOM      7  N   UNL     1      -0.857  -7.886  -3.631  0.00  0.00    -0.303 N 
ATOM      8  C   UNL     1      -1.656  -8.938  -3.896  0.00  0.00    +0.245 C 
ATOM      9  O   UNL     1      -2.562  -9.219  -3.135  0.00  0.00    -0.270 OA
ATOM     10  H   UNL     1      -0.134  -7.661  -4.238  0.00  0.00    +0.150 HD
BRANCH   8  11
ATOM     11  C   UNL     1      -1.431  -9.749  -5.108  0.00  0.00    +0.040 A 
ATOM     12  C   UNL     1      -0.387  -9.431  -5.980  0.00  0.00    +0.017 A 
ATOM     13  C   UNL     1      -0.178 -10.190  -7.111  0.00  0.00    +0.050 A 
ATOM     14  C   UNL     1      -1.003 -11.272  -7.389  0.00  0.00    +0.166 A 
ATOM     15  C   UNL     1      -2.048 -11.594  -6.522  0.00  0.00    +0.167 A 
ATOM     16  C   UNL     1      -2.259 -10.841  -5.384  0.00  0.00    +0.062 A 
ATOM     17  O   UNL     1      -2.702 -12.687  -7.016  0.00  0.00    -0.453 OA
ATOM     18  C   UNL     1      -2.304 -12.780  -8.397  0.00  0.00    +0.466 C 
ATOM     19  O   UNL     1      -1.004 -12.162  -8.421  0.00  0.00    -0.453 OA
ENDBRANCH   8  11
ENDBRANCH   6   7
ENDBRANCH   3   6
ENDBRANCH   1   2
BRANCH   1  20
ATOM     20  C   UNL     1       0.691  -3.186  -0.024  0.00  0.00    +0.066 C 
BRANCH  20  27
ATOM     21  C   UNL     1      -0.016   1.348   0.009  0.00  0.00    +0.001 A 
ATOM     22  C   UNL     1       1.166   2.101   0.002  0.00  0.00    +0.002 A 
ATOM     23  C   UNL     1       2.391   1.535  -0.013  0.00  0.00    +0.026 A 
ATOM     24  C   UNL     1       2.529   0.120  -0.022  0.00  0.00    +0.043 A 
ATOM     25  N   UNL     1       3.587  -0.654  -0.037  0.00  0.00    -0.380 N 
ATOM     26  C   UNL     1       3.143  -2.053  -0.041  0.00  0.00    +0.145 C 
ATOM     27  C   UNL     1       1.631  -2.008  -0.025  0.00  0.00    -0.033 C 
ATOM     28  C   UNL     1       1.295  -0.698  -0.014  0.00  0.00    -0.000 A 
ATOM     29  C   UNL     1       0.002  -0.004   0.002  0.00  0.00    +0.010 A 
ATOM     30  H   UNL     1       4.509  -0.353  -0.045  0.00  0.00    +0.160 HD
ENDBRANCH  20  27
BRANCH  20  31
ATOM     31  C   UNL     1       0.944  -4.029   1.199  0.00  0.00    -0.020 A 
ATOM     32  C   UNL     1       2.189  -4.591   1.405  0.00  0.00    +0.006 A 
ATOM     33  C   UNL     1       2.422  -5.365   2.527  0.00  0.00    +0.000 A 
ATOM     34  C   UNL     1       1.408  -5.577   3.443  0.00  0.00    +0.001 A 
ATOM     35  C   UNL     1       0.162  -5.016   3.238  0.00  0.00    +0.020 A 
ATOM     36  C   UNL     1      -0.069  -4.237   2.118  0.00  0.00    +0.045 A 
ATOM     37 CL   UNL     1      -1.632  -3.525   1.863  0.00  0.00    -0.083 Cl
ENDBRANCH  20  31
ENDBRANCH   1  20
TORSDOF 7
