REMARK  Name = ZINC39431439
REMARK  4 active torsions:
REMARK  status: ('A' for Active; 'I' for Inactive)
REMARK    1  A    between atoms: C_1  and  S_2
REMARK    2  A    between atoms: S_2  and  C_3
REMARK    3  A    between atoms: C_6  and  C_9
REMARK    4  A    between atoms: N_10  and  N_11
REMARK                            x       y       z     vdW  Elec       q    Type
REMARK                         _______ _______ _______ _____ _____    ______ ____
ROOT
ATOM      1  N   UNL     1       3.821  -3.014   6.377  0.00  0.00    -0.247 N 
ATOM      2  C   UNL     1       4.029  -4.287   6.682  0.00  0.00    +0.231 C 
ATOM      3  N   UNL     1       3.554  -5.293   5.828  0.00  0.00    -0.288 N 
ATOM      4  C   UNL     1       3.221  -6.551   6.500  0.00  0.00    +0.220 C 
ATOM      5  C   UNL     1       4.359  -6.804   7.480  0.00  0.00    +0.113 C 
ATOM      6  C   UNL     1       4.698  -8.121   7.304  0.00  0.00    +0.025 A 
ATOM      7  C   UNL     1       5.587  -8.967   8.007  0.00  0.00    +0.012 A 
ATOM      8  C   UNL     1       5.707 -10.248   7.552  0.00  0.00    +0.001 A 
ATOM      9  C   UNL     1       5.007 -10.740   6.450  0.00  0.00    +0.002 A 
ATOM     10  C   UNL     1       4.127  -9.996   5.725  0.00  0.00    +0.026 A 
ATOM     11  C   UNL     1       3.934  -8.646   6.138  0.00  0.00    +0.046 A 
ATOM     12  N   UNL     1       3.154  -7.726   5.651  0.00  0.00    -0.361 N 
ATOM     13  N   UNL     1       4.926  -5.819   8.164  0.00  0.00    -0.147 NA
ATOM     14  N   UNL     1       4.693  -4.602   7.798  0.00  0.00    -0.113 NA
ATOM     15  H   UNL     1       2.614  -7.815   4.850  0.00  0.00    +0.162 HD
ATOM     16  H   UNL     1       3.454  -5.167   4.872  0.00  0.00    +0.151 HD
ATOM     17  H   UNL     1       4.151  -2.315   6.963  0.00  0.00    +0.192 HD
ENDROOT
BRANCH   1  19
ATOM     18  C   UNL     1       2.974  -1.440   4.998  0.00  0.00    +0.140 C 
ATOM     19  N   UNL     1       3.180  -2.705   5.301  0.00  0.00    -0.179 NA
BRANCH  18  23
ATOM     20  C   UNL     1       0.877  -0.427   1.472  0.00  0.00    +0.008 A 
ATOM     21  C   UNL     1       1.350   0.581   2.313  0.00  0.00    +0.015 A 
ATOM     22  C   UNL     1       2.027   0.259   3.453  0.00  0.00    +0.010 A 
ATOM     23  C   UNL     1       2.248  -1.089   3.778  0.00  0.00    -0.005 A 
ATOM     24  C   UNL     1       1.770  -2.100   2.928  0.00  0.00    +0.010 A 
ATOM     25  C   UNL     1       1.089  -1.768   1.794  0.00  0.00    +0.015 A 
BRANCH  20  27
ATOM     26  C   UNL     1      -0.022   1.810   0.012  0.00  0.00    +0.090 C 
ATOM     27  S   UNL     1       0.002  -0.004   0.002  0.00  0.00    -0.129 S 
ENDBRANCH  20  27
ENDBRANCH  18  23
ENDBRANCH   1  19
TORSDOF 3
