REMARK  Name = ZINC63362088
REMARK  8 active torsions:
REMARK  status: ('A' for Active; 'I' for Inactive)
REMARK    1  A    between atoms: C_1  and  C_2
REMARK    2  A    between atoms: C_8  and  O_13
REMARK    3  A    between atoms: O_13  and  C_14
REMARK    4  A    between atoms: N_20  and  C_23
REMARK    5  A    between atoms: C_28  and  C_29
REMARK    6  A    between atoms: N_31  and  C_32
REMARK    7  A    between atoms: C_32  and  C_33
REMARK    8  A    between atoms: C_33  and  C_34
REMARK                            x       y       z     vdW  Elec       q    Type
REMARK                         _______ _______ _______ _____ _____    ______ ____
ROOT
ATOM      1  C   UNL     1      -0.130   1.832  -1.127  0.00  0.00    +0.044 C 
ATOM      2  C   UNL     1      -0.142   0.304  -1.062  0.00  0.00    +0.137 C 
ATOM      3  C   UNL     1       0.459  -0.311  -2.326  0.00  0.00    +0.139 C 
ATOM      4  C   UNL     1       1.595  -1.224  -1.887  0.00  0.00    -0.034 C 
ATOM      5  C   UNL     1       1.322  -2.426  -2.388  0.00  0.00    +0.003 A 
ATOM      6  C   UNL     1       2.068  -3.693  -2.356  0.00  0.00    +0.055 A 
ATOM      7  C   UNL     1       1.484  -4.759  -2.970  0.00  0.00    +0.121 A 
ATOM      8  C   UNL     1       0.240  -4.708  -3.615  0.00  0.00    +0.047 A 
ATOM      9  C   UNL     1      -0.529  -3.593  -3.707  0.00  0.00    +0.029 A 
ATOM     10  C   UNL     1      -0.001  -2.372  -3.083  0.00  0.00    +0.043 A 
ATOM     11  N   UNL     1      -0.506  -1.159  -3.030  0.00  0.00    -0.375 N 
ATOM     12  C   UNL     1       2.727  -0.779  -0.994  0.00  0.00    +0.052 C 
ATOM     13  C   UNL     1       2.089  -0.107   0.238  0.00  0.00    +0.115 C 
ATOM     14  N   UNL     1       0.633  -0.195   0.093  0.00  0.00    -0.268 N 
ATOM     15  C   UNL     1      -0.248  -0.750   0.936  0.00  0.00    +0.317 C 
ATOM     16  O   UNL     1       0.039  -1.158   2.045  0.00  0.00    -0.252 OA
ATOM     17  N   UNL     1      -1.483  -0.803   0.417  0.00  0.00    -0.192 N 
ATOM     18  C   UNL     1      -1.535  -0.226  -0.801  0.00  0.00    +0.253 C 
ATOM     19  O   UNL     1      -2.498  -0.148  -1.534  0.00  0.00    -0.272 OA
ATOM     20  H   UNL     1      -1.361  -0.871  -3.386  0.00  0.00    +0.160 HD
ENDROOT
BRANCH  17  21
ATOM     21  C   UNL     1      -2.579  -1.384   1.058  0.00  0.00    +0.058 A 
ATOM     22  C   UNL     1      -2.814  -2.746   0.940  0.00  0.00    +0.025 A 
ATOM     23  C   UNL     1      -3.899  -3.319   1.575  0.00  0.00    +0.002 A 
ATOM     24  C   UNL     1      -4.758  -2.540   2.333  0.00  0.00    +0.001 A 
ATOM     25  C   UNL     1      -4.540  -1.185   2.461  0.00  0.00    +0.015 A 
ATOM     26  C   UNL     1      -3.444  -0.594   1.829  0.00  0.00    +0.059 A 
BRANCH  26  27
ATOM     27  C   UNL     1      -3.201   0.855   1.966  0.00  0.00    +0.246 C 
ATOM     28  O   UNL     1      -2.193   1.349   1.499  0.00  0.00    -0.270 OA
ATOM     29  N   UNL     1      -4.096   1.630   2.610  0.00  0.00    -0.311 N 
ATOM     30  H   UNL     1      -4.863   1.227   3.045  0.00  0.00    +0.149 HD
BRANCH  29  31
ATOM     31  C   UNL     1      -3.911   3.083   2.652  0.00  0.00    +0.109 C 
BRANCH  31  32
ATOM     32  C   UNL     1      -4.988   3.709   3.540  0.00  0.00    +0.049 C 
BRANCH  32  33
ATOM     33  C   UNL     1      -4.872   5.211   3.486  0.00  0.00    -0.072 C 
ATOM     34  C   UNL     1      -5.614   5.846   2.637  0.00  0.00    -0.028 C 
ATOM     35  C   UNL     1      -5.603   7.337   2.461  0.00  0.00    +0.027 C 
ATOM     36  C   UNL     1      -4.946   8.005   3.670  0.00  0.00    +0.004 C 
ATOM     37  C   UNL     1      -3.611   7.302   3.948  0.00  0.00    +0.005 C 
ATOM     38  C   UNL     1      -3.909   5.877   4.425  0.00  0.00    +0.030 C 
ENDBRANCH  32  33
ENDBRANCH  31  32
ENDBRANCH  29  31
ENDBRANCH  26  27
ENDBRANCH  17  21
BRANCH   7  39
ATOM     39  O   UNL     1       2.149  -5.945  -2.958  0.00  0.00    -0.495 OA
ATOM     40  C   UNL     1       1.467  -7.076  -3.502  0.00  0.00    +0.277 C 
ENDBRANCH   7  39
TORSDOF 6
