REMARK  Name = ZINC19797113
REMARK  2 active torsions:
REMARK  status: ('A' for Active; 'I' for Inactive)
REMARK    1  A    between atoms: C_1  and  C_2
REMARK    2  A    between atoms: N_13  and  N_17
REMARK                            x       y       z     vdW  Elec       q    Type
REMARK                         _______ _______ _______ _____ _____    ______ ____
ROOT
ATOM      1  C   UNL     1       7.890  -1.758  -0.176  0.00  0.00    +0.008 C 
ATOM      2  C   UNL     1       6.441  -1.351  -0.449  0.00  0.00    -0.009 C 
ATOM      3  C   UNL     1       5.497  -2.216   0.393  0.00  0.00    +0.008 C 
ATOM      4  C   UNL     1       4.052  -1.991  -0.051  0.00  0.00    +0.037 C 
ATOM      5  C   UNL     1       3.760  -0.493  -0.038  0.00  0.00    -0.023 A 
ATOM      6  C   UNL     1       4.766   0.405  -0.042  0.00  0.00    -0.004 A 
ATOM      7  S   UNL     1       3.970   1.988  -0.024  0.00  0.00    -0.075 S 
ATOM      8  C   UNL     1       2.282   1.438  -0.012  0.00  0.00    +0.092 A 
ATOM      9  C   UNL     1       2.396   0.038  -0.021  0.00  0.00    +0.075 A 
ATOM     10  C   UNL     1       1.162  -0.687  -0.013  0.00  0.00    +0.280 A 
ATOM     11  O   UNL     1       1.161  -1.906  -0.019  0.00  0.00    -0.265 OA
ATOM     12  N   UNL     1       0.002  -0.004   0.002  0.00  0.00    -0.209 N 
ATOM     13  C   UNL     1      -0.016   1.361   0.009  0.00  0.00    +0.179 A 
ATOM     14  N   UNL     1       1.105   2.052   0.003  0.00  0.00    -0.328 N 
ATOM     15  S   UNL     1      -1.561   2.209   0.021  0.00  0.00    -0.011 S 
ATOM     16  C   UNL     1       6.237   0.120  -0.059  0.00  0.00    +0.046 C 
ATOM     17  H   UNL     1       1.058   3.151   0.009  0.00  0.00    +0.168 HD
ENDROOT
BRANCH  12  18
ATOM     18  N   UNL     1      -1.179  -0.690   0.010  0.00  0.00    -0.293 N 
ATOM     19  H   UNL     1      -2.133  -0.142   0.022  0.00  0.00    +0.163 HD
ATOM     20  H   UNL     1      -1.176  -1.790   0.005  0.00  0.00    +0.163 HD
ENDBRANCH  12  18
TORSDOF 1
