REMARK  Name = ZINC32856073
REMARK  9 active torsions:
REMARK  status: ('A' for Active; 'I' for Inactive)
REMARK    1  A    between atoms: C_1  and  C_2
REMARK    2  A    between atoms: C_2  and  O_3
REMARK    3  A    between atoms: O_3  and  C_4
REMARK    4  A    between atoms: C_4  and  C_6
REMARK    5  A    between atoms: C_7  and  C_30
REMARK    6  A    between atoms: C_9  and  N_11
REMARK    7  A    between atoms: C_12  and  C_14
REMARK    8  A    between atoms: C_14  and  N_15
REMARK    9  A    between atoms: C_19  and  C_21
REMARK                            x       y       z     vdW  Elec       q    Type
REMARK                         _______ _______ _______ _____ _____    ______ ____
ROOT
ATOM      1  C   UNL     1      -1.656   2.986  -2.241  0.00  0.00    +0.020 C 
ENDROOT
BRANCH   1   2
ATOM      2  N   UNL     1      -1.026   3.314  -0.955  0.00  0.00    +0.391 N 
ATOM      3  C   UNL     1      -1.595   4.549  -0.386  0.00  0.00    -0.077 C 
ATOM      4  C   UNL     1      -2.135   4.200   1.017  0.00  0.00    -0.020 C 
ATOM      5  C   UNL     1      -1.333   2.926   1.392  0.00  0.00    -0.010 C 
ATOM      6  C   UNL     1      -1.210   2.218   0.020  0.00  0.00    -0.011 C 
ATOM      7  H   UNL     1       0.046   3.459  -1.155  0.00  0.00    -0.080 HD
BRANCH   6   8
ATOM      8  C   UNL     1      -0.016   1.299   0.009  0.00  0.00    +0.066 A 
ATOM      9  N   UNL     1       0.002  -0.004   0.002  0.00  0.00    -0.246 NA
ATOM     10  C   UNL     1       1.150  -0.713  -0.013  0.00  0.00    +0.078 A 
ATOM     11  C   UNL     1       1.331  -2.114  -0.022  0.00  0.00    +0.029 A 
ATOM     12  C   UNL     1       2.580  -2.653  -0.037  0.00  0.00    +0.002 A 
ATOM     13  C   UNL     1       3.717  -1.856  -0.044  0.00  0.00    +0.001 A 
ATOM     14  C   UNL     1       3.582  -0.481  -0.035  0.00  0.00    +0.017 A 
ATOM     15  C   UNL     1       2.325   0.073  -0.020  0.00  0.00    +0.039 A 
ATOM     16  S   UNL     1       1.668   1.722  -0.005  0.00  0.00    -0.074 S 
ENDBRANCH   6   8
ENDBRANCH   1   2
BRANCH   1  18
ATOM     17  N   UNL     1      -2.197   4.145  -4.358  0.00  0.00    -0.282 N 
ATOM     18  C   UNL     1      -1.665   4.209  -3.122  0.00  0.00    +0.201 C 
ATOM     19  O   UNL     1      -1.192   5.250  -2.719  0.00  0.00    -0.278 OA
ATOM     20  H   UNL     1      -2.626   3.200  -4.724  0.00  0.00    +0.155 HD
BRANCH  17  24
ATOM     21  C   UNL     1      -2.005   7.650  -6.365  0.00  0.00    +0.101 A 
ATOM     22  C   UNL     1      -2.603   6.616  -7.074  0.00  0.00    -0.028 A 
ATOM     23  C   UNL     1      -2.700   5.402  -6.451  0.00  0.00    +0.035 A 
ATOM     24  C   UNL     1      -2.205   5.271  -5.170  0.00  0.00    +0.073 A 
ATOM     25  S   UNL     1      -1.602   6.858  -4.818  0.00  0.00    -0.067 S 
ATOM     26  C   UNL     1      -3.123   6.823  -8.473  0.00  0.00    +0.045 C 
BRANCH  21  27
ATOM     27  C   UNL     1      -1.779   8.990  -6.765  0.00  0.00    +0.346 C 
ATOM     28  O   UNL     1      -2.129   9.362  -7.869  0.00  0.00    -0.244 OA
BRANCH  27  29
ATOM     29  O   UNL     1      -1.175   9.853  -5.921  0.00  0.00    -0.461 OA
BRANCH  29  31
ATOM     30  C   UNL     1      -0.285  12.014  -5.305  0.00  0.00    +0.048 C 
ATOM     31  C   UNL     1      -0.979  11.188  -6.391  0.00  0.00    +0.229 C 
ENDBRANCH  29  31
ENDBRANCH  27  29
ENDBRANCH  21  27
ENDBRANCH  17  24
ENDBRANCH   1  18
TORSDOF 7
