REMARK  Name = ZINC62605366
REMARK  5 active torsions:
REMARK  status: ('A' for Active; 'I' for Inactive)
REMARK    1  A    between atoms: C_1  and  C_2
REMARK    2  A    between atoms: N_5  and  S_17
REMARK    3  A    between atoms: C_7  and  C_10
REMARK    4  A    between atoms: C_10  and  C_11
REMARK    5  A    between atoms: S_17  and  C_20
REMARK                            x       y       z     vdW  Elec       q    Type
REMARK                         _______ _______ _______ _____ _____    ______ ____
ROOT
ATOM      1  S   UNL     1      -2.225  -3.006  -0.815  0.00  0.00    +0.061 S 
ATOM      2  O   UNL     1      -2.443  -4.211  -0.094  0.00  0.00    -0.153 OA
ATOM      3  O   UNL     1      -3.290  -2.243  -1.363  0.00  0.00    -0.153 OA
ENDROOT
BRANCH   1   4
ATOM      4  C   UNL     1      -1.152  -3.408  -2.154  0.00  0.00    +0.108 A 
ATOM      5  C   UNL     1      -1.136  -2.613  -3.287  0.00  0.00    +0.030 A 
ATOM      6  C   UNL     1      -0.299  -2.920  -4.341  0.00  0.00    +0.030 A 
ATOM      7  C   UNL     1       0.530  -4.029  -4.264  0.00  0.00    +0.067 A 
ATOM      8  C   UNL     1       0.514  -4.831  -3.121  0.00  0.00    +0.069 A 
ATOM      9  C   UNL     1      -0.326  -4.512  -2.066  0.00  0.00    +0.056 A 
ATOM     10  N   UNL     1       1.438  -5.852  -3.333  0.00  0.00    -0.306 N 
ATOM     11  H   UNL     1       1.647  -6.566  -2.711  0.00  0.00    +0.170 HD
ATOM     12  C   UNL     1       1.990  -5.679  -4.549  0.00  0.00    +0.325 A 
ATOM     13  O   UNL     1       2.837  -6.400  -5.043  0.00  0.00    -0.247 OA
ATOM     14  N   UNL     1       1.462  -4.588  -5.135  0.00  0.00    -0.306 N 
ATOM     15  H   UNL     1       1.693  -4.248  -6.014  0.00  0.00    +0.170 HD
ENDBRANCH   1   4
BRANCH   1  19
ATOM     16  C   UNL     1      -0.019   1.526   0.010  0.00  0.00    +0.039 C 
ATOM     17  C   UNL     1       0.002  -0.004   0.002  0.00  0.00    +0.131 C 
ATOM     18  C   UNL     1      -1.436  -0.536   0.015  0.00  0.00    +0.140 C 
ATOM     19  N   UNL     1      -1.389  -1.995   0.196  0.00  0.00    -0.172 NA
ATOM     20  C   UNL     1      -0.578  -2.530   1.302  0.00  0.00    +0.141 C 
ATOM     21  C   UNL     1       0.818  -1.901   1.226  0.00  0.00    +0.139 C 
ATOM     22  O   UNL     1       0.691  -0.479   1.161  0.00  0.00    -0.371 OA
BRANCH  21  23
ATOM     23  C   UNL     1       1.621  -2.288   2.469  0.00  0.00    +0.068 C 
BRANCH  23  24
ATOM     24  C   UNL     1       3.031  -1.773   2.336  0.00  0.00    -0.045 A 
ATOM     25  C   UNL     1       4.001  -2.559   1.742  0.00  0.00    +0.004 A 
ATOM     26  C   UNL     1       5.294  -2.086   1.621  0.00  0.00    +0.000 A 
ATOM     27  C   UNL     1       5.618  -0.828   2.093  0.00  0.00    +0.000 A 
ATOM     28  C   UNL     1       4.647  -0.042   2.686  0.00  0.00    +0.000 A 
ATOM     29  C   UNL     1       3.353  -0.513   2.804  0.00  0.00    +0.004 A 
ENDBRANCH  23  24
ENDBRANCH  21  23
ENDBRANCH   1  19
TORSDOF 4
