REMARK  Name = ZINC39361661
REMARK  7 active torsions:
REMARK  status: ('A' for Active; 'I' for Inactive)
REMARK    1  A    between atoms: C_1  and  C_2
REMARK    2  A    between atoms: C_2  and  S_3
REMARK    3  A    between atoms: S_3  and  C_4
REMARK    4  A    between atoms: C_7  and  C_17
REMARK    5  A    between atoms: N_9  and  C_10
REMARK    6  A    between atoms: C_14  and  C_16
REMARK    7  A    between atoms: C_17  and  C_18
REMARK                            x       y       z     vdW  Elec       q    Type
REMARK                         _______ _______ _______ _____ _____    ______ ____
ROOT
ATOM      1  C   UNL     1       0.600  -2.369  -1.469  0.00  0.00    +0.179 C 
ATOM      2  N   UNL     1       0.104  -2.994  -0.455  0.00  0.00    -0.162 NA
ATOM      3  N   UNL     1       0.450  -4.350  -0.469  0.00  0.00    -0.246 N 
ATOM      4  C   UNL     1       1.273  -4.552  -1.673  0.00  0.00    +0.187 C 
ATOM      5  N   UNL     1       1.330  -3.216  -2.290  0.00  0.00    -0.258 N 
ATOM      6  H   UNL     1       0.198  -5.022   0.184  0.00  0.00    +0.170 HD
ENDROOT
BRANCH   5   7
ATOM      7  C   UNL     1       1.993  -2.869  -3.470  0.00  0.00    +0.038 A 
ATOM      8  C   UNL     1       1.552  -3.368  -4.690  0.00  0.00    +0.023 A 
ATOM      9  C   UNL     1       2.209  -3.022  -5.854  0.00  0.00    +0.002 A 
ATOM     10  C   UNL     1       3.306  -2.180  -5.807  0.00  0.00    +0.003 A 
ATOM     11  C   UNL     1       3.748  -1.682  -4.595  0.00  0.00    -0.049 A 
ATOM     12  C   UNL     1       3.091  -2.019  -3.428  0.00  0.00    +0.027 A 
ATOM     13  C   UNL     1       4.943  -0.765  -4.549  0.00  0.00    +0.044 C 
ENDBRANCH   5   7
BRANCH   1  14
ATOM     14  S   UNL     1       0.370  -0.650  -1.779  0.00  0.00    -0.089 S 
BRANCH  14  16
ATOM     15  C   UNL     1      -0.930   1.411  -0.535  0.00  0.00    +0.016 C 
ATOM     16  C   UNL     1      -0.651  -0.086  -0.389  0.00  0.00    +0.074 C 
ENDBRANCH  14  16
ENDBRANCH   1  14
BRANCH   4  17
ATOM     17  C   UNL     1       2.674  -5.036  -1.292  0.00  0.00    +0.097 C 
BRANCH  17  18
ATOM     18  C   UNL     1       2.582  -6.414  -0.689  0.00  0.00    +0.029 A 
ATOM     19  N   UNL     1       2.305  -6.566   0.642  0.00  0.00    -0.311 N 
ATOM     20  C   UNL     1       2.220  -7.792   1.190  0.00  0.00    +0.327 A 
ATOM     21  O   UNL     1       1.973  -7.903   2.375  0.00  0.00    -0.247 OA
ATOM     22  N   UNL     1       2.405  -8.896   0.444  0.00  0.00    -0.275 N 
ATOM     23  C   UNL     1       2.680  -8.790  -0.872  0.00  0.00    +0.254 A 
ATOM     24  O   UNL     1       2.847  -9.789  -1.548  0.00  0.00    -0.268 OA
ATOM     25  C   UNL     1       2.767  -7.506  -1.462  0.00  0.00    +0.091 A 
ATOM     26  H   UNL     1       2.341  -9.773   0.854  0.00  0.00    +0.173 HD
ATOM     27  H   UNL     1       2.168  -5.781   1.197  0.00  0.00    +0.170 HD
ENDBRANCH  17  18
ENDBRANCH   4  17
TORSDOF 5
