REMARK  Name = ZINC45537878
REMARK  12 active torsions:
REMARK  status: ('A' for Active; 'I' for Inactive)
REMARK    1  A    between atoms: C_1  and  O_2
REMARK    2  A    between atoms: O_2  and  C_3
REMARK    3  A    between atoms: C_6  and  C_9
REMARK    4  A    between atoms: C_9  and  C_11
REMARK    5  A    between atoms: C_9  and  N_31
REMARK    6  A    between atoms: C_11  and  N_12
REMARK    7  A    between atoms: C_13  and  C_15
REMARK    8  A    between atoms: C_15  and  O_16
REMARK    9  A    between atoms: O_16  and  C_17
REMARK   10  A    between atoms: C_17  and  C_19
REMARK   11  A    between atoms: C_19  and  C_20
REMARK   12  A    between atoms: C_20  and  C_21
REMARK                            x       y       z     vdW  Elec       q    Type
REMARK                         _______ _______ _______ _____ _____    ______ ____
ROOT
ATOM      1  N   UNL     1       2.114  -3.712  -6.498  0.00  0.00    -0.314 N 
ATOM      2  C   UNL     1       1.400  -4.185  -7.538  0.00  0.00    +0.251 C 
ATOM      3  O   UNL     1       0.193  -4.071  -7.546  0.00  0.00    -0.272 OA
ATOM      4  H   UNL     1       3.080  -3.803  -6.491  0.00  0.00    +0.149 HD
ENDROOT
BRANCH   1   5
ATOM      5  C   UNL     1       1.432  -3.059  -5.377  0.00  0.00    +0.093 C 
BRANCH   5   6
ATOM      6  C   UNL     1       2.472  -2.501  -4.403  0.00  0.00    -0.020 C 
BRANCH   6   7
ATOM      7  N   UNL     1       1.790  -1.928  -3.235  0.00  0.00    +0.385 N 
ATOM      8  C   UNL     1       2.784  -1.342  -2.328  0.00  0.00    -0.078 C 
ATOM      9  C   UNL     1       2.074  -0.673  -1.150  0.00  0.00    -0.019 C 
ATOM     10  C   UNL     1       1.249  -1.720  -0.397  0.00  0.00    -0.004 C 
ATOM     11  C   UNL     1       0.265  -2.377  -1.370  0.00  0.00    -0.019 C 
ATOM     12  C   UNL     1       1.043  -2.983  -2.540  0.00  0.00    -0.078 C 
ATOM     13  H   UNL     1       1.151  -1.209  -3.539  0.00  0.00    -0.081 HD
ENDBRANCH   6   7
BRANCH   6  17
ATOM     14  C   UNL     1       4.759   0.539  -6.350  0.00  0.00    +0.120 A 
ATOM     15  C   UNL     1       5.274  -0.743  -6.220  0.00  0.00    +0.046 A 
ATOM     16  C   UNL     1       4.533  -1.724  -5.590  0.00  0.00    +0.005 A 
ATOM     17  C   UNL     1       3.278  -1.429  -5.090  0.00  0.00    -0.059 A 
ATOM     18  C   UNL     1       2.762  -0.153  -5.218  0.00  0.00    +0.005 A 
ATOM     19  C   UNL     1       3.502   0.833  -5.842  0.00  0.00    +0.046 A 
BRANCH  14  21
ATOM     20  C   UNL     1       6.772   1.131  -7.468  0.00  0.00    +0.277 C 
ATOM     21  O   UNL     1       5.487   1.505  -6.969  0.00  0.00    -0.495 OA
ENDBRANCH  14  21
ENDBRANCH   6  17
ENDBRANCH   5   6
ENDBRANCH   1   5
BRANCH   2  22
ATOM     22  C   UNL     1       2.101  -4.856  -8.691  0.00  0.00    +0.327 C 
BRANCH  22  23
ATOM     23  O   UNL     1       1.136  -5.268  -9.661  0.00  0.00    -0.455 OA
BRANCH  23  24
ATOM     24  C   UNL     1       1.601  -5.886 -10.758  0.00  0.00    +0.308 C 
ATOM     25  O   UNL     1       2.788  -6.071 -10.890  0.00  0.00    -0.251 OA
BRANCH  24  26
ATOM     26  C   UNL     1       0.642  -6.349 -11.825  0.00  0.00    +0.125 C 
BRANCH  26  27
ATOM     27  C   UNL     1       1.424  -7.017 -12.958  0.00  0.00    +0.048 C 
BRANCH  27  28
ATOM     28  C   UNL     1       0.466  -7.480 -14.024  0.00  0.00    -0.022 A 
ATOM     29  C   UNL     1      -0.068  -8.707 -14.141  0.00  0.00    +0.087 A 
ATOM     30  N   UNL     1      -0.893  -8.755 -15.231  0.00  0.00    -0.360 N 
ATOM     31  H   UNL     1      -1.391  -9.536 -15.519  0.00  0.00    +0.165 HD
ATOM     32  C   UNL     1      -0.911  -7.530 -15.859  0.00  0.00    +0.047 A 
ATOM     33  C   UNL     1      -0.066  -6.676 -15.127  0.00  0.00    +0.003 A 
ATOM     34  C   UNL     1       0.107  -5.351 -15.533  0.00  0.00    +0.010 A 
ATOM     35  C   UNL     1      -0.549  -4.890 -16.639  0.00  0.00    +0.001 A 
ATOM     36  C   UNL     1      -1.387  -5.727 -17.363  0.00  0.00    +0.002 A 
ATOM     37  C   UNL     1      -1.565  -7.040 -16.985  0.00  0.00    +0.026 A 
ENDBRANCH  27  28
ENDBRANCH  26  27
ENDBRANCH  24  26
ENDBRANCH  23  24
ENDBRANCH  22  23
ENDBRANCH   2  22
TORSDOF 11
