REMARK  Name = ZINC15113727
REMARK  9 active torsions:
REMARK  status: ('A' for Active; 'I' for Inactive)
REMARK    1  A    between atoms: C_1  and  N_2
REMARK    2  A    between atoms: N_2  and  C_3
REMARK    3  A    between atoms: C_3  and  C_4
REMARK    4  A    between atoms: C_4  and  C_5
REMARK    5  A    between atoms: C_5  and  C_6
REMARK    6  A    between atoms: C_7  and  C_13
REMARK    7  A    between atoms: C_8  and  N_12
REMARK    8  A    between atoms: C_18  and  C_30
REMARK    9  A    between atoms: C_22  and  C_24
REMARK                            x       y       z     vdW  Elec       q    Type
REMARK                         _______ _______ _______ _____ _____    ______ ____
ROOT
ATOM      1  C   UNL     1       4.715   7.186   1.240  0.00  0.00    +0.130 C 
ATOM      2  N   UNL     1       4.633   6.413  -0.007  0.00  0.00    -0.318 N 
ATOM      3  C   UNL     1       5.551   5.378  -0.010  0.00  0.00    +0.133 A 
ATOM      4  C   UNL     1       5.108   4.023  -0.023  0.00  0.00    +0.048 A 
ATOM      5  C   UNL     1       3.797   3.517  -0.033  0.00  0.00    +0.029 A 
ATOM      6  C   UNL     1       3.589   2.176  -0.043  0.00  0.00    +0.022 A 
ATOM      7  S   UNL     1       5.247   1.515  -0.034  0.00  0.00    -0.069 S 
ATOM      8  C   UNL     1       6.137   3.050  -0.025  0.00  0.00    +0.114 A 
ATOM      9  N   UNL     1       7.407   3.390  -0.016  0.00  0.00    -0.219 NA
ATOM     10  C   UNL     1       7.759   4.669  -0.004  0.00  0.00    +0.181 A 
ATOM     11  N   UNL     1       6.846   5.635  -0.002  0.00  0.00    -0.210 NA
ENDROOT
BRANCH  10  12
ATOM     12  C   UNL     1       9.198   5.028   0.005  0.00  0.00    +0.108 A 
ATOM     13  C   UNL     1      10.161   4.021   0.002  0.00  0.00    +0.031 A 
ATOM     14  C   UNL     1      11.501   4.372   0.010  0.00  0.00    +0.004 A 
ATOM     15  C   UNL     1      11.833   5.719   0.022  0.00  0.00    +0.020 A 
ATOM     16  C   UNL     1      10.824   6.666   0.025  0.00  0.00    +0.111 A 
ATOM     17  N   UNL     1       9.558   6.305   0.011  0.00  0.00    -0.252 NA
ENDBRANCH  10  12
BRANCH   6  18
ATOM     18  C   UNL     1       2.305   1.444  -0.055  0.00  0.00    -0.011 A 
ATOM     19  C   UNL     1       1.098   2.144  -0.054  0.00  0.00    +0.009 A 
ATOM     20  C   UNL     1      -0.096   1.454  -0.064  0.00  0.00    +0.001 A 
ATOM     21  C   UNL     1      -0.100   0.071  -0.074  0.00  0.00    +0.000 A 
ATOM     22  C   UNL     1       1.093  -0.630  -0.075  0.00  0.00    +0.001 A 
ATOM     23  C   UNL     1       2.295   0.048  -0.065  0.00  0.00    +0.009 A 
ENDBRANCH   6  18
BRANCH   2  24
ATOM     24  C   UNL     1       4.815   7.281  -1.178  0.00  0.00    +0.106 C 
BRANCH  24  25
ATOM     25  C   UNL     1       3.641   8.257  -1.276  0.00  0.00    +0.025 C 
BRANCH  25  26
ATOM     26  C   UNL     1       3.830   9.162  -2.496  0.00  0.00    +0.060 C 
BRANCH  26  27
ATOM     27  C   UNL     1       2.674  10.123  -2.593  0.00  0.00    +0.082 A 
ATOM     28  C   UNL     1       2.609  11.405  -1.999  0.00  0.00    +0.113 A 
ATOM     29  C   UNL     1       1.373  11.948  -2.339  0.00  0.00    +0.129 A 
ATOM     30  N   UNL     1       0.733  11.036  -3.099  0.00  0.00    -0.263 N 
ATOM     31  H   UNL     1      -0.180  11.140  -3.493  0.00  0.00    +0.190 HD
ATOM     32  N   UNL     1       1.563   9.918  -3.243  0.00  0.00    -0.176 NA
BRANCH  29  33
ATOM     33  N   UNL     1       0.893  13.190  -1.969  0.00  0.00    -0.342 N 
ATOM     34  H   UNL     1       1.435  13.775  -1.417  0.00  0.00    +0.144 HD
ATOM     35  H   UNL     1       0.013  13.476  -2.260  0.00  0.00    +0.144 HD
ENDBRANCH  29  33
BRANCH  28  36
ATOM     36  C   UNL     1       3.622  12.025  -1.200  0.00  0.00    +0.104 C 
ATOM     37  N   UNL     1       4.425  12.518  -0.566  0.00  0.00    -0.191 NA
ENDBRANCH  28  36
ENDBRANCH  26  27
ENDBRANCH  25  26
ENDBRANCH  24  25
ENDBRANCH   2  24
TORSDOF 8
