REMARK  Name = ZINC39656810
REMARK  7 active torsions:
REMARK  status: ('A' for Active; 'I' for Inactive)
REMARK    1  A    between atoms: C_1  and  C_2
REMARK    2  A    between atoms: C_2  and  C_4
REMARK    3  A    between atoms: C_2  and  N_11
REMARK    4  A    between atoms: C_12  and  C_14
REMARK    5  A    between atoms: C_25  and  C_27
REMARK    6  A    between atoms: C_31  and  O_33
REMARK    7  A    between atoms: O_33  and  C_34
REMARK                            x       y       z     vdW  Elec       q    Type
REMARK                         _______ _______ _______ _____ _____    ______ ____
ROOT
ATOM      1  C   UNL     1       1.305  -1.379   3.953  0.00  0.00    +0.100 C 
ATOM      2  C   UNL     1       2.317  -0.217   4.079  0.00  0.00    +0.121 C 
ATOM      3  N   UNL     1       1.700   0.712   5.054  0.00  0.00    -0.296 N 
ATOM      4  C   UNL     1       1.091  -0.175   6.074  0.00  0.00    +0.115 C 
ATOM      5  C   UNL     1       0.505  -1.350   5.266  0.00  0.00    -0.004 C 
ATOM      6  C   UNL     1       0.691  -2.659   6.026  0.00  0.00    -0.010 C 
ATOM      7  C   UNL     1      -0.160  -2.630   7.299  0.00  0.00    -0.082 C 
ATOM      8  N   UNL     1      -1.572  -2.445   6.942  0.00  0.00    +0.379 N 
ATOM      9  C   UNL     1      -1.757  -1.141   6.293  0.00  0.00    -0.082 C 
ATOM     10  C   UNL     1      -0.973  -1.107   4.978  0.00  0.00    -0.010 C 
ATOM     11  C   UNL     1       1.694   2.059   5.022  0.00  0.00    +0.247 C 
ATOM     12  O   UNL     1       2.130   2.646   4.051  0.00  0.00    -0.270 OA
ATOM     13  H   UNL     1      -1.856  -3.177   6.309  0.00  0.00    -0.086 HD
ATOM     14  H   UNL     1      -2.137  -2.487   7.777  0.00  0.00    -0.086 HD
ENDROOT
BRANCH  11  15
ATOM     15  C   UNL     1       1.158   2.824   6.169  0.00  0.00    +0.040 A 
ATOM     16  C   UNL     1       1.065   2.227   7.427  0.00  0.00    +0.013 A 
ATOM     17  C   UNL     1       0.565   2.943   8.495  0.00  0.00    +0.004 A 
ATOM     18  C   UNL     1       0.154   4.252   8.322  0.00  0.00    +0.045 A 
ATOM     19  C   UNL     1       0.242   4.855   7.075  0.00  0.00    +0.121 A 
ATOM     20  C   UNL     1       0.749   4.147   5.998  0.00  0.00    +0.058 A 
BRANCH  19  21
ATOM     21  O   UNL     1      -0.163   6.141   6.912  0.00  0.00    -0.495 OA
ATOM     22  C   UNL     1      -0.670   6.813   8.066  0.00  0.00    +0.277 C 
ENDBRANCH  19  21
ENDBRANCH  11  15
BRANCH   1  24
ATOM     23  N   UNL     1      -0.224  -2.199   2.190  0.00  0.00    -0.308 N 
ATOM     24  C   UNL     1       0.391  -1.153   2.776  0.00  0.00    +0.219 C 
ATOM     25  O   UNL     1       0.208  -0.030   2.357  0.00  0.00    -0.275 OA
ATOM     26  H   UNL     1      -0.078  -3.098   2.525  0.00  0.00    +0.149 HD
BRANCH  23  28
ATOM     27  C   UNL     1      -0.286  -1.933  -0.241  0.00  0.00    +0.033 C 
ATOM     28  C   UNL     1      -1.113  -1.980   1.046  0.00  0.00    +0.100 C 
BRANCH  28  29
ATOM     29  C   UNL     1      -2.110  -3.106   0.962  0.00  0.00    -0.027 A 
ATOM     30  C   UNL     1      -1.710  -4.404   1.218  0.00  0.00    +0.006 A 
ATOM     31  C   UNL     1      -2.624  -5.438   1.142  0.00  0.00    +0.015 A 
ATOM     32  C   UNL     1      -3.940  -5.173   0.807  0.00  0.00    +0.018 A 
ATOM     33  C   UNL     1      -4.340  -3.874   0.550  0.00  0.00    +0.015 A 
ATOM     34  C   UNL     1      -3.426  -2.841   0.632  0.00  0.00    +0.006 A 
ATOM     35 BR   UNL     1      -5.192  -6.587   0.701  0.00  0.00    -0.050 Br
ENDBRANCH  28  29
ENDBRANCH  23  28
ENDBRANCH   1  24
TORSDOF 5
