REMARK  Name = ZINC66392276
REMARK  11 active torsions:
REMARK  status: ('A' for Active; 'I' for Inactive)
REMARK    1  A    between atoms: C_1  and  C_2
REMARK    2  A    between atoms: C_4  and  C_27
REMARK    3  A    between atoms: C_6  and  N_8
REMARK    4  A    between atoms: C_9  and  C_11
REMARK    5  A    between atoms: C_11  and  C_13
REMARK    6  A    between atoms: C_11  and  N_14
REMARK    7  A    between atoms: N_14  and  C_15
REMARK    8  A    between atoms: C_18  and  N_21
REMARK    9  A    between atoms: N_21  and  C_22
REMARK   10  A    between atoms: C_23  and  O_25
REMARK   11  A    between atoms: O_25  and  C_26
REMARK                            x       y       z     vdW  Elec       q    Type
REMARK                         _______ _______ _______ _____ _____    ______ ____
ROOT
ATOM      1  C   UNL     1       0.354  -2.863   4.825  0.00  0.00    +0.154 C 
ATOM      2  C   UNL     1      -0.817  -3.839   4.958  0.00  0.00    +0.038 C 
ENDROOT
BRANCH   1   4
ATOM      3  N   UNL     1       0.164  -2.692   2.365  0.00  0.00    -0.284 N 
ATOM      4  C   UNL     1       0.200  -2.064   3.557  0.00  0.00    +0.237 C 
ATOM      5  O   UNL     1       0.110  -0.855   3.609  0.00  0.00    -0.273 OA
ATOM      6  H   UNL     1       0.162  -3.661   2.328  0.00  0.00    +0.155 HD
BRANCH   3  12
ATOM      7  C   UNL     1      -1.369  -2.193  -2.280  0.00  0.00    +0.044 C 
ATOM      8  C   UNL     1      -0.606  -1.680  -1.085  0.00  0.00    -0.048 A 
ATOM      9  C   UNL     1       0.060  -0.471  -1.158  0.00  0.00    +0.006 A 
ATOM     10  C   UNL     1       0.761   0.003  -0.064  0.00  0.00    -0.048 A 
ATOM     11  C   UNL     1       0.797  -0.731   1.105  0.00  0.00    +0.026 A 
ATOM     12  C   UNL     1       0.129  -1.946   1.182  0.00  0.00    +0.034 A 
ATOM     13  C   UNL     1      -0.579  -2.416   0.083  0.00  0.00    +0.026 A 
ATOM     14  C   UNL     1       1.486   1.321  -0.148  0.00  0.00    +0.044 C 
ENDBRANCH   3  12
ENDBRANCH   1   4
BRANCH   1  15
ATOM     15  N   UNL     1       0.366  -1.956   5.976  0.00  0.00    -0.333 N 
ATOM     16  H   UNL     1      -0.063  -1.088   5.913  0.00  0.00    +0.147 HD
BRANCH  15  17
ATOM     17  C   UNL     1       0.996  -2.341   7.164  0.00  0.00    +0.028 A 
ATOM     18  C   UNL     1       1.615  -3.581   7.251  0.00  0.00    +0.025 A 
ATOM     19  C   UNL     1       2.237  -3.961   8.424  0.00  0.00    +0.025 A 
ATOM     20  C   UNL     1       2.244  -3.103   9.515  0.00  0.00    +0.039 A 
ATOM     21  C   UNL     1       1.625  -1.863   9.428  0.00  0.00    +0.025 A 
ATOM     22  C   UNL     1       1.007  -1.481   8.254  0.00  0.00    +0.025 A 
BRANCH  20  23
ATOM     23  N   UNL     1       2.876  -3.489  10.706  0.00  0.00    -0.240 N 
ATOM     24  C   UNL     1       3.972  -2.683  11.248  0.00  0.00    +0.142 C 
ATOM     25  C   UNL     1       2.474  -4.602  11.352  0.00  0.00    +0.407 C 
ATOM     26  O   UNL     1       1.508  -5.221  10.952  0.00  0.00    -0.226 OA
BRANCH  25  27
ATOM     27  O   UNL     1       3.144  -5.027  12.440  0.00  0.00    -0.453 OA
ATOM     28  C   UNL     1       2.663  -6.214  13.074  0.00  0.00    +0.282 C 
ENDBRANCH  25  27
ENDBRANCH  20  23
ENDBRANCH  15  17
ENDBRANCH   1  15
TORSDOF 6
