REMARK  Name = ZINC03516811
REMARK  6 active torsions:
REMARK  status: ('A' for Active; 'I' for Inactive)
REMARK    1  A    between atoms: C_1  and  C_2
REMARK    2  A    between atoms: C_2  and  N_3
REMARK    3  A    between atoms: C_4  and  C_25
REMARK    4  A    between atoms: C_7  and  S_8
REMARK    5  A    between atoms: S_8  and  C_9
REMARK    6  A    between atoms: C_9  and  C_10
REMARK                            x       y       z     vdW  Elec       q    Type
REMARK                         _______ _______ _______ _____ _____    ______ ____
ROOT
ATOM      1  C   UNL     1      -1.532   3.426  -0.349  0.00  0.00    -0.019 A 
ATOM      2  C   UNL     1      -2.743   4.003  -0.091  0.00  0.00    +0.097 A 
ATOM      3  C   UNL     1      -3.776   3.242   0.485  0.00  0.00    +0.338 A 
ATOM      4  O   UNL     1      -4.812   3.780   0.827  0.00  0.00    -0.245 OA
ATOM      5  O   UNL     1      -3.621   1.920   0.657  0.00  0.00    -0.422 OA
ATOM      6  C   UNL     1      -2.438   1.320   0.401  0.00  0.00    +0.140 A 
ATOM      7  C   UNL     1      -1.315   2.087   0.040  0.00  0.00    +0.029 A 
ATOM      8  C   UNL     1      -0.017   1.417   0.010  0.00  0.00    -0.007 A 
ATOM      9  C   UNL     1       1.210   2.082   0.002  0.00  0.00    +0.009 A 
ATOM     10  C   UNL     1       2.375   1.388  -0.164  0.00  0.00    +0.001 A 
ATOM     11  C   UNL     1       2.369   0.008  -0.329  0.00  0.00    +0.001 A 
ATOM     12  C   UNL     1       1.199  -0.687  -0.264  0.00  0.00    +0.008 A 
ATOM     13  C   UNL     1       0.002  -0.004   0.002  0.00  0.00    -0.017 A 
ATOM     14  C   UNL     1      -1.171  -0.718   0.314  0.00  0.00    +0.012 A 
ATOM     15  C   UNL     1      -2.336  -0.066   0.545  0.00  0.00    +0.047 A 
ENDROOT
BRANCH   1  16
ATOM     16  C   UNL     1      -0.501   4.261  -1.065  0.00  0.00    +0.113 C 
BRANCH  16  17
ATOM     17  S   UNL     1       0.499   5.156   0.149  0.00  0.00    -0.081 S 
BRANCH  17  22
ATOM     18  N   UNL     1       2.587   6.880  -0.560  0.00  0.00    -0.302 N 
ATOM     19  C   UNL     1       3.162   7.310  -1.735  0.00  0.00    +0.171 A 
ATOM     20  N   UNL     1       2.516   6.722  -2.718  0.00  0.00    -0.128 NA
ATOM     21  N   UNL     1       1.594   5.963  -2.244  0.00  0.00    -0.122 NA
ATOM     22  C   UNL     1       1.588   6.023  -0.932  0.00  0.00    +0.192 A 
BRANCH  19  23
ATOM     23  C   UNL     1       4.287   8.250  -1.866  0.00  0.00    +0.056 A 
ATOM     24  C   UNL     1       5.082   8.501  -2.956  0.00  0.00    +0.019 A 
ATOM     25  C   UNL     1       6.083   9.439  -2.841  0.00  0.00    +0.008 A 
ATOM     26  C   UNL     1       6.261  10.077  -1.655  0.00  0.00    +0.046 A 
ATOM     27  S   UNL     1       4.978   9.354  -0.645  0.00  0.00    -0.094 S 
ENDBRANCH  19  23
BRANCH  18  29
ATOM     28  C   UNL     1       4.025   6.290   1.327  0.00  0.00    +0.027 C 
ATOM     29  C   UNL     1       2.965   7.260   0.803  0.00  0.00    +0.122 C 
ENDBRANCH  18  29
ENDBRANCH  17  22
ENDBRANCH  16  17
ENDBRANCH   1  16
TORSDOF 5
