REMARK  Name = ZINC40985183
REMARK  12 active torsions:
REMARK  status: ('A' for Active; 'I' for Inactive)
REMARK    1  A    between atoms: C_1  and  C_2
REMARK    2  A    between atoms: C_3  and  C_17
REMARK    3  A    between atoms: C_5  and  C_7
REMARK    4  A    between atoms: C_10  and  O_13
REMARK    5  A    between atoms: O_13  and  C_14
REMARK    6  A    between atoms: C_14  and  C_15
REMARK    7  A    between atoms: C_14  and  C_16
REMARK    8  A    between atoms: C_17  and  N_18
REMARK    9  A    between atoms: C_21  and  C_24
REMARK   10  A    between atoms: N_26  and  C_27
REMARK   11  A    between atoms: C_27  and  C_29
REMARK   12  A    between atoms: C_27  and  C_30
REMARK                            x       y       z     vdW  Elec       q    Type
REMARK                         _______ _______ _______ _____ _____    ______ ____
ROOT
ATOM      1  N   UNL     1      -3.164  -0.362  -0.993  0.00  0.00    +0.383 N 
ATOM      2  C   UNL     1      -3.235  -1.734  -1.510  0.00  0.00    -0.078 C 
ATOM      3  C   UNL     1      -3.865  -1.726  -2.905  0.00  0.00    -0.006 C 
ATOM      4  C   UNL     1      -5.276  -1.138  -2.818  0.00  0.00    +0.071 C 
ATOM      5  C   UNL     1      -5.197   0.265  -2.209  0.00  0.00    -0.006 C 
ATOM      6  C   UNL     1      -4.518   0.183  -0.840  0.00  0.00    -0.078 C 
ATOM      7  H   UNL     1      -2.643   0.212  -1.639  0.00  0.00    -0.081 HD
ENDROOT
BRANCH   4   8
ATOM      8  C   UNL     1      -5.873  -1.054  -4.199  0.00  0.00    +0.216 C 
ATOM      9  O   UNL     1      -5.233  -1.428  -5.160  0.00  0.00    -0.276 OA
ATOM     10  N   UNL     1      -7.117  -0.564  -4.368  0.00  0.00    -0.309 N 
ATOM     11  H   UNL     1      -7.628  -0.265  -3.599  0.00  0.00    +0.149 HD
BRANCH  10  12
ATOM     12  C   UNL     1      -7.697  -0.483  -5.710  0.00  0.00    +0.100 C 
ATOM     13  C   UNL     1      -7.252   0.818  -6.381  0.00  0.00    +0.033 C 
BRANCH  12  14
ATOM     14  C   UNL     1      -9.200  -0.508  -5.611  0.00  0.00    -0.027 A 
ATOM     15  C   UNL     1      -9.838   0.194  -4.604  0.00  0.00    +0.008 A 
ATOM     16  C   UNL     1     -11.216   0.172  -4.512  0.00  0.00    +0.038 A 
ATOM     17  C   UNL     1     -11.960  -0.554  -5.428  0.00  0.00    +0.123 A 
ATOM     18  C   UNL     1     -11.320  -1.256  -6.435  0.00  0.00    +0.038 A 
ATOM     19  C   UNL     1      -9.942  -1.229  -6.529  0.00  0.00    +0.008 A 
ATOM     20  F   UNL     1     -13.307  -0.576  -5.338  0.00  0.00    -0.205 F 
ENDBRANCH  12  14
ENDBRANCH  10  12
ENDBRANCH   4   8
BRANCH   1  21
ATOM     21  C   UNL     1      -2.489  -0.366   0.311  0.00  0.00    -0.019 C 
BRANCH  21  24
ATOM     22  C   UNL     1      -0.039   1.490  -0.260  0.00  0.00    +0.088 C 
ATOM     23  C   UNL     1      -0.006  -0.009  -0.110  0.00  0.00    +0.124 A 
ATOM     24  C   UNL     1      -1.059  -0.809   0.136  0.00  0.00    +0.066 A 
ATOM     25  N   UNL     1      -0.611  -2.073   0.197  0.00  0.00    -0.216 NA
ATOM     26  C   UNL     1       0.686  -2.067  -0.004  0.00  0.00    +0.228 A 
ATOM     27  O   UNL     1       1.083  -0.798  -0.203  0.00  0.00    -0.440 OA
BRANCH  26  28
ATOM     28  C   UNL     1       1.563  -3.257  -0.016  0.00  0.00    +0.037 A 
ATOM     29  C   UNL     1       1.021  -4.527   0.193  0.00  0.00    +0.017 A 
ATOM     30  C   UNL     1       1.842  -5.634   0.181  0.00  0.00    +0.046 A 
ATOM     31  C   UNL     1       3.206  -5.488  -0.039  0.00  0.00    +0.121 A 
ATOM     32  C   UNL     1       3.748  -4.226  -0.248  0.00  0.00    +0.046 A 
ATOM     33  C   UNL     1       2.933  -3.115  -0.243  0.00  0.00    +0.017 A 
BRANCH  31  34
ATOM     34  O   UNL     1       4.011  -6.582  -0.050  0.00  0.00    -0.489 OA
BRANCH  34  35
ATOM     35  C   UNL     1       3.375  -7.857   0.052  0.00  0.00    +0.167 C 
ATOM     36  C   UNL     1       4.271  -8.926  -0.576  0.00  0.00    +0.051 C 
ATOM     37  C   UNL     1       3.137  -8.192   1.526  0.00  0.00    +0.051 C 
ENDBRANCH  34  35
ENDBRANCH  31  34
ENDBRANCH  26  28
ENDBRANCH  21  24
ENDBRANCH   1  21
TORSDOF 8
