REMARK  Name = ZINC35887061
REMARK  6 active torsions:
REMARK  status: ('A' for Active; 'I' for Inactive)
REMARK    1  A    between atoms: C_2  and  C_3
REMARK    2  A    between atoms: C_3  and  N_4
REMARK    3  A    between atoms: C_9  and  C_24
REMARK    4  A    between atoms: C_11  and  C_14
REMARK    5  A    between atoms: C_18  and  C_20
REMARK    6  A    between atoms: C_24  and  N_25
REMARK                            x       y       z     vdW  Elec       q    Type
REMARK                         _______ _______ _______ _____ _____    ______ ____
ROOT
ATOM      1  N   UNL     1      -0.925  -1.282  -1.660  0.00  0.00    -0.296 N 
ATOM      2  C   UNL     1      -1.917  -2.187  -1.530  0.00  0.00    +0.302 C 
ATOM      3  O   UNL     1      -2.669  -2.132  -0.577  0.00  0.00    -0.253 OA
ATOM      4  N   UNL     1      -2.074  -3.151  -2.458  0.00  0.00    -0.285 N 
ATOM      5  C   UNL     1      -3.098  -4.221  -2.492  0.00  0.00    +0.111 C 
ATOM      6  C   UNL     1      -3.499  -4.330  -3.979  0.00  0.00    -0.001 C 
ATOM      7  C   UNL     1      -2.288  -3.777  -4.759  0.00  0.00    +0.039 C 
ATOM      8  C   UNL     1      -1.266  -3.379  -3.679  0.00  0.00    +0.117 C 
ATOM      9  H   UNL     1      -0.325  -1.326  -2.421  0.00  0.00    +0.151 HD
ENDROOT
BRANCH   7  10
ATOM     10  C   UNL     1      -1.717  -4.840  -5.662  0.00  0.00    -0.042 A 
ATOM     11  C   UNL     1      -1.917  -4.767  -7.028  0.00  0.00    +0.004 A 
ATOM     12  C   UNL     1      -1.394  -5.742  -7.857  0.00  0.00    +0.001 A 
ATOM     13  C   UNL     1      -0.669  -6.790  -7.319  0.00  0.00    +0.012 A 
ATOM     14  C   UNL     1      -0.468  -6.862  -5.954  0.00  0.00    +0.055 A 
ATOM     15  C   UNL     1      -0.988  -5.885  -5.126  0.00  0.00    +0.016 A 
BRANCH  14  16
ATOM     16  C   UNL     1       0.322  -8.004  -5.368  0.00  0.00    +0.417 C 
ATOM     17  F   UNL     1       0.743  -8.855  -6.395  0.00  0.00    -0.166 F 
ATOM     18  F   UNL     1       1.438  -7.501  -4.692  0.00  0.00    -0.166 F 
ATOM     19  F   UNL     1      -0.483  -8.717  -4.473  0.00  0.00    -0.166 F 
ENDBRANCH  14  16
ENDBRANCH   7  10
BRANCH   1  20
ATOM     20  C   UNL     1      -0.754  -0.234  -0.651  0.00  0.00    +0.132 C 
BRANCH  20  22
ATOM     21  C   UNL     1       0.256   1.935  -1.140  0.00  0.00    +0.005 C 
ATOM     22  C   UNL     1       0.415   0.639  -1.028  0.00  0.00    -0.016 C 
ENDBRANCH  20  22
ENDBRANCH   1  20
BRANCH   6  23
ATOM     23  C   UNL     1      -3.755  -5.791  -4.356  0.00  0.00    -0.073 C 
BRANCH  23  24
ATOM     24  N   UNL     1      -4.929  -6.286  -3.625  0.00  0.00    +0.383 N 
ATOM     25  C   UNL     1      -5.113  -7.719  -3.902  0.00  0.00    -0.074 C 
ATOM     26  C   UNL     1      -6.134  -8.280  -2.911  0.00  0.00    +0.017 C 
ATOM     27  C   UNL     1      -7.371  -7.418  -2.910  0.00  0.00    -0.048 A 
ATOM     28  C   UNL     1      -8.535  -7.928  -2.357  0.00  0.00    +0.004 A 
ATOM     29  C   UNL     1      -9.687  -7.167  -2.335  0.00  0.00    +0.000 A 
ATOM     30  C   UNL     1      -9.678  -5.891  -2.868  0.00  0.00    +0.000 A 
ATOM     31  C   UNL     1      -8.520  -5.384  -3.421  0.00  0.00    +0.002 A 
ATOM     32  C   UNL     1      -7.362  -6.148  -3.445  0.00  0.00    -0.061 A 
ATOM     33  C   UNL     1      -6.123  -5.558  -4.065  0.00  0.00    -0.043 C 
ATOM     34  H   UNL     1      -4.795  -6.146  -2.635  0.00  0.00    -0.081 HD
ENDBRANCH  23  24
ENDBRANCH   6  23
TORSDOF 6
