REMARK  Name = ZINC14361117
REMARK  10 active torsions:
REMARK  status: ('A' for Active; 'I' for Inactive)
REMARK    1  A    between atoms: C_1  and  C_2
REMARK    2  A    between atoms: C_5  and  C_33
REMARK    3  A    between atoms: N_8  and  S_10
REMARK    4  A    between atoms: S_10  and  C_13
REMARK    5  A    between atoms: C_16  and  C_19
REMARK    6  A    between atoms: C_19  and  O_21
REMARK    7  A    between atoms: O_21  and  C_22
REMARK    8  A    between atoms: C_22  and  C_23
REMARK    9  A    between atoms: N_25  and  C_26
REMARK   10  A    between atoms: C_26  and  C_27
REMARK                            x       y       z     vdW  Elec       q    Type
REMARK                         _______ _______ _______ _____ _____    ______ ____
ROOT
ATOM      1  C   UNL     1      -0.231  13.990  -4.392  0.00  0.00    +0.106 A 
ATOM      2  C   UNL     1      -0.232  13.246  -5.558  0.00  0.00    +0.029 A 
ATOM      3  C   UNL     1      -0.212  11.868  -5.501  0.00  0.00    +0.017 A 
ATOM      4  C   UNL     1      -0.191  11.224  -4.262  0.00  0.00    +0.059 A 
ATOM      5  C   UNL     1      -0.196  11.981  -3.089  0.00  0.00    +0.017 A 
ATOM      6  C   UNL     1      -0.211  13.359  -3.161  0.00  0.00    +0.029 A 
ENDROOT
BRANCH   1   7
ATOM      7  S   UNL     1      -0.255  15.750  -4.474  0.00  0.00    +0.061 S 
ATOM      8  O   UNL     1       0.301  16.222  -3.255  0.00  0.00    -0.153 OA
ATOM      9  O   UNL     1       0.279  16.105  -5.742  0.00  0.00    -0.153 OA
BRANCH   7  15
ATOM     10  C   UNL     1      -3.490  14.049  -5.601  0.00  0.00    +0.009 C 
ATOM     11  C   UNL     1      -3.854  15.533  -5.684  0.00  0.00    +0.002 C 
ATOM     12  C   UNL     1      -4.658  15.931  -4.444  0.00  0.00    +0.009 C 
ATOM     13  C   UNL     1      -3.832  15.649  -3.187  0.00  0.00    +0.002 C 
ATOM     14  C   UNL     1      -2.551  16.488  -3.223  0.00  0.00    +0.112 C 
ATOM     15  N   UNL     1      -1.844  16.218  -4.482  0.00  0.00    -0.176 NA
ATOM     16  C   UNL     1      -2.572  16.376  -5.749  0.00  0.00    +0.112 C 
ATOM     17  C   UNL     1      -4.649  16.018  -1.946  0.00  0.00    +0.009 C 
ENDBRANCH   7  15
ENDBRANCH   1   7
BRANCH   4  18
ATOM     18  C   UNL     1      -0.171   9.749  -4.193  0.00  0.00    +0.340 C 
ATOM     19  O   UNL     1      -0.171   9.093  -5.215  0.00  0.00    -0.245 OA
BRANCH  18  20
ATOM     20  O   UNL     1      -0.151   9.131  -2.996  0.00  0.00    -0.452 OA
BRANCH  20  21
ATOM     21  C   UNL     1      -0.131   7.679  -3.004  0.00  0.00    +0.328 C 
BRANCH  21  22
ATOM     22  C   UNL     1      -0.111   7.169  -1.586  0.00  0.00    +0.251 C 
ATOM     23  O   UNL     1      -0.113   7.952  -0.660  0.00  0.00    -0.272 OA
ATOM     24  N   UNL     1      -0.090   5.843  -1.347  0.00  0.00    -0.308 N 
ATOM     25  H   UNL     1      -0.088   5.133  -2.187  0.00  0.00    +0.149 HD
BRANCH  24  26
ATOM     26  C   UNL     1      -0.070   5.347   0.031  0.00  0.00    +0.139 C 
BRANCH  26  27
ATOM     27  C   UNL     1      -0.050   3.840   0.023  0.00  0.00    -0.030 A 
ATOM     28  C   UNL     1       1.156   3.165   0.008  0.00  0.00    +0.005 A 
ATOM     29  C   UNL     1       1.175   1.783   0.000  0.00  0.00    +0.000 A 
ATOM     30  C   UNL     1      -0.013   1.076   0.008  0.00  0.00    +0.000 A 
ATOM     31  C   UNL     1      -1.219   1.751   0.017  0.00  0.00    +0.000 A 
ATOM     32  C   UNL     1      -1.238   3.133   0.030  0.00  0.00    +0.005 A 
ENDBRANCH  26  27
ENDBRANCH  24  26
ENDBRANCH  21  22
ENDBRANCH  20  21
ENDBRANCH  18  20
ENDBRANCH   4  18
TORSDOF 8
