REMARK  Name = ZINC34294307
REMARK  8 active torsions:
REMARK  status: ('A' for Active; 'I' for Inactive)
REMARK    1  A    between atoms: C_1  and  C_2
REMARK    2  A    between atoms: C_2  and  C_4
REMARK    3  A    between atoms: C_10  and  O_34
REMARK    4  A    between atoms: C_22  and  O_32
REMARK    5  A    between atoms: C_23  and  O_30
REMARK    6  A    between atoms: C_27  and  O_29
REMARK    7  A    between atoms: O_30  and  C_31
REMARK    8  A    between atoms: O_32  and  C_33
REMARK                            x       y       z     vdW  Elec       q    Type
REMARK                         _______ _______ _______ _____ _____    ______ ____
ROOT
ATOM      1  C   UNL     1      -0.000  -0.750  -1.307  0.00  0.00    +0.203 C 
ATOM      2  C   UNL     1      -1.299  -0.460  -2.101  0.00  0.00    +0.091 C 
ATOM      3  C   UNL     1      -0.794  -0.415  -3.517  0.00  0.00    +0.041 A 
ATOM      4  C   UNL     1       0.603  -0.303  -3.455  0.00  0.00    +0.132 A 
ATOM      5  C   UNL     1       1.366  -0.248  -4.626  0.00  0.00    +0.092 A 
ATOM      6  C   UNL     1       0.694  -0.298  -5.838  0.00  0.00    +0.134 A 
ATOM      7  C   UNL     1      -0.704  -0.396  -5.894  0.00  0.00    +0.102 A 
ATOM      8  C   UNL     1      -1.476  -0.472  -4.713  0.00  0.00    +0.142 A 
ATOM      9  O   UNL     1      -2.815  -0.606  -4.760  0.00  0.00    -0.480 OA
ATOM     10  C   UNL     1      -3.528  -0.199  -5.930  0.00  0.00    +0.256 C 
ATOM     11  C   UNL     1      -2.850  -0.777  -7.178  0.00  0.00    +0.141 C 
ATOM     12  C   UNL     1      -1.403  -0.418  -7.183  0.00  0.00    +0.181 C 
ATOM     13  O   UNL     1      -0.830  -0.140  -8.216  0.00  0.00    -0.291 OA
ATOM     14  C   UNL     1      -2.971  -2.276  -7.174  0.00  0.00    +0.012 A 
ATOM     15  C   UNL     1      -2.100  -3.024  -7.950  0.00  0.00    +0.057 A 
ATOM     16  C   UNL     1      -2.191  -4.405  -7.971  0.00  0.00    +0.162 A 
ATOM     17  C   UNL     1      -3.163  -5.046  -7.208  0.00  0.00    +0.165 A 
ATOM     18  C   UNL     1      -4.032  -4.299  -6.432  0.00  0.00    +0.095 A 
ATOM     19  C   UNL     1      -3.937  -2.912  -6.411  0.00  0.00    +0.132 A 
ATOM     20  O   UNL     1      -4.800  -2.215  -5.626  0.00  0.00    -0.460 OA
ATOM     21  C   UNL     1      -4.950  -0.781  -5.845  0.00  0.00    +0.347 C 
ATOM     22  O   UNL     1       1.036  -0.255  -2.177  0.00  0.00    -0.484 OA
ENDROOT
BRANCH   1  24
ATOM     23  C   UNL     1      -0.018   1.503   0.010  0.00  0.00    +0.042 C 
ATOM     24  C   UNL     1       0.002  -0.004   0.002  0.00  0.00    -0.040 C 
ATOM     25  C   UNL     1       0.022  -0.665   1.133  0.00  0.00    +0.011 C 
ENDBRANCH   1  24
BRANCH  21  26
ATOM     26  O   UNL     1      -5.641  -0.549  -7.075  0.00  0.00    -0.355 OA
ATOM     27  H   UNL     1      -6.545  -0.891  -7.089  0.00  0.00    +0.214 HD
ENDBRANCH  21  26
BRANCH  17  28
ATOM     28  O   UNL     1      -3.259  -6.402  -7.226  0.00  0.00    -0.491 OA
ATOM     29  C   UNL     1      -4.281  -6.991  -6.419  0.00  0.00    +0.277 C 
ENDBRANCH  17  28
BRANCH  16  30
ATOM     30  O   UNL     1      -1.333  -5.134  -8.734  0.00  0.00    -0.491 OA
ATOM     31  C   UNL     1      -0.361  -4.408  -9.490  0.00  0.00    +0.277 C 
ENDBRANCH  16  30
BRANCH   6  32
ATOM     32  O   UNL     1       1.403  -0.249  -6.993  0.00  0.00    -0.506 OA
ATOM     33  H   UNL     1       1.671  -1.116  -7.327  0.00  0.00    +0.292 HD
ENDBRANCH   6  32
TORSDOF 5
