REMARK  Name = ZINC29708539
REMARK  10 active torsions:
REMARK  status: ('A' for Active; 'I' for Inactive)
REMARK    1  A    between atoms: C_1  and  O_2
REMARK    2  A    between atoms: O_2  and  C_3
REMARK    3  A    between atoms: C_3  and  C_5
REMARK    4  A    between atoms: C_8  and  O_12
REMARK    5  A    between atoms: O_12  and  C_13
REMARK    6  A    between atoms: C_13  and  C_14
REMARK    7  A    between atoms: N_16  and  C_17
REMARK    8  A    between atoms: C_22  and  S_23
REMARK    9  A    between atoms: S_23  and  C_24
REMARK   10  A    between atoms: C_24  and  C_25
REMARK                            x       y       z     vdW  Elec       q    Type
REMARK                         _______ _______ _______ _____ _____    ______ ____
ROOT
ATOM      1  C   UNL     1      -0.018   1.503   0.006  0.00  0.00    +0.255 C 
ATOM      2  O   UNL     1       1.024   2.124   0.004  0.00  0.00    -0.272 OA
ATOM      3  N   UNL     1      -1.195   2.161   0.019  0.00  0.00    -0.282 N 
ATOM      4  H   UNL     1      -2.138   1.601  -0.059  0.00  0.00    +0.155 HD
ENDROOT
BRANCH   3   5
ATOM      5  C   UNL     1      -1.215   3.557   0.133  0.00  0.00    +0.047 A 
ATOM      6  C   UNL     1      -0.218   4.318  -0.458  0.00  0.00    +0.024 A 
ATOM      7  C   UNL     1      -0.243   5.696  -0.349  0.00  0.00    +0.002 A 
ATOM      8  C   UNL     1      -1.256   6.320   0.357  0.00  0.00    +0.001 A 
ATOM      9  C   UNL     1      -2.251   5.570   0.954  0.00  0.00    +0.016 A 
ATOM     10  C   UNL     1      -2.237   4.186   0.846  0.00  0.00    +0.030 A 
BRANCH  10  11
ATOM     11  S   UNL     1      -3.504   3.227   1.606  0.00  0.00    -0.108 S 
BRANCH  11  12
ATOM     12  C   UNL     1      -4.575   4.461   2.394  0.00  0.00    +0.192 C 
BRANCH  12  13
ATOM     13  C   UNL     1      -5.689   3.781   3.074  0.00  0.00    +0.074 C 
ATOM     14  N   UNL     1      -6.549   3.256   3.599  0.00  0.00    -0.196 NA
ENDBRANCH  12  13
ENDBRANCH  11  12
ENDBRANCH  10  11
ENDBRANCH   3   5
BRANCH   1  15
ATOM     15  C   UNL     1       0.003  -0.004  -0.013  0.00  0.00    +0.324 C 
BRANCH  15  16
ATOM     16  O   UNL     1       1.356  -0.461  -0.031  0.00  0.00    -0.482 OA
BRANCH  16  20
ATOM     17  C   UNL     1       1.953  -4.546  -0.089  0.00  0.00    +0.060 A 
ATOM     18  C   UNL     1       0.655  -4.027  -0.070  0.00  0.00    +0.018 A 
ATOM     19  C   UNL     1       0.461  -2.664  -0.051  0.00  0.00    +0.047 A 
ATOM     20  C   UNL     1       1.553  -1.804  -0.050  0.00  0.00    +0.135 A 
ATOM     21  C   UNL     1       2.846  -2.315  -0.074  0.00  0.00    +0.060 A 
ATOM     22  C   UNL     1       3.049  -3.678  -0.088  0.00  0.00    +0.034 A 
ATOM     23 BR   UNL     1       4.326  -1.139  -0.081  0.00  0.00    -0.046 Br
BRANCH  17  24
ATOM     24  C   UNL     1       2.166  -6.005  -0.109  0.00  0.00    +0.339 C 
ATOM     25  O   UNL     1       1.212  -6.758  -0.109  0.00  0.00    -0.245 OA
BRANCH  24  27
ATOM     26  C   UNL     1       3.552  -7.949  -0.146  0.00  0.00    +0.280 C 
ATOM     27  O   UNL     1       3.418  -6.503  -0.127  0.00  0.00    -0.464 OA
ENDBRANCH  24  27
ENDBRANCH  17  24
ENDBRANCH  16  20
ENDBRANCH  15  16
ENDBRANCH   1  15
TORSDOF 9
