REMARK  Name = ZINC36497917
REMARK  9 active torsions:
REMARK  status: ('A' for Active; 'I' for Inactive)
REMARK    1  A    between atoms: C_4  and  O_37
REMARK    2  A    between atoms: C_5  and  C_7
REMARK    3  A    between atoms: N_9  and  C_10
REMARK    4  A    between atoms: N_9  and  C_16
REMARK    5  A    between atoms: C_10  and  C_11
REMARK    6  A    between atoms: C_16  and  C_18
REMARK    7  A    between atoms: C_16  and  C_28
REMARK    8  A    between atoms: C_20  and  N_25
REMARK    9  A    between atoms: N_30  and  C_31
REMARK                            x       y       z     vdW  Elec       q    Type
REMARK                         _______ _______ _______ _____ _____    ______ ____
ROOT
ATOM      1  C   UNL     1       0.398  -3.740   0.672  0.00  0.00    +0.194 C 
ENDROOT
BRANCH   1   2
ATOM      2  C   UNL     1       0.284  -3.756   2.175  0.00  0.00    +0.002 A 
ATOM      3  C   UNL     1      -0.635  -2.939   2.806  0.00  0.00    +0.040 A 
ATOM      4  C   UNL     1      -0.739  -2.952   4.185  0.00  0.00    +0.127 A 
ATOM      5  C   UNL     1       0.075  -3.782   4.932  0.00  0.00    +0.034 A 
ATOM      6  C   UNL     1       0.994  -4.600   4.301  0.00  0.00    +0.022 A 
ATOM      7  C   UNL     1       1.095  -4.591   2.921  0.00  0.00    +0.047 A 
ATOM      8 CL   UNL     1       2.244  -5.623   2.128  0.00  0.00    -0.083 Cl
BRANCH   4   9
ATOM      9  N   UNL     1      -1.723  -2.076   4.861  0.00  0.00    +0.056 N 
ATOM     10  O   UNL     1      -2.435  -1.350   4.207  0.00  0.00    -0.126 OA
ATOM     11  O   UNL     1      -1.814  -2.088   6.066  0.00  0.00    -0.126 OA
ENDBRANCH   4   9
ENDBRANCH   1   2
BRANCH   1  12
ATOM     12  C   UNL     1      -0.168  -5.020   0.112  0.00  0.00    +0.238 C 
ATOM     13  O   UNL     1      -0.839  -4.996  -0.898  0.00  0.00    -0.273 OA
ATOM     14  N   UNL     1       0.071  -6.192   0.735  0.00  0.00    -0.311 N 
ATOM     15  H   UNL     1       0.607  -6.211   1.543  0.00  0.00    +0.149 HD
BRANCH  14  16
ATOM     16  C   UNL     1      -0.479  -7.436   0.191  0.00  0.00    +0.073 C 
ATOM     17  C   UNL     1      -1.910  -7.626   0.699  0.00  0.00    +0.022 C 
ATOM     18  C   UNL     1      -2.484  -8.925   0.131  0.00  0.00    +0.002 C 
ATOM     19  C   UNL     1      -1.621 -10.105   0.583  0.00  0.00    +0.000 C 
ATOM     20  C   UNL     1      -0.191  -9.915   0.075  0.00  0.00    +0.002 C 
ATOM     21  C   UNL     1       0.384  -8.616   0.643  0.00  0.00    +0.022 C 
ENDBRANCH  14  16
ENDBRANCH   1  12
BRANCH   1  24
ATOM     22  C   UNL     1       0.257  -1.407  -0.015  0.00  0.00    +0.251 C 
ATOM     23  O   UNL     1      -0.409  -0.402  -0.170  0.00  0.00    -0.270 OA
ATOM     24  N   UNL     1      -0.350  -2.600   0.137  0.00  0.00    -0.274 N 
BRANCH  22  29
ATOM     25  C   UNL     1       3.841  -2.012   0.919  0.00  0.00    +0.001 A 
ATOM     26  C   UNL     1       4.498  -1.159   0.047  0.00  0.00    +0.004 A 
ATOM     27  C   UNL     1       3.783  -0.386  -0.845  0.00  0.00    +0.046 A 
ATOM     28  C   UNL     1       2.398  -0.459  -0.874  0.00  0.00    +0.129 A 
ATOM     29  C   UNL     1       1.730  -1.321   0.006  0.00  0.00    +0.078 A 
ATOM     30  C   UNL     1       2.466  -2.098   0.904  0.00  0.00    +0.017 A 
BRANCH  28  31
ATOM     31  O   UNL     1       1.694   0.300  -1.750  0.00  0.00    -0.506 OA
ATOM     32  H   UNL     1       1.536  -0.127  -2.603  0.00  0.00    +0.292 HD
ENDBRANCH  28  31
ENDBRANCH  22  29
BRANCH  24  33
ATOM     33  C   UNL     1      -1.759  -2.758  -0.233  0.00  0.00    +0.183 C 
BRANCH  33  34
ATOM     34  C   UNL     1      -1.920  -2.520  -1.712  0.00  0.00    +0.122 A 
ATOM     35  C   UNL     1      -2.336  -3.427  -2.614  0.00  0.00    +0.046 A 
ATOM     36  C   UNL     1      -2.339  -2.782  -3.872  0.00  0.00    +0.041 A 
ATOM     37  C   UNL     1      -1.925  -1.519  -3.664  0.00  0.00    +0.195 A 
ATOM     38  O   UNL     1      -1.679  -1.365  -2.353  0.00  0.00    -0.466 OA
ENDBRANCH  33  34
ENDBRANCH  24  33
ENDBRANCH   1  24
TORSDOF 9
