REMARK  Name = ZINC39678325
REMARK  8 active torsions:
REMARK  status: ('A' for Active; 'I' for Inactive)
REMARK    1  A    between atoms: C_1  and  C_2
REMARK    2  A    between atoms: C_2  and  C_3
REMARK    3  A    between atoms: C_3  and  C_5
REMARK    4  A    between atoms: C_3  and  C_11
REMARK    5  A    between atoms: C_15  and  C_24
REMARK    6  A    between atoms: N_26  and  C_27
REMARK    7  A    between atoms: C_27  and  C_28
REMARK    8  A    between atoms: C_33  and  N_34
REMARK                            x       y       z     vdW  Elec       q    Type
REMARK                         _______ _______ _______ _____ _____    ______ ____
ROOT
ATOM      1  C   UNL     1       1.983  -0.731  -0.434  0.00  0.00    +0.223 C 
ATOM      2  O   UNL     1       0.913  -1.231  -0.158  0.00  0.00    -0.275 OA
ATOM      3  N   UNL     1       2.065   0.591  -0.682  0.00  0.00    -0.300 N 
ATOM      4  C   UNL     1       0.959   1.575  -0.736  0.00  0.00    +0.121 C 
ATOM      5  C   UNL     1       1.531   2.842  -0.061  0.00  0.00    +0.100 C 
ATOM      6  C   UNL     1       3.056   2.715  -0.215  0.00  0.00    -0.004 C 
ATOM      7  C   UNL     1       3.284   1.390  -0.957  0.00  0.00    +0.115 C 
ATOM      8  C   UNL     1       3.603   3.881  -1.032  0.00  0.00    -0.010 C 
ATOM      9  C   UNL     1       5.128   3.763  -1.122  0.00  0.00    -0.082 C 
ATOM     10  N   UNL     1       5.702   3.774   0.229  0.00  0.00    +0.379 N 
ATOM     11  C   UNL     1       5.242   2.599   0.978  0.00  0.00    -0.082 C 
ATOM     12  C   UNL     1       3.723   2.667   1.157  0.00  0.00    -0.010 C 
ATOM     13  H   UNL     1       6.709   3.758   0.165  0.00  0.00    -0.086 HD
ATOM     14  H   UNL     1       5.411   4.612   0.710  0.00  0.00    -0.086 HD
ENDROOT
BRANCH   5  15
ATOM     15  C   UNL     1       1.149   2.877   1.397  0.00  0.00    +0.218 C 
ATOM     16  O   UNL     1       0.988   1.841   2.006  0.00  0.00    -0.275 OA
ATOM     17  N   UNL     1       0.987   4.060   2.022  0.00  0.00    -0.311 N 
ATOM     18  H   UNL     1       1.040   4.887   1.518  0.00  0.00    +0.149 HD
BRANCH  17  19
ATOM     19  C   UNL     1       0.730   4.097   3.464  0.00  0.00    +0.141 C 
BRANCH  19  20
ATOM     20  C   UNL     1       0.466   5.517   3.892  0.00  0.00    -0.009 A 
ATOM     21  C   UNL     1       1.438   6.228   4.569  0.00  0.00    +0.007 A 
ATOM     22  C   UNL     1       1.196   7.531   4.961  0.00  0.00    +0.000 A 
ATOM     23  C   UNL     1      -0.019   8.128   4.678  0.00  0.00    +0.002 A 
ATOM     24  C   UNL     1      -0.995   7.424   4.001  0.00  0.00    +0.023 A 
ATOM     25  C   UNL     1      -0.753   6.116   3.600  0.00  0.00    +0.034 A 
BRANCH  25  26
ATOM     26  N   UNL     1      -1.736   5.402   2.910  0.00  0.00    -0.330 N 
ATOM     27  C   UNL     1      -2.724   4.593   3.639  0.00  0.00    +0.105 C 
ATOM     28  C   UNL     1      -4.128   5.015   3.197  0.00  0.00    +0.019 C 
ATOM     29  C   UNL     1      -4.232   4.912   1.673  0.00  0.00    +0.003 C 
ATOM     30  C   UNL     1      -3.218   5.858   1.026  0.00  0.00    +0.019 C 
ATOM     31  C   UNL     1      -1.807   5.451   1.444  0.00  0.00    +0.105 C 
ENDBRANCH  25  26
ENDBRANCH  19  20
ENDBRANCH  17  19
ENDBRANCH   5  15
BRANCH   1  32
ATOM     32  C   UNL     1       3.221  -1.589  -0.499  0.00  0.00    +0.105 C 
BRANCH  32  33
ATOM     33  C   UNL     1       3.085  -2.741   0.462  0.00  0.00    -0.036 A 
ATOM     34  C   UNL     1       2.050  -3.646   0.314  0.00  0.00    +0.004 A 
ATOM     35  C   UNL     1       1.925  -4.703   1.195  0.00  0.00    +0.000 A 
ATOM     36  C   UNL     1       2.835  -4.857   2.224  0.00  0.00    +0.000 A 
ATOM     37  C   UNL     1       3.871  -3.953   2.371  0.00  0.00    +0.000 A 
ATOM     38  C   UNL     1       3.998  -2.898   1.487  0.00  0.00    +0.004 A 
ENDBRANCH  32  33
BRANCH  32  40
ATOM     39  C   UNL     1       3.611  -0.960  -2.886  0.00  0.00    +0.005 C 
ATOM     40  C   UNL     1       3.393  -2.127  -1.921  0.00  0.00    +0.014 C 
ENDBRANCH  32  40
ENDBRANCH   1  32
TORSDOF 7
