REMARK  Name = ZINC14473443
REMARK  7 active torsions:
REMARK  status: ('A' for Active; 'I' for Inactive)
REMARK    1  A    between atoms: C_1  and  C_2
REMARK    2  A    between atoms: C_2  and  C_3
REMARK    3  A    between atoms: C_2  and  C_4
REMARK    4  A    between atoms: C_4  and  C_5
REMARK    5  A    between atoms: N_7  and  C_8
REMARK    6  A    between atoms: C_21  and  C_24
REMARK    7  A    between atoms: C_26  and  N_31
REMARK                            x       y       z     vdW  Elec       q    Type
REMARK                         _______ _______ _______ _____ _____    ______ ____
ROOT
ATOM      1  C   UNL     1      -0.015   1.388   0.004  0.00  0.00    +0.034 A 
ATOM      2  C   UNL     1       1.179   2.098  -0.012  0.00  0.00    +0.025 A 
ATOM      3  C   UNL     1       2.383   1.427  -0.026  0.00  0.00    +0.025 A 
ATOM      4  C   UNL     1       2.414   0.037  -0.023  0.00  0.00    +0.031 A 
ATOM      5  C   UNL     1       1.210  -0.675  -0.018  0.00  0.00    -0.018 A 
ATOM      6  C   UNL     1       0.008  -0.000  -0.003  0.00  0.00    +0.029 A 
ATOM      7  C   UNL     1       1.289  -2.152  -0.044  0.00  0.00    +0.049 C 
ATOM      8  C   UNL     1       0.209  -3.005   0.513  0.00  0.00    -0.023 C 
ATOM      9  C   UNL     1       0.750  -4.125   0.978  0.00  0.00    -0.030 C 
ATOM     10  C   UNL     1       2.268  -4.088   0.793  0.00  0.00    +0.033 C 
ATOM     11  C   UNL     1       2.541  -2.578   0.780  0.00  0.00    +0.029 C 
ATOM     12  C   UNL     1       3.737  -2.097  -0.022  0.00  0.00    +0.106 C 
ATOM     13  N   UNL     1       3.653  -0.620  -0.014  0.00  0.00    -0.336 N 
ATOM     14  H   UNL     1       4.470  -0.097  -0.001  0.00  0.00    +0.147 HD
ENDROOT
BRANCH  12  15
ATOM     15  C   UNL     1       5.018  -2.550   0.630  0.00  0.00    -0.007 A 
ATOM     16  C   UNL     1       5.691  -1.704   1.492  0.00  0.00    +0.039 A 
ATOM     17  C   UNL     1       6.863  -2.122   2.095  0.00  0.00    +0.127 A 
ATOM     18  C   UNL     1       7.368  -3.380   1.827  0.00  0.00    +0.034 A 
ATOM     19  C   UNL     1       6.699  -4.224   0.960  0.00  0.00    +0.022 A 
ATOM     20  C   UNL     1       5.523  -3.809   0.361  0.00  0.00    +0.046 A 
ATOM     21 CL   UNL     1       4.682  -4.868  -0.727  0.00  0.00    -0.083 Cl
BRANCH  17  22
ATOM     22  N   UNL     1       7.580  -1.218   3.022  0.00  0.00    +0.056 N 
ATOM     23  O   UNL     1       8.616  -1.584   3.549  0.00  0.00    -0.126 OA
ATOM     24  O   UNL     1       7.135  -0.109   3.258  0.00  0.00    -0.126 OA
ENDBRANCH  17  22
ENDBRANCH  12  15
BRANCH   1  27
ATOM     25  C   UNL     1      -1.355   3.230   0.696  0.00  0.00    +0.217 C 
ATOM     26  O   UNL     1      -0.381   3.727   1.220  0.00  0.00    -0.275 OA
ATOM     27  N   UNL     1      -1.239   2.070   0.019  0.00  0.00    -0.285 N 
ATOM     28  H   UNL     1      -2.002   1.708  -0.457  0.00  0.00    +0.155 HD
BRANCH  25  29
ATOM     29  C   UNL     1      -2.696   3.910   0.800  0.00  0.00    +0.099 C 
BRANCH  29  31
ATOM     30  C   UNL     1      -3.884   5.952   1.615  0.00  0.00    +0.008 C 
ATOM     31  C   UNL     1      -2.552   5.198   1.614  0.00  0.00    -0.008 C 
ATOM     32  C   UNL     1      -2.160   4.852   3.052  0.00  0.00    +0.008 C 
ENDBRANCH  29  31
ENDBRANCH  25  29
ENDBRANCH   1  27
TORSDOF 5
