REMARK  Name = ZINC09831422
REMARK  14 active torsions:
REMARK  status: ('A' for Active; 'I' for Inactive)
REMARK    1  A    between atoms: C_1  and  C_2
REMARK    2  A    between atoms: C_5  and  C_8
REMARK    3  A    between atoms: C_8  and  N_9
REMARK    4  A    between atoms: C_22  and  C_23
REMARK    5  A    between atoms: C_23  and  C_24
REMARK    6  A    between atoms: C_24  and  C_25
REMARK    7  A    between atoms: N_27  and  C_28
REMARK    8  A    between atoms: C_28  and  C_29
REMARK    9  A    between atoms: C_29  and  N_73
REMARK   10  A    between atoms: C_30  and  C_31
REMARK   11  A    between atoms: C_30  and  N_73
REMARK   12  A    between atoms: C_36  and  C_37
REMARK   13  A    between atoms: C_36  and  C_38
REMARK   14  A    between atoms: C_36  and  N_73
REMARK                            x       y       z     vdW  Elec       q    Type
REMARK                         _______ _______ _______ _____ _____    ______ ____
ROOT
ATOM      1  N   UNL     1      -0.158  -0.140  -2.556  0.00  0.00    -0.272 N 
ATOM      2  C   UNL     1      -1.098  -0.912  -3.140  0.00  0.00    +0.263 A 
ATOM      3  O   UNL     1      -1.951  -0.417  -3.852  0.00  0.00    -0.267 OA
ATOM      4  C   UNL     1      -1.074  -2.366  -2.899  0.00  0.00    +0.064 A 
ATOM      5  C   UNL     1      -2.019  -3.213  -3.476  0.00  0.00    +0.015 A 
ATOM      6  C   UNL     1      -1.962  -4.568  -3.226  0.00  0.00    +0.001 A 
ATOM      7  C   UNL     1      -0.973  -5.088  -2.407  0.00  0.00    +0.002 A 
ATOM      8  C   UNL     1      -0.031  -4.261  -1.829  0.00  0.00    +0.027 A 
ATOM      9  C   UNL     1      -0.072  -2.895  -2.069  0.00  0.00    +0.063 A 
ATOM     10  N   UNL     1       0.861  -2.035  -1.504  0.00  0.00    -0.264 N 
ATOM     11  C   UNL     1       0.818  -0.694  -1.749  0.00  0.00    +0.240 A 
ATOM     12  N   UNL     1       1.813  -0.154  -1.081  0.00  0.00    -0.110 NA
ATOM     13  N   UNL     1       2.465  -1.067  -0.454  0.00  0.00    -0.132 NA
ATOM     14  C   UNL     1       1.928  -2.234  -0.676  0.00  0.00    +0.140 A 
ENDROOT
BRANCH   1  15
ATOM     15  C   UNL     1      -0.169   1.307  -2.786  0.00  0.00    +0.163 C 
BRANCH  15  20
ATOM     16  C   UNL     1      -3.419   3.873   1.244  0.00  0.00    +0.044 C 
ATOM     17  C   UNL     1      -2.571   3.205   0.193  0.00  0.00    -0.050 A 
ATOM     18  C   UNL     1      -1.219   3.016   0.412  0.00  0.00    +0.004 A 
ATOM     19  C   UNL     1      -0.442   2.402  -0.551  0.00  0.00    +0.005 A 
ATOM     20  C   UNL     1      -1.016   1.977  -1.735  0.00  0.00    -0.028 A 
ATOM     21  C   UNL     1      -2.367   2.170  -1.956  0.00  0.00    +0.005 A 
ATOM     22  C   UNL     1      -3.145   2.780  -0.991  0.00  0.00    +0.004 A 
ENDBRANCH  15  20
ENDBRANCH   1  15
BRANCH  14  23
ATOM     23  C   UNL     1       2.397  -3.555  -0.122  0.00  0.00    +0.086 C 
BRANCH  23  24
ATOM     24  C   UNL     1       3.286  -4.254  -1.153  0.00  0.00    +0.103 C 
BRANCH  24  25
ATOM     25  C   UNL     1       3.755  -5.574  -0.598  0.00  0.00    +0.213 C 
ATOM     26  O   UNL     1       3.412  -5.922   0.512  0.00  0.00    -0.276 OA
ATOM     27  N   UNL     1       4.556  -6.369  -1.336  0.00  0.00    -0.317 N 
ATOM     28  H   UNL     1       4.830  -6.090  -2.224  0.00  0.00    +0.149 HD
BRANCH  27  29
ATOM     29  C   UNL     1       5.012  -7.652  -0.798  0.00  0.00    +0.085 C 
BRANCH  29  30
ATOM     30  C   UNL     1       5.901  -8.351  -1.829  0.00  0.00    -0.059 C 
BRANCH  30  31
ATOM     31  N   UNL     1       6.335  -9.653  -1.279  0.00  0.00    +0.387 N 
ATOM     32  H   UNL     1       5.510 -10.170  -0.955  0.00  0.00    -0.081 HD
BRANCH  31  33
ATOM     33  C   UNL     1       7.248  -9.440  -0.137  0.00  0.00    -0.074 C 
ATOM     34  C   UNL     1       7.253 -10.702   0.727  0.00  0.00    -0.014 C 
ATOM     35  C   UNL     1       8.667  -9.155  -0.632  0.00  0.00    -0.014 C 
ENDBRANCH  31  33
BRANCH  31  36
ATOM     36  C   UNL     1       7.014 -10.442  -2.328  0.00  0.00    -0.003 C 
BRANCH  36  37
ATOM     37  C   UNL     1       7.083 -11.880  -1.883  0.00  0.00    +0.089 A 
ATOM     38  C   UNL     1       6.082 -12.776  -1.960  0.00  0.00    +0.042 A 
ATOM     39  C   UNL     1       6.579 -13.991  -1.434  0.00  0.00    +0.041 A 
ATOM     40  C   UNL     1       7.853 -13.765  -1.068  0.00  0.00    +0.195 A 
ATOM     41  O   UNL     1       8.155 -12.487  -1.347  0.00  0.00    -0.470 OA
ENDBRANCH  36  37
ENDBRANCH  31  36
ENDBRANCH  30  31
ENDBRANCH  29  30
ENDBRANCH  27  29
ENDBRANCH  24  25
ENDBRANCH  23  24
ENDBRANCH  14  23
TORSDOF 11
