REMARK  Name = ZINC17307581
REMARK  7 active torsions:
REMARK  status: ('A' for Active; 'I' for Inactive)
REMARK    1  A    between atoms: C_1  and  C_2
REMARK    2  A    between atoms: C_2  and  O_3
REMARK    3  A    between atoms: O_3  and  C_4
REMARK    4  A    between atoms: C_7  and  C_10
REMARK    5  A    between atoms: C_17  and  S_28
REMARK    6  A    between atoms: S_28  and  C_29
REMARK    7  A    between atoms: C_29  and  C_30
REMARK                            x       y       z     vdW  Elec       q    Type
REMARK                         _______ _______ _______ _____ _____    ______ ____
ROOT
ATOM      1  C   UNL     1      -0.022   3.671   0.862  0.00  0.00    +0.092 C 
ATOM      2  C   UNL     1      -1.268   2.955   0.430  0.00  0.00    +0.069 A 
ATOM      3  C   UNL     1      -2.501   3.617   0.433  0.00  0.00    +0.258 A 
ATOM      4  O   UNL     1      -2.580   4.783   0.785  0.00  0.00    -0.267 OA
ATOM      5  N   UNL     1      -3.601   2.941   0.040  0.00  0.00    -0.302 N 
ATOM      6  H   UNL     1      -4.465   3.384   0.034  0.00  0.00    +0.171 HD
ATOM      7  C   UNL     1      -3.501   1.640  -0.349  0.00  0.00    +0.171 A 
ATOM      8  N   UNL     1      -2.343   1.012  -0.354  0.00  0.00    -0.208 NA
ATOM      9  C   UNL     1      -1.220   1.634   0.017  0.00  0.00    +0.135 A 
ATOM     10  N   UNL     1      -0.011   0.966   0.007  0.00  0.00    -0.302 N 
ATOM     11  C   UNL     1       1.168   1.660  -0.000  0.00  0.00    +0.017 C 
ATOM     12  C   UNL     1       1.216   2.951   0.389  0.00  0.00    +0.024 C 
ATOM     13  C   UNL     1       2.424   3.670   0.364  0.00  0.00    +0.162 C 
ATOM     14  O   UNL     1       2.434   4.830   0.729  0.00  0.00    -0.292 OA
ATOM     15  C   UNL     1       3.703   3.035  -0.105  0.00  0.00    +0.080 C 
ATOM     16  C   UNL     1       3.371   1.933  -1.116  0.00  0.00    +0.014 C 
ATOM     17  C   UNL     1       2.415   0.939  -0.452  0.00  0.00    +0.051 C 
ATOM     18  H   UNL     1       0.002  -0.004   0.002  0.00  0.00    +0.153 HD
ENDROOT
BRANCH   1  22
ATOM     19  C   UNL     1       0.042   3.913   5.128  0.00  0.00    +0.121 A 
ATOM     20  C   UNL     1       0.012   5.072   4.367  0.00  0.00    +0.046 A 
ATOM     21  C   UNL     1      -0.009   4.991   2.988  0.00  0.00    +0.008 A 
ATOM     22  C   UNL     1       0.001   3.756   2.366  0.00  0.00    -0.035 A 
ATOM     23  C   UNL     1       0.025   2.599   3.123  0.00  0.00    +0.008 A 
ATOM     24  C   UNL     1       0.052   2.675   4.502  0.00  0.00    +0.046 A 
BRANCH  19  25
ATOM     25  O   UNL     1       0.062   3.990   6.485  0.00  0.00    -0.492 OA
BRANCH  25  27
ATOM     26  C   UNL     1       0.112   3.041   8.707  0.00  0.00    +0.048 C 
ATOM     27  C   UNL     1       0.093   2.755   7.204  0.00  0.00    +0.225 C 
ENDBRANCH  25  27
ENDBRANCH  19  25
ENDBRANCH   1  22
BRANCH   7  28
ATOM     28  S   UNL     1      -4.952   0.777  -0.855  0.00  0.00    -0.083 S 
BRANCH  28  29
ATOM     29  C   UNL     1      -4.237  -0.841  -1.241  0.00  0.00    +0.114 C 
BRANCH  29  30
ATOM     30  C   UNL     1      -5.325  -1.772  -1.709  0.00  0.00    -0.019 A 
ATOM     31  C   UNL     1      -6.005  -2.555  -0.795  0.00  0.00    +0.006 A 
ATOM     32  C   UNL     1      -7.006  -3.407  -1.224  0.00  0.00    +0.000 A 
ATOM     33  C   UNL     1      -7.321  -3.483  -2.568  0.00  0.00    +0.001 A 
ATOM     34  C   UNL     1      -6.638  -2.704  -3.483  0.00  0.00    +0.020 A 
ATOM     35  C   UNL     1      -5.639  -1.848  -3.054  0.00  0.00    +0.045 A 
ATOM     36 CL   UNL     1      -4.781  -0.871  -4.203  0.00  0.00    -0.083 Cl
ENDBRANCH  29  30
ENDBRANCH  28  29
ENDBRANCH   7  28
TORSDOF 6
