REMARK  Name = ZINC39544425
REMARK  8 active torsions:
REMARK  status: ('A' for Active; 'I' for Inactive)
REMARK    1  A    between atoms: C_1  and  C_2
REMARK    2  A    between atoms: C_2  and  C_3
REMARK    3  A    between atoms: C_3  and  C_4
REMARK    4  A    between atoms: C_3  and  C_5
REMARK    5  A    between atoms: C_3  and  C_6
REMARK    6  A    between atoms: N_14  and  C_18
REMARK    7  A    between atoms: C_18  and  C_19
REMARK    8  A    between atoms: N_24  and  C_27
REMARK                            x       y       z     vdW  Elec       q    Type
REMARK                         _______ _______ _______ _____ _____    ______ ____
ROOT
ATOM      1  C   UNL     1       0.735  -2.022  -1.238  0.00  0.00    -0.005 C 
ATOM      2  C   UNL     1       1.474  -2.545  -0.005  0.00  0.00    +0.006 C 
ATOM      3  C   UNL     1       1.488  -4.075  -0.030  0.00  0.00    +0.035 C 
ATOM      4  C   UNL     1       2.177  -4.560  -1.300  0.00  0.00    +0.113 C 
ATOM      5  C   UNL     1       1.466  -4.027  -2.538  0.00  0.00    +0.035 C 
ATOM      6  C   UNL     1       1.453  -2.496  -2.504  0.00  0.00    +0.006 C 
ATOM      7  C   UNL     1       3.630  -4.142  -1.304  0.00  0.00    +0.247 C 
ATOM      8  O   UNL     1       4.069  -3.012  -1.286  0.00  0.00    -0.273 OA
ATOM      9  N   UNL     1       4.335  -5.292  -1.333  0.00  0.00    -0.215 N 
ATOM     10  C   UNL     1       3.532  -6.363  -1.347  0.00  0.00    +0.310 C 
ATOM     11  O   UNL     1       3.935  -7.509  -1.372  0.00  0.00    -0.252 OA
ATOM     12  N   UNL     1       2.228  -6.028  -1.329  0.00  0.00    -0.285 N 
ATOM     13  H   UNL     1       1.472  -6.635  -1.334  0.00  0.00    +0.151 HD
ENDROOT
BRANCH   1  14
ATOM     14  C   UNL     1       0.710  -0.493  -1.209  0.00  0.00    -0.032 C 
ATOM     15  C   UNL     1      -0.030   0.029  -2.442  0.00  0.00    +0.011 C 
ATOM     16  C   UNL     1       2.144   0.040  -1.211  0.00  0.00    +0.011 C 
BRANCH  14  18
ATOM     17  C   UNL     1      -0.033   1.511   0.086  0.00  0.00    +0.004 C 
ATOM     18  C   UNL     1      -0.008  -0.019   0.056  0.00  0.00    +0.003 C 
ENDBRANCH  14  18
ENDBRANCH   1  14
BRANCH   9  19
ATOM     19  C   UNL     1       5.799  -5.360  -1.348  0.00  0.00    +0.213 C 
BRANCH  19  20
ATOM     20  C   UNL     1       6.314  -5.410   0.068  0.00  0.00    +0.234 C 
ATOM     21  O   UNL     1       5.535  -5.391   0.997  0.00  0.00    -0.274 OA
ATOM     22  N   UNL     1       7.639  -5.476   0.301  0.00  0.00    -0.297 N 
ATOM     23  C   UNL     1       8.595  -5.494  -0.816  0.00  0.00    +0.126 C 
ATOM     24  C   UNL     1       9.596  -4.348  -0.622  0.00  0.00    +0.124 C 
ATOM     25  N   UNL     1      10.112  -4.403   0.753  0.00  0.00    -0.327 N 
ATOM     26  C   UNL     1       9.157  -4.386   1.870  0.00  0.00    +0.124 C 
ATOM     27  C   UNL     1       8.156  -5.526   1.676  0.00  0.00    +0.126 C 
BRANCH  25  28
ATOM     28  C   UNL     1      11.488  -4.472   0.995  0.00  0.00    +0.030 A 
ATOM     29  C   UNL     1      11.969  -4.408   2.296  0.00  0.00    +0.026 A 
ATOM     30  C   UNL     1      13.329  -4.476   2.532  0.00  0.00    +0.040 A 
ATOM     31  C   UNL     1      14.211  -4.608   1.473  0.00  0.00    +0.124 A 
ATOM     32  C   UNL     1      13.733  -4.672   0.175  0.00  0.00    +0.040 A 
ATOM     33  C   UNL     1      12.374  -4.610  -0.066  0.00  0.00    +0.026 A 
ATOM     34  F   UNL     1      15.540  -4.674   1.707  0.00  0.00    -0.205 F 
ENDBRANCH  25  28
ENDBRANCH  19  20
ENDBRANCH   9  19
TORSDOF 5
