REMARK  Name = ZINC34756202
REMARK  9 active torsions:
REMARK  status: ('A' for Active; 'I' for Inactive)
REMARK    1  A    between atoms: C_1  and  C_2
REMARK    2  A    between atoms: C_2  and  C_3
REMARK    3  A    between atoms: C_2  and  C_4
REMARK    4  A    between atoms: C_4  and  S_5
REMARK    5  A    between atoms: S_5  and  C_6
REMARK    6  A    between atoms: N_22  and  C_25
REMARK    7  A    between atoms: C_25  and  C_26
REMARK    8  A    between atoms: N_28  and  C_29
REMARK    9  A    between atoms: C_29  and  C_30
REMARK                            x       y       z     vdW  Elec       q    Type
REMARK                         _______ _______ _______ _____ _____    ______ ____
ROOT
ATOM      1  C   UNL     1       2.305  -0.247   4.536  0.00  0.00    +0.191 A 
ATOM      2  N   UNL     1       1.839  -0.098   5.771  0.00  0.00    -0.206 NA
ATOM      3  C   UNL     1       1.051  -0.996   6.337  0.00  0.00    +0.134 A 
ATOM      4  C   UNL     1       0.686  -2.161   5.607  0.00  0.00    +0.051 A 
ATOM      5  C   UNL     1      -0.164  -3.277   6.028  0.00  0.00    -0.025 A 
ATOM      6  C   UNL     1      -0.355  -4.271   5.138  0.00  0.00    -0.004 A 
ATOM      7  S   UNL     1       0.571  -3.792   3.704  0.00  0.00    -0.073 S 
ATOM      8  C   UNL     1       1.216  -2.252   4.305  0.00  0.00    +0.115 A 
ATOM      9  N   UNL     1       1.994  -1.310   3.807  0.00  0.00    -0.215 NA
ATOM     10  C   UNL     1      -1.173  -5.512   5.325  0.00  0.00    +0.043 C 
ATOM     11  C   UNL     1      -1.471  -5.676   6.822  0.00  0.00    +0.005 C 
ATOM     12  C   UNL     1      -1.966  -4.335   7.373  0.00  0.00    +0.005 C 
ATOM     13  C   UNL     1      -0.813  -3.331   7.409  0.00  0.00    +0.037 C 
ATOM     14  N   UNL     1       0.586  -0.804   7.626  0.00  0.00    -0.318 N 
ATOM     15  C   UNL     1       1.281  -1.400   8.777  0.00  0.00    +0.088 C 
ATOM     16  C   UNL     1       1.521  -0.304   9.821  0.00  0.00    -0.059 C 
ATOM     17  N   UNL     1       0.245   0.343  10.152  0.00  0.00    +0.387 N 
ATOM     18  C   UNL     1      -0.288   1.032   8.970  0.00  0.00    -0.059 C 
ATOM     19  C   UNL     1      -0.614   0.007   7.884  0.00  0.00    +0.088 C 
ATOM     20  H   UNL     1      -0.416  -0.356  10.458  0.00  0.00    -0.081 HD
ENDROOT
BRANCH   1  21
ATOM     21  S   UNL     1       3.352   0.995   3.851  0.00  0.00    -0.086 S 
BRANCH  21  22
ATOM     22  C   UNL     1       3.726   0.383   2.185  0.00  0.00    +0.080 C 
BRANCH  22  24
ATOM     23  C   UNL     1       5.988   1.444   2.189  0.00  0.00    +0.008 C 
ATOM     24  C   UNL     1       4.640   1.380   1.469  0.00  0.00    -0.007 C 
ATOM     25  C   UNL     1       4.855   0.927   0.024  0.00  0.00    +0.008 C 
ENDBRANCH  22  24
ENDBRANCH  21  22
ENDBRANCH   1  21
BRANCH  17  26
ATOM     26  C   UNL     1       0.457   1.317  11.230  0.00  0.00    +0.019 C 
BRANCH  26  27
ATOM     27  C   UNL     1      -0.870   1.892  11.655  0.00  0.00    +0.197 C 
ATOM     28  O   UNL     1      -1.891   1.526  11.113  0.00  0.00    -0.278 OA
ATOM     29  N   UNL     1      -0.921   2.813  12.638  0.00  0.00    -0.313 N 
ATOM     30  H   UNL     1      -0.104   3.105  13.072  0.00  0.00    +0.149 HD
BRANCH  29  31
ATOM     31  C   UNL     1      -2.211   3.372  13.052  0.00  0.00    +0.139 C 
BRANCH  31  32
ATOM     32  C   UNL     1      -1.993   4.371  14.158  0.00  0.00    -0.030 A 
ATOM     33  C   UNL     1      -2.006   3.956  15.477  0.00  0.00    +0.005 A 
ATOM     34  C   UNL     1      -1.807   4.873  16.492  0.00  0.00    +0.000 A 
ATOM     35  C   UNL     1      -1.594   6.205  16.189  0.00  0.00    +0.000 A 
ATOM     36  C   UNL     1      -1.580   6.620  14.870  0.00  0.00    +0.000 A 
ATOM     37  C   UNL     1      -1.775   5.702  13.855  0.00  0.00    +0.005 A 
ENDBRANCH  31  32
ENDBRANCH  29  31
ENDBRANCH  26  27
ENDBRANCH  17  26
TORSDOF 7
