REMARK  Name = ZINC38701375
REMARK  12 active torsions:
REMARK  status: ('A' for Active; 'I' for Inactive)
REMARK    1  A    between atoms: C_1  and  C_2
REMARK    2  A    between atoms: C_2  and  O_3
REMARK    3  A    between atoms: O_3  and  C_4
REMARK    4  A    between atoms: C_7  and  C_10
REMARK    5  A    between atoms: C_15  and  O_24
REMARK    6  A    between atoms: C_19  and  N_23
REMARK    7  A    between atoms: C_20  and  C_21
REMARK    8  A    between atoms: O_24  and  C_25
REMARK    9  A    between atoms: C_25  and  C_27
REMARK   10  A    between atoms: C_28  and  C_38
REMARK   11  A    between atoms: C_31  and  C_37
REMARK   12  A    between atoms: C_32  and  C_36
REMARK                            x       y       z     vdW  Elec       q    Type
REMARK                         _______ _______ _______ _____ _____    ______ ____
ROOT
ATOM      1  C   UNL     1       1.149  -6.042   1.826  0.00  0.00    +0.098 C 
ATOM      2  C   UNL     1       2.604  -6.427   1.844  0.00  0.00    +0.008 A 
ATOM      3  C   UNL     1       3.290  -6.549   0.649  0.00  0.00    +0.012 A 
ATOM      4  C   UNL     1       4.625  -6.903   0.646  0.00  0.00    +0.047 A 
ATOM      5  C   UNL     1       5.283  -7.137   1.846  0.00  0.00    +0.136 A 
ATOM      6  C   UNL     1       4.599  -7.015   3.044  0.00  0.00    +0.093 A 
ATOM      7  C   UNL     1       3.256  -6.659   3.045  0.00  0.00    +0.138 A 
ATOM      8  O   UNL     1       2.601  -6.545   4.226  0.00  0.00    -0.441 OA
ATOM      9  C   UNL     1       1.258  -6.589   4.255  0.00  0.00    +0.199 C 
ATOM     10  C   UNL     1       0.514  -6.359   3.151  0.00  0.00    +0.098 C 
ENDROOT
BRANCH   1  14
ATOM     11  C   UNL     1       0.803  -1.852   1.059  0.00  0.00    +0.121 A 
ATOM     12  C   UNL     1       0.229  -2.767   0.189  0.00  0.00    +0.046 A 
ATOM     13  C   UNL     1       0.342  -4.121   0.439  0.00  0.00    +0.008 A 
ATOM     14  C   UNL     1       1.027  -4.564   1.556  0.00  0.00    -0.034 A 
ATOM     15  C   UNL     1       1.600  -3.654   2.424  0.00  0.00    +0.008 A 
ATOM     16  C   UNL     1       1.495  -2.299   2.175  0.00  0.00    +0.046 A 
BRANCH  11  17
ATOM     17  O   UNL     1       0.694  -0.519   0.815  0.00  0.00    -0.492 OA
BRANCH  17  19
ATOM     18  C   UNL     1      -0.049   1.395  -0.461  0.00  0.00    +0.048 C 
ATOM     19  C   UNL     1      -0.032  -0.132  -0.354  0.00  0.00    +0.225 C 
ENDBRANCH  17  19
ENDBRANCH  11  17
ENDBRANCH   1  14
BRANCH   9  20
ATOM     20  N   UNL     1       0.626  -6.875   5.439  0.00  0.00    -0.328 N 
ATOM     21  H   UNL     1       1.148  -7.042   6.239  0.00  0.00    +0.145 HD
ATOM     22  H   UNL     1      -0.343  -6.911   5.475  0.00  0.00    +0.145 HD
ENDBRANCH   9  20
BRANCH  10  23
ATOM     23  C   UNL     1      -0.914  -6.420   3.248  0.00  0.00    +0.101 C 
ATOM     24  N   UNL     1      -2.046  -6.468   3.326  0.00  0.00    -0.191 NA
ENDBRANCH  10  23
BRANCH   5  25
ATOM     25  O   UNL     1       6.597  -7.485   1.845  0.00  0.00    -0.420 OA
BRANCH  25  26
ATOM     26  C   UNL     1       6.919  -8.743   2.211  0.00  0.00    +0.380 C 
ATOM     27  O   UNL     1       6.041  -9.556   2.429  0.00  0.00    -0.241 OA
BRANCH  26  28
ATOM     28  C   UNL     1       8.328  -9.130   2.348  0.00  0.00    +0.216 A 
ATOM     29  C   UNL     1       8.769 -10.364   2.705  0.00  0.00    +0.010 A 
ATOM     30  C   UNL     1      10.229 -10.286   2.711  0.00  0.00    +0.024 A 
ATOM     31  C   UNL     1      11.252 -11.197   2.988  0.00  0.00    +0.015 A 
ATOM     32  C   UNL     1      12.556 -10.799   2.902  0.00  0.00    -0.047 A 
ATOM     33  C   UNL     1      12.870  -9.495   2.541  0.00  0.00    -0.044 A 
ATOM     34  C   UNL     1      11.877  -8.582   2.263  0.00  0.00    +0.050 A 
ATOM     35  C   UNL     1      10.543  -8.964   2.345  0.00  0.00    +0.137 A 
ATOM     36  O   UNL     1       9.382  -8.314   2.133  0.00  0.00    -0.448 OA
ATOM     37  C   UNL     1      14.315  -9.075   2.451  0.00  0.00    +0.044 C 
ATOM     38  C   UNL     1      13.660 -11.780   3.201  0.00  0.00    +0.044 C 
ATOM     39  C   UNL     1       7.925 -11.570   3.028  0.00  0.00    +0.048 C 
ENDBRANCH  26  28
ENDBRANCH  25  26
ENDBRANCH   5  25
TORSDOF 8
