REMARK  Name = ZINC08915870
REMARK  6 active torsions:
REMARK  status: ('A' for Active; 'I' for Inactive)
REMARK    1  A    between atoms: C_1  and  C_2
REMARK    2  A    between atoms: C_5  and  C_8
REMARK    3  A    between atoms: N_12  and  C_22
REMARK    4  A    between atoms: N_14  and  C_15
REMARK    5  A    between atoms: C_22  and  C_23
REMARK    6  A    between atoms: C_23  and  C_24
REMARK                            x       y       z     vdW  Elec       q    Type
REMARK                         _______ _______ _______ _____ _____    ______ ____
ROOT
ATOM      1  C   UNL     1      -3.673   6.970  -3.473  0.00  0.00    +0.028 C 
ATOM      2  C   UNL     1      -2.606   6.772  -2.660  0.00  0.00    +0.078 C 
ATOM      3  C   UNL     1      -1.776   7.762  -1.944  0.00  0.00    +0.259 C 
ATOM      4  O   UNL     1      -1.996   8.956  -2.026  0.00  0.00    -0.269 OA
ATOM      5  N   UNL     1      -0.782   7.291  -1.209  0.00  0.00    -0.246 N 
ATOM      6  C   UNL     1      -0.549   5.935  -1.129  0.00  0.00    +0.168 C 
ATOM      7  N   UNL     1       0.385   5.306  -0.452  0.00  0.00    -0.225 NA
ATOM      8  S   UNL     1      -1.820   5.242  -2.174  0.00  0.00    -0.049 S 
ENDROOT
BRANCH   1  13
ATOM      9  C   UNL     1      -5.930   2.559  -6.384  0.00  0.00    +0.044 C 
ATOM     10  C   UNL     1      -5.338   3.716  -5.621  0.00  0.00    -0.050 A 
ATOM     11  C   UNL     1      -6.067   4.882  -5.465  0.00  0.00    +0.004 A 
ATOM     12  C   UNL     1      -5.533   5.945  -4.768  0.00  0.00    +0.008 A 
ATOM     13  C   UNL     1      -4.250   5.842  -4.217  0.00  0.00    -0.024 A 
ATOM     14  C   UNL     1      -3.518   4.661  -4.384  0.00  0.00    +0.008 A 
ATOM     15  C   UNL     1      -4.069   3.606  -5.079  0.00  0.00    +0.004 A 
ENDBRANCH   1  13
BRANCH   7  16
ATOM     16  C   UNL     1       0.459   3.940  -0.496  0.00  0.00    +0.067 A 
ATOM     17  C   UNL     1       1.693   3.309  -0.668  0.00  0.00    +0.028 A 
ATOM     18  C   UNL     1       1.760   1.932  -0.711  0.00  0.00    +0.002 A 
ATOM     19  C   UNL     1       0.609   1.176  -0.583  0.00  0.00    +0.000 A 
ATOM     20  C   UNL     1      -0.618   1.794  -0.417  0.00  0.00    +0.002 A 
ATOM     21  C   UNL     1      -0.700   3.170  -0.367  0.00  0.00    +0.028 A 
ENDBRANCH   7  16
BRANCH   5  22
ATOM     22  C   UNL     1       0.079   8.219  -0.473  0.00  0.00    +0.120 C 
BRANCH  22  23
ATOM     23  C   UNL     1       1.261   8.627  -1.354  0.00  0.00    +0.056 C 
BRANCH  23  24
ATOM     24  C   UNL     1       2.147   9.582  -0.597  0.00  0.00    -0.021 A 
ATOM     25  C   UNL     1       2.104  10.923  -0.649  0.00  0.00    +0.087 A 
ATOM     26  N   UNL     1       3.059  11.453   0.175  0.00  0.00    -0.360 N 
ATOM     27  H   UNL     1       3.220  12.401   0.304  0.00  0.00    +0.165 HD
ATOM     28  C   UNL     1       3.758  10.440   0.793  0.00  0.00    +0.047 A 
ATOM     29  C   UNL     1       3.213   9.224   0.342  0.00  0.00    +0.003 A 
ATOM     30  C   UNL     1       3.735   8.014   0.801  0.00  0.00    +0.010 A 
ATOM     31  C   UNL     1       4.766   8.017   1.698  0.00  0.00    +0.001 A 
ATOM     32  C   UNL     1       5.303   9.214   2.151  0.00  0.00    +0.002 A 
ATOM     33  C   UNL     1       4.808  10.420   1.706  0.00  0.00    +0.026 A 
ENDBRANCH  23  24
ENDBRANCH  22  23
ENDBRANCH   5  22
TORSDOF 5
