REMARK  Name = ZINC43036710
REMARK  9 active torsions:
REMARK  status: ('A' for Active; 'I' for Inactive)
REMARK    1  A    between atoms: C_1  and  C_2
REMARK    2  A    between atoms: C_7  and  C_8
REMARK    3  A    between atoms: C_8  and  C_10
REMARK    4  A    between atoms: C_8  and  N_14
REMARK    5  A    between atoms: C_10  and  C_12
REMARK    6  A    between atoms: C_10  and  N_13
REMARK    7  A    between atoms: N_14  and  C_15
REMARK    8  A    between atoms: N_14  and  C_16
REMARK    9  A    between atoms: C_16  and  C_17
REMARK                            x       y       z     vdW  Elec       q    Type
REMARK                         _______ _______ _______ _____ _____    ______ ____
ROOT
ATOM      1  C   UNL     1       0.247   0.141   2.426  0.00  0.00    +0.072 C 
ENDROOT
BRANCH   1   8
ATOM      2  C   UNL     1       2.006   0.573   0.175  0.00  0.00    +0.044 C 
ATOM      3  C   UNL     1       1.014  -0.561   0.149  0.00  0.00    -0.046 A 
ATOM      4  C   UNL     1       0.950  -1.398  -0.949  0.00  0.00    +0.003 A 
ATOM      5  C   UNL     1       0.040  -2.438  -0.973  0.00  0.00    +0.000 A 
ATOM      6  C   UNL     1      -0.805  -2.642   0.102  0.00  0.00    +0.000 A 
ATOM      7  C   UNL     1      -0.740  -1.806   1.200  0.00  0.00    +0.005 A 
ATOM      8  C   UNL     1       0.173  -0.768   1.226  0.00  0.00    -0.029 A 
ENDBRANCH   1   8
BRANCH   1   9
ATOM      9  C   UNL     1      -1.166   0.431   2.934  0.00  0.00    -0.056 C 
ATOM     10  C   UNL     1      -1.086   1.197   4.256  0.00  0.00    -0.012 C 
BRANCH   9  11
ATOM     11  N   UNL     1      -1.887   1.240   1.943  0.00  0.00    +0.381 N 
ATOM     12  H   UNL     1      -2.030   0.697   1.105  0.00  0.00    -0.090 HD
ATOM     13  H   UNL     1      -2.781   1.517   2.320  0.00  0.00    -0.090 HD
ATOM     14  H   UNL     1      -1.346   2.063   1.722  0.00  0.00    -0.090 HD
ENDBRANCH   9  11
ENDBRANCH   1   9
BRANCH   1  15
ATOM     15  N   UNL     1       1.025  -0.512   3.487  0.00  0.00    -0.296 NA
ATOM     16  C   UNL     1       2.440  -0.625   3.109  0.00  0.00    +0.105 C 
BRANCH  15  17
ATOM     17  C   UNL     1       0.462  -1.827   3.819  0.00  0.00    +0.120 C 
BRANCH  17  18
ATOM     18  C   UNL     1       1.088  -2.335   5.093  0.00  0.00    -0.025 A 
ATOM     19  C   UNL     1       2.242  -3.095   5.052  0.00  0.00    +0.028 A 
ATOM     20  C   UNL     1       2.780  -3.536   6.217  0.00  0.00    +0.055 A 
ATOM     21  S   UNL     1       1.642  -2.873   7.423  0.00  0.00    -0.090 S 
ATOM     22  C   UNL     1       0.531  -2.048   6.294  0.00  0.00    +0.051 A 
ATOM     23 BR   UNL     1       4.331  -4.582   6.492  0.00  0.00    -0.043 Br
ENDBRANCH  17  18
ENDBRANCH  15  17
ENDBRANCH   1  15
TORSDOF 6
