REMARK  Name = ZINC02296906
REMARK  7 active torsions:
REMARK  status: ('A' for Active; 'I' for Inactive)
REMARK    1  A    between atoms: C_1  and  C_2
REMARK    2  A    between atoms: C_2  and  C_3
REMARK    3  A    between atoms: C_3  and  C_28
REMARK    4  A    between atoms: C_10  and  N_25
REMARK    5  A    between atoms: C_12  and  S_14
REMARK    6  A    between atoms: S_14  and  C_15
REMARK    7  A    between atoms: C_15  and  C_16
REMARK                            x       y       z     vdW  Elec       q    Type
REMARK                         _______ _______ _______ _____ _____    ______ ____
ROOT
ATOM      1  C   UNL     1       5.902  -1.333  -0.909  0.00  0.00    +0.071 C 
ATOM      2  C   UNL     1       4.989  -0.254  -0.319  0.00  0.00    +0.071 C 
ATOM      3  C   UNL     1       3.567  -0.808  -0.277  0.00  0.00    -0.020 A 
ATOM      4  C   UNL     1       3.368  -2.140  -0.375  0.00  0.00    +0.021 A 
ATOM      5  S   UNL     1       1.613  -2.352  -0.286  0.00  0.00    -0.071 S 
ATOM      6  C   UNL     1       1.146  -0.649  -0.115  0.00  0.00    +0.115 A 
ATOM      7  C   UNL     1       2.380   0.034  -0.134  0.00  0.00    +0.051 A 
ATOM      8  C   UNL     1       2.300   1.449  -0.012  0.00  0.00    +0.129 A 
ATOM      9  N   UNL     1       1.114   2.022   0.108  0.00  0.00    -0.207 NA
ATOM     10  C   UNL     1      -0.012   1.318   0.119  0.00  0.00    +0.191 A 
ATOM     11  N   UNL     1       0.002  -0.004   0.008  0.00  0.00    -0.215 NA
ATOM     12  C   UNL     1       4.429  -3.186  -0.526  0.00  0.00    +0.203 C 
ATOM     13  O   UNL     1       5.696  -2.575  -0.231  0.00  0.00    -0.368 OA
ATOM     14  C   UNL     1       5.584  -1.510  -2.395  0.00  0.00    +0.042 C 
ENDROOT
BRANCH   8  15
ATOM     15  N   UNL     1       3.449   2.218  -0.019  0.00  0.00    -0.343 N 
ATOM     16  H   UNL     1       4.318   1.791   0.043  0.00  0.00    +0.144 HD
ATOM     17  H   UNL     1       3.387   3.183  -0.086  0.00  0.00    +0.144 HD
ENDBRANCH   8  15
BRANCH   1  19
ATOM     18  C   UNL     1       8.270  -1.919  -1.448  0.00  0.00    +0.007 C 
ATOM     19  C   UNL     1       7.362  -0.904  -0.750  0.00  0.00    +0.032 C 
ENDBRANCH   1  19
BRANCH  10  20
ATOM     20  S   UNL     1      -1.554   2.155   0.276  0.00  0.00    -0.081 S 
BRANCH  20  21
ATOM     21  C   UNL     1      -0.973   3.866   0.386  0.00  0.00    +0.112 C 
BRANCH  21  22
ATOM     22  C   UNL     1      -2.154   4.790   0.529  0.00  0.00    -0.033 A 
ATOM     23  C   UNL     1      -2.759   5.317  -0.597  0.00  0.00    +0.008 A 
ATOM     24  C   UNL     1      -3.847   6.160  -0.470  0.00  0.00    +0.050 A 
ATOM     25  C   UNL     1      -4.326   6.490   0.787  0.00  0.00    +0.166 A 
ATOM     26  C   UNL     1      -3.714   5.963   1.922  0.00  0.00    +0.167 A 
ATOM     27  C   UNL     1      -2.628   5.114   1.787  0.00  0.00    +0.054 A 
ATOM     28  O   UNL     1      -4.364   6.433   3.026  0.00  0.00    -0.453 OA
ATOM     29  C   UNL     1      -5.120   7.571   2.572  0.00  0.00    +0.466 C 
ATOM     30  O   UNL     1      -5.361   7.289   1.181  0.00  0.00    -0.453 OA
ENDBRANCH  21  22
ENDBRANCH  20  21
ENDBRANCH  10  20
TORSDOF 5
