REMARK  Name = ZINC20485096
REMARK  11 active torsions:
REMARK  status: ('A' for Active; 'I' for Inactive)
REMARK    1  A    between atoms: C_1  and  C_2
REMARK    2  A    between atoms: C_2  and  O_3
REMARK    3  A    between atoms: O_3  and  C_4
REMARK    4  A    between atoms: C_7  and  C_13
REMARK    5  A    between atoms: C_9  and  O_10
REMARK    6  A    between atoms: O_10  and  C_11
REMARK    7  A    between atoms: C_11  and  C_12
REMARK    8  A    between atoms: C_13  and  C_14
REMARK    9  A    between atoms: C_14  and  N_15
REMARK   10  A    between atoms: C_16  and  C_18
REMARK   11  A    between atoms: N_21  and  C_23
REMARK                            x       y       z     vdW  Elec       q    Type
REMARK                         _______ _______ _______ _____ _____    ______ ____
ROOT
ATOM      1  N   UNL     1       5.334  -0.699   4.643  0.00  0.00    -0.310 N 
ATOM      2  C   UNL     1       6.499  -0.143   4.256  0.00  0.00    +0.264 C 
ATOM      3  O   UNL     1       6.579   1.060   4.105  0.00  0.00    -0.268 OA
ATOM      4  H   UNL     1       5.262  -1.788   4.780  0.00  0.00    +0.149 HD
ENDROOT
BRANCH   2   5
ATOM      5  C   UNL     1       7.681  -0.998   4.016  0.00  0.00    +0.152 A 
ATOM      6  C   UNL     1       8.954  -0.567   3.613  0.00  0.00    +0.020 A 
ATOM      7  C   UNL     1       9.719  -1.697   3.518  0.00  0.00    +0.074 A 
ATOM      8  N   UNL     1       8.919  -2.741   3.856  0.00  0.00    -0.266 N 
ATOM      9  N   UNL     1       7.740  -2.312   4.147  0.00  0.00    -0.166 NA
ATOM     10  C   UNL     1       9.336  -4.145   3.891  0.00  0.00    +0.173 C 
ATOM     11  C   UNL     1      11.139  -1.718   3.117  0.00  0.00    +0.014 A 
ATOM     12  C   UNL     1      11.723  -2.892   2.646  0.00  0.00    +0.011 A 
ATOM     13  C   UNL     1      13.043  -2.891   2.245  0.00  0.00    +0.001 A 
ATOM     14  C   UNL     1      13.791  -1.728   2.310  0.00  0.00    +0.001 A 
ATOM     15  C   UNL     1      13.227  -0.559   2.781  0.00  0.00    +0.015 A 
ATOM     16  C   UNL     1      11.901  -0.543   3.192  0.00  0.00    +0.017 A 
ATOM     17  S   UNL     1      11.187   0.947   3.805  0.00  0.00    -0.120 S 
ATOM     18  C   UNL     1       9.437   0.829   3.332  0.00  0.00    +0.114 C 
ENDBRANCH   2   5
BRANCH   1  19
ATOM     19  C   UNL     1       4.162   0.148   4.881  0.00  0.00    +0.109 C 
BRANCH  19  20
ATOM     20  C   UNL     1       2.980  -0.724   5.306  0.00  0.00    +0.054 C 
BRANCH  20  24
ATOM     21  C   UNL     1      -0.435   1.753   6.005  0.00  0.00    +0.162 A 
ATOM     22  C   UNL     1       0.441   1.468   7.040  0.00  0.00    +0.050 A 
ATOM     23  C   UNL     1       1.545   0.668   6.811  0.00  0.00    +0.007 A 
ATOM     24  C   UNL     1       1.775   0.147   5.551  0.00  0.00    -0.042 A 
ATOM     25  C   UNL     1       0.901   0.423   4.516  0.00  0.00    +0.053 A 
ATOM     26  C   UNL     1      -0.207   1.223   4.739  0.00  0.00    +0.162 A 
BRANCH  21  27
ATOM     27  O   UNL     1      -1.519   2.544   6.228  0.00  0.00    -0.489 OA
BRANCH  27  29
ATOM     28  C   UNL     1      -2.953   3.913   7.609  0.00  0.00    +0.048 C 
ATOM     29  C   UNL     1      -1.690   3.052   7.553  0.00  0.00    +0.226 C 
ENDBRANCH  27  29
ENDBRANCH  21  27
BRANCH  26  30
ATOM     30  O   UNL     1      -1.068   1.495   3.721  0.00  0.00    -0.489 OA
BRANCH  30  31
ATOM     31  C   UNL     1      -0.767   0.922   2.447  0.00  0.00    +0.226 C 
ATOM     32  C   UNL     1      -1.839   1.337   1.436  0.00  0.00    +0.048 C 
ENDBRANCH  30  31
ENDBRANCH  26  30
ENDBRANCH  20  24
ENDBRANCH  19  20
ENDBRANCH   1  19
TORSDOF 8
