REMARK  Name = ZINC65511641
REMARK  6 active torsions:
REMARK  status: ('A' for Active; 'I' for Inactive)
REMARK    1  A    between atoms: C_8  and  O_25
REMARK    2  A    between atoms: C_9  and  N_10
REMARK    3  A    between atoms: N_13  and  C_14
REMARK    4  A    between atoms: C_14  and  C_15
REMARK    5  A    between atoms: C_15  and  C_16
REMARK    6  A    between atoms: C_19  and  N_22
REMARK                            x       y       z     vdW  Elec       q    Type
REMARK                         _______ _______ _______ _____ _____    ______ ____
ROOT
ATOM      1  N   UNL     1       4.577  -0.496  -0.997  0.00  0.00    -0.290 N 
ATOM      2  C   UNL     1       5.524   0.384  -0.617  0.00  0.00    +0.300 C 
ATOM      3  O   UNL     1       5.538   0.808   0.522  0.00  0.00    -0.253 OA
ATOM      4  N   UNL     1       6.456   0.794  -1.500  0.00  0.00    -0.299 N 
ATOM      5  H   UNL     1       4.566  -0.835  -1.906  0.00  0.00    +0.151 HD
ATOM      6  H   UNL     1       6.445   0.456  -2.409  0.00  0.00    +0.150 HD
ENDROOT
BRANCH   1  15
ATOM      7  C   UNL     1      -0.017   1.377   0.010  0.00  0.00    +0.000 A 
ATOM      8  C   UNL     1       1.172   2.083   0.002  0.00  0.00    +0.000 A 
ATOM      9  C   UNL     1       2.376   1.406  -0.013  0.00  0.00    +0.006 A 
ATOM     10  C   UNL     1       2.396   0.021  -0.021  0.00  0.00    -0.021 A 
ATOM     11  C   UNL     1       1.208  -0.685  -0.013  0.00  0.00    -0.040 A 
ATOM     12  C   UNL     1       0.002  -0.004   0.002  0.00  0.00    +0.004 A 
ATOM     13  C   UNL     1       1.496  -2.171  -0.025  0.00  0.00    +0.069 C 
ATOM     14  C   UNL     1       2.966  -2.294  -0.480  0.00  0.00    +0.143 C 
ATOM     15  C   UNL     1       3.564  -0.942  -0.037  0.00  0.00    +0.134 C 
BRANCH  14  16
ATOM     16  O   UNL     1       3.047  -2.446  -1.898  0.00  0.00    -0.389 OA
ATOM     17  H   UNL     1       2.608  -3.240  -2.235  0.00  0.00    +0.210 HD
ENDBRANCH  14  16
ENDBRANCH   1  15
BRANCH   4  18
ATOM     18  C   UNL     1       7.486   1.751  -1.087  0.00  0.00    +0.110 C 
BRANCH  18  19
ATOM     19  C   UNL     1       8.411   2.047  -2.269  0.00  0.00    +0.054 C 
BRANCH  19  20
ATOM     20  C   UNL     1       9.470   3.031  -1.844  0.00  0.00    -0.046 A 
ATOM     21  C   UNL     1       9.243   4.389  -1.973  0.00  0.00    +0.006 A 
ATOM     22  C   UNL     1      10.215   5.292  -1.583  0.00  0.00    +0.033 A 
ATOM     23  C   UNL     1      11.413   4.837  -1.064  0.00  0.00    +0.126 A 
ATOM     24  C   UNL     1      11.639   3.479  -0.934  0.00  0.00    +0.033 A 
ATOM     25  C   UNL     1      10.666   2.577  -1.320  0.00  0.00    +0.006 A 
BRANCH  23  26
ATOM     26  N   UNL     1      12.453   5.804  -0.647  0.00  0.00    +0.056 N 
ATOM     27  O   UNL     1      12.255   6.991  -0.761  0.00  0.00    -0.126 OA
ATOM     28  O   UNL     1      13.501   5.406  -0.194  0.00  0.00    -0.126 OA
ENDBRANCH  23  26
ENDBRANCH  19  20
ENDBRANCH  18  19
ENDBRANCH   4  18
TORSDOF 6
