REMARK  Name = ZINC36063288
REMARK  13 active torsions:
REMARK  status: ('A' for Active; 'I' for Inactive)
REMARK    1  A    between atoms: C_1  and  C_2
REMARK    2  A    between atoms: C_2  and  C_3
REMARK    3  A    between atoms: C_4  and  C_33
REMARK    4  A    between atoms: C_5  and  C_24
REMARK    5  A    between atoms: C_8  and  C_13
REMARK    6  A    between atoms: C_14  and  N_16
REMARK    7  A    between atoms: N_16  and  C_17
REMARK    8  A    between atoms: C_17  and  C_18
REMARK    9  A    between atoms: C_27  and  C_30
REMARK   10  A    between atoms: C_30  and  C_31
REMARK   11  A    between atoms: C_30  and  C_32
REMARK   12  A    between atoms: C_33  and  O_35
REMARK   13  A    between atoms: O_35  and  C_36
REMARK                            x       y       z     vdW  Elec       q    Type
REMARK                         _______ _______ _______ _____ _____    ______ ____
ROOT
ATOM      1  C   UNL     1       0.541  -0.929  -1.451  0.00  0.00    +0.056 C 
ATOM      2  C   UNL     1       1.911  -1.045  -1.316  0.00  0.00    +0.083 C 
ATOM      3  C   UNL     1       2.721  -1.324  -2.562  0.00  0.00    +0.150 C 
ATOM      4  N   UNL     1       1.973  -1.452  -3.841  0.00  0.00    -0.267 N 
ATOM      5  C   UNL     1       2.502  -1.704  -5.092  0.00  0.00    +0.048 C 
ATOM      6  C   UNL     1       1.642  -1.784  -6.131  0.00  0.00    +0.072 C 
ATOM      7  S   UNL     1       0.073  -1.500  -5.335  0.00  0.00    -0.060 S 
ATOM      8  C   UNL     1       0.617  -1.303  -3.760  0.00  0.00    +0.166 C 
ATOM      9  N   UNL     1      -0.030  -1.065  -2.637  0.00  0.00    -0.229 NA
ENDROOT
BRANCH   3  10
ATOM     10  C   UNL     1       3.485  -2.604  -2.342  0.00  0.00    -0.022 A 
ATOM     11  C   UNL     1       2.841  -3.822  -2.459  0.00  0.00    +0.006 A 
ATOM     12  C   UNL     1       3.542  -4.996  -2.257  0.00  0.00    +0.004 A 
ATOM     13  C   UNL     1       4.886  -4.953  -1.938  0.00  0.00    -0.045 A 
ATOM     14  C   UNL     1       5.530  -3.735  -1.823  0.00  0.00    +0.004 A 
ATOM     15  C   UNL     1       4.830  -2.561  -2.029  0.00  0.00    +0.006 A 
BRANCH  13  16
ATOM     16  C   UNL     1       5.649  -6.233  -1.717  0.00  0.00    +0.013 C 
ATOM     17  C   UNL     1       6.796  -6.324  -2.726  0.00  0.00    +0.012 C 
ATOM     18  C   UNL     1       6.218  -6.249  -0.297  0.00  0.00    +0.012 C 
ENDBRANCH  13  16
ENDBRANCH   3  10
BRANCH   5  19
ATOM     19  C   UNL     1       3.948  -1.879  -5.285  0.00  0.00    +0.091 C 
ATOM     20  C   UNL     1       4.424  -2.278  -6.480  0.00  0.00    +0.239 C 
ATOM     21  O   UNL     1       3.584  -2.404  -7.537  0.00  0.00    -0.271 OA
BRANCH  20  22
ATOM     22  N   UNL     1       5.772  -2.558  -6.630  0.00  0.00    -0.308 N 
ATOM     23  H   UNL     1       6.360  -2.539  -5.859  0.00  0.00    +0.149 HD
BRANCH  22  24
ATOM     24  C   UNL     1       6.310  -2.883  -7.954  0.00  0.00    +0.139 C 
BRANCH  24  25
ATOM     25  C   UNL     1       7.763  -3.263  -7.826  0.00  0.00    -0.030 A 
ATOM     26  C   UNL     1       8.742  -2.291  -7.915  0.00  0.00    +0.005 A 
ATOM     27  C   UNL     1      10.074  -2.639  -7.798  0.00  0.00    +0.000 A 
ATOM     28  C   UNL     1      10.428  -3.959  -7.591  0.00  0.00    +0.000 A 
ATOM     29  C   UNL     1       9.449  -4.931  -7.501  0.00  0.00    +0.000 A 
ATOM     30  C   UNL     1       8.116  -4.582  -7.614  0.00  0.00    +0.005 A 
ENDBRANCH  24  25
ENDBRANCH  22  24
ENDBRANCH  20  22
ENDBRANCH   5  19
BRANCH   1  32
ATOM     31  C   UNL     1      -0.343   0.855   0.027  0.00  0.00    +0.010 C 
ATOM     32  C   UNL     1      -0.310  -0.651  -0.239  0.00  0.00    +0.053 C 
ENDBRANCH   1  32
BRANCH   2  33
ATOM     33  C   UNL     1       2.529  -0.907  -0.067  0.00  0.00    +0.339 C 
ATOM     34  O   UNL     1       1.851  -0.760   0.935  0.00  0.00    -0.245 OA
BRANCH  33  35
ATOM     35  O   UNL     1       3.877  -0.939   0.027  0.00  0.00    -0.465 OA
ATOM     36  C   UNL     1       4.439  -0.793   1.332  0.00  0.00    +0.280 C 
ENDBRANCH  33  35
ENDBRANCH   2  33
TORSDOF 9
