REMARK  Name = ZINC20001250
REMARK  6 active torsions:
REMARK  status: ('A' for Active; 'I' for Inactive)
REMARK    1  A    between atoms: C_1  and  C_2
REMARK    2  A    between atoms: C_6  and  C_20
REMARK    3  A    between atoms: C_7  and  N_8
REMARK    4  A    between atoms: N_8  and  S_9
REMARK    5  A    between atoms: S_9  and  C_12
REMARK    6  A    between atoms: N_18  and  N_19
REMARK                            x       y       z     vdW  Elec       q    Type
REMARK                         _______ _______ _______ _____ _____    ______ ____
ROOT
ATOM      1  S   UNL     1      -3.754   3.381  -0.381  0.00  0.00    +0.074 S 
ATOM      2  O   UNL     1      -4.682   4.421  -0.659  0.00  0.00    -0.150 OA
ATOM      3  O   UNL     1      -3.630   2.231  -1.205  0.00  0.00    -0.150 OA
ENDROOT
BRANCH   1   4
ATOM      4  C   UNL     1      -4.120   2.801   1.242  0.00  0.00    +0.127 A 
ATOM      5  C   UNL     1      -4.679   3.656   2.184  0.00  0.00    +0.034 A 
ATOM      6  C   UNL     1      -4.951   3.160   3.446  0.00  0.00    +0.046 A 
ATOM      7  C   UNL     1      -4.658   1.830   3.728  0.00  0.00    +0.132 A 
ATOM      8  N   UNL     1      -4.126   1.046   2.803  0.00  0.00    -0.237 NA
ATOM      9  C   UNL     1      -3.861   1.490   1.589  0.00  0.00    +0.141 A 
ATOM     10  N   UNL     1      -4.926   1.319   4.993  0.00  0.00    -0.268 N 
ATOM     11  H   UNL     1      -5.368   1.966   5.765  0.00  0.00    +0.167 HD
BRANCH  10  12
ATOM     12  N   UNL     1      -4.640   0.013   5.277  0.00  0.00    -0.255 NA
ATOM     13  H   UNL     1      -4.920  -0.205   6.318  0.00  0.00    +0.140 HD
ATOM     14  H   UNL     1      -5.208  -0.641   4.599  0.00  0.00    +0.140 HD
ENDBRANCH  10  12
ENDBRANCH   1   4
BRANCH   1  15
ATOM     15  N   UNL     1      -2.257   4.086  -0.322  0.00  0.00    -0.216 N 
ATOM     16  H   UNL     1      -2.151   5.168  -0.493  0.00  0.00    +0.174 HD
BRANCH  15  23
ATOM     17  C   UNL     1      -1.431   2.204  -2.289  0.00  0.00    +0.046 C 
ATOM     18  C   UNL     1      -0.690   2.376  -0.988  0.00  0.00    -0.027 A 
ATOM     19  C   UNL     1       0.423   1.603  -0.720  0.00  0.00    +0.020 A 
ATOM     20  C   UNL     1       1.108   1.764   0.472  0.00  0.00    +0.018 A 
ATOM     21  C   UNL     1       0.676   2.694   1.401  0.00  0.00    +0.020 A 
ATOM     22  C   UNL     1      -0.439   3.466   1.140  0.00  0.00    -0.027 A 
ATOM     23  C   UNL     1      -1.128   3.307  -0.056  0.00  0.00    +0.054 A 
ATOM     24  C   UNL     1      -0.909   4.479   2.152  0.00  0.00    +0.046 C 
ATOM     25 BR   UNL     1       2.635   0.709   0.832  0.00  0.00    -0.050 Br
ENDBRANCH  15  23
ENDBRANCH   1  15
TORSDOF 4
