REMARK  Name = ZINC40975034
REMARK  9 active torsions:
REMARK  status: ('A' for Active; 'I' for Inactive)
REMARK    1  A    between atoms: C_1  and  C_2
REMARK    2  A    between atoms: C_2  and  C_3
REMARK    3  A    between atoms: C_3  and  C_4
REMARK    4  A    between atoms: C_4  and  C_5
REMARK    5  A    between atoms: C_5  and  C_6
REMARK    6  A    between atoms: C_6  and  N_7
REMARK    7  A    between atoms: C_10  and  C_13
REMARK    8  A    between atoms: C_20  and  C_29
REMARK    9  A    between atoms: C_21  and  C_22
REMARK                            x       y       z     vdW  Elec       q    Type
REMARK                         _______ _______ _______ _____ _____    ______ ____
ROOT
ATOM      1  C   UNL     1       4.812  -6.466  -6.445  0.00  0.00    -0.040 A 
ATOM      2  C   UNL     1       4.293  -5.980  -7.655  0.00  0.00    +0.022 A 
ATOM      3  C   UNL     1       4.849  -6.350  -8.830  0.00  0.00    +0.093 A 
ATOM      4  N   UNL     1       5.916  -7.197  -8.857  0.00  0.00    -0.297 N 
ATOM      5  C   UNL     1       6.445  -7.688  -7.694  0.00  0.00    +0.139 A 
ATOM      6  C   UNL     1       5.881  -7.308  -6.460  0.00  0.00    +0.050 A 
ATOM      7  N   UNL     1       7.466  -8.483  -7.991  0.00  0.00    -0.227 NA
ATOM      8  C   UNL     1       7.628  -8.530  -9.316  0.00  0.00    +0.099 A 
ATOM      9  C   UNL     1       6.656  -7.722  -9.895  0.00  0.00    +0.100 A 
ENDROOT
BRANCH   9  10
ATOM     10  C   UNL     1       6.456  -7.476 -11.331  0.00  0.00    +0.095 A 
ATOM     11  C   UNL     1       5.198  -7.092 -11.821  0.00  0.00    +0.050 A 
ATOM     12  C   UNL     1       5.061  -6.872 -13.176  0.00  0.00    +0.116 A 
ATOM     13  N   UNL     1       6.111  -7.028 -13.970  0.00  0.00    -0.223 NA
ATOM     14  C   UNL     1       7.289  -7.391 -13.483  0.00  0.00    +0.213 A 
ATOM     15  N   UNL     1       7.470  -7.608 -12.190  0.00  0.00    -0.213 NA
ATOM     16  N   UNL     1       8.359  -7.542 -14.348  0.00  0.00    -0.327 N 
ATOM     17  H   UNL     1       8.241  -7.383 -15.297  0.00  0.00    +0.145 HD
ATOM     18  H   UNL     1       9.226  -7.808 -14.005  0.00  0.00    +0.145 HD
ENDBRANCH   9  10
BRANCH   1  22
ATOM     19  N   UNL     1       2.163  -4.524  -3.741  0.00  0.00    +0.380 N 
ATOM     20  C   UNL     1       3.571  -4.109  -3.696  0.00  0.00    -0.078 C 
ATOM     21  C   UNL     1       4.272  -4.529  -4.990  0.00  0.00    -0.011 C 
ATOM     22  C   UNL     1       4.192  -6.052  -5.136  0.00  0.00    +0.016 C 
ATOM     23  C   UNL     1       2.722  -6.481  -5.106  0.00  0.00    -0.011 C 
ATOM     24  C   UNL     1       2.078  -5.988  -3.809  0.00  0.00    -0.078 C 
ATOM     25  H   UNL     1       1.723  -4.125  -4.556  0.00  0.00    -0.082 HD
BRANCH  19  26
ATOM     26  C   UNL     1       1.476  -4.051  -2.532  0.00  0.00    -0.079 C 
BRANCH  26  27
ATOM     27  C   UNL     1       1.455  -2.521  -2.524  0.00  0.00    -0.019 C 
BRANCH  27  28
ATOM     28  C   UNL     1       0.739  -2.027  -1.265  0.00  0.00    -0.002 C 
BRANCH  28  29
ATOM     29  C   UNL     1       0.718  -0.497  -1.257  0.00  0.00    -0.000 C 
BRANCH  29  31
ATOM     30  C   UNL     1      -0.019   1.526   0.010  0.00  0.00    +0.004 C 
ATOM     31  C   UNL     1       0.002  -0.004   0.002  0.00  0.00    -0.003 C 
ENDBRANCH  29  31
ENDBRANCH  28  29
ENDBRANCH  27  28
ENDBRANCH  26  27
ENDBRANCH  19  26
ENDBRANCH   1  22
BRANCH   8  32
ATOM     32  C   UNL     1       8.660  -9.307 -10.042  0.00  0.00    +0.003 A 
ATOM     33  C   UNL     1       8.366  -9.876 -11.280  0.00  0.00    +0.013 A 
ATOM     34  C   UNL     1       9.330 -10.598 -11.952  0.00  0.00    +0.039 A 
ATOM     35  C   UNL     1      10.590 -10.759 -11.398  0.00  0.00    +0.123 A 
ATOM     36  C   UNL     1      10.887 -10.195 -10.167  0.00  0.00    +0.039 A 
ATOM     37  C   UNL     1       9.931  -9.467  -9.491  0.00  0.00    +0.013 A 
ATOM     38  F   UNL     1      11.531 -11.467 -12.059  0.00  0.00    -0.205 F 
ENDBRANCH   8  32
TORSDOF 8
