REMARK  Name = ZINC36525600
REMARK  11 active torsions:
REMARK  status: ('A' for Active; 'I' for Inactive)
REMARK    1  A    between atoms: C_1  and  C_2
REMARK    2  A    between atoms: C_4  and  C_15
REMARK    3  A    between atoms: C_12  and  C_13
REMARK    4  A    between atoms: C_12  and  C_14
REMARK    5  A    between atoms: N_17  and  C_18
REMARK    6  A    between atoms: N_17  and  C_19
REMARK    7  A    between atoms: C_19  and  C_21
REMARK    8  A    between atoms: C_19  and  C_30
REMARK    9  A    between atoms: C_21  and  C_23
REMARK   10  A    between atoms: C_21  and  C_24
REMARK   11  A    between atoms: N_32  and  C_33
REMARK                            x       y       z     vdW  Elec       q    Type
REMARK                         _______ _______ _______ _____ _____    ______ ____
ROOT
ATOM      1  C   UNL     1      -1.029  -2.868  -3.863  0.00  0.00    +0.169 C 
ENDROOT
BRANCH   1   4
ATOM      2  C   UNL     1      -0.350  -1.522  -1.949  0.00  0.00    +0.219 C 
ATOM      3  O   UNL     1      -1.388  -1.827  -1.401  0.00  0.00    -0.275 OA
ATOM      4  N   UNL     1      -0.051  -2.036  -3.159  0.00  0.00    -0.292 N 
ATOM      5  C   UNL     1       1.253  -1.762  -3.768  0.00  0.00    +0.133 C 
BRANCH   2   8
ATOM      6  C   UNL     1       1.634   1.497  -2.310  0.00  0.00    +0.008 C 
ATOM      7  C   UNL     1       0.365   0.862  -1.751  0.00  0.00    +0.001 C 
ATOM      8  C   UNL     1       0.604  -0.567  -1.278  0.00  0.00    +0.079 C 
ATOM      9  C   UNL     1       0.540  -0.715   0.237  0.00  0.00    +0.017 C 
ATOM     10  C   UNL     1      -0.320   0.372   0.886  0.00  0.00    -0.004 C 
ATOM     11  C   UNL     1      -1.447   0.890  -0.021  0.00  0.00    +0.008 C 
ATOM     12  C   UNL     1      -0.322   1.719  -0.696  0.00  0.00    -0.001 C 
ATOM     13  C   UNL     1       0.305   1.770   0.696  0.00  0.00    -0.029 C 
ATOM     14  C   UNL     1       1.827   1.804   0.784  0.00  0.00    +0.011 C 
ATOM     15  C   UNL     1      -0.324   2.834   1.616  0.00  0.00    +0.011 C 
ENDBRANCH   2   8
ENDBRANCH   1   4
BRANCH   1  16
ATOM     16  C   UNL     1      -1.372  -2.230  -5.185  0.00  0.00    +0.234 C 
ATOM     17  O   UNL     1      -0.851  -1.184  -5.507  0.00  0.00    -0.274 OA
ATOM     18  N   UNL     1      -2.258  -2.823  -6.010  0.00  0.00    -0.311 N 
ATOM     19  H   UNL     1      -2.675  -3.661  -5.752  0.00  0.00    +0.149 HD
BRANCH  18  20
ATOM     20  C   UNL     1      -2.591  -2.203  -7.294  0.00  0.00    +0.073 C 
ATOM     21  C   UNL     1      -3.699  -1.167  -7.089  0.00  0.00    +0.022 C 
ATOM     22  C   UNL     1      -4.047  -0.520  -8.431  0.00  0.00    +0.002 C 
ATOM     23  C   UNL     1      -4.529  -1.595  -9.406  0.00  0.00    +0.000 C 
ATOM     24  C   UNL     1      -3.422  -2.631  -9.611  0.00  0.00    +0.002 C 
ATOM     25  C   UNL     1      -3.074  -3.279  -8.270  0.00  0.00    +0.022 C 
ENDBRANCH  18  20
ENDBRANCH   1  16
BRANCH   1  26
ATOM     26  C   UNL     1      -0.436  -4.257  -4.106  0.00  0.00    +0.045 C 
ATOM     27  C   UNL     1      -0.087  -4.905  -2.764  0.00  0.00    +0.015 C 
BRANCH  26  28
ATOM     28  C   UNL     1      -1.442  -5.114  -4.831  0.00  0.00    -0.042 A 
ATOM     29  C   UNL     1      -2.674  -5.367  -4.258  0.00  0.00    +0.004 A 
ATOM     30  C   UNL     1      -3.597  -6.153  -4.923  0.00  0.00    +0.000 A 
ATOM     31  C   UNL     1      -3.288  -6.684  -6.161  0.00  0.00    +0.000 A 
ATOM     32  C   UNL     1      -2.056  -6.430  -6.734  0.00  0.00    +0.000 A 
ATOM     33  C   UNL     1      -1.135  -5.641  -6.072  0.00  0.00    +0.004 A 
ENDBRANCH  26  28
ENDBRANCH   1  26
TORSDOF 6
