REMARK  Name = ZINC19530086
REMARK  11 active torsions:
REMARK  status: ('A' for Active; 'I' for Inactive)
REMARK    1  A    between atoms: C_1  and  C_2
REMARK    2  A    between atoms: C_3  and  C_29
REMARK    3  A    between atoms: N_4  and  C_23
REMARK    4  A    between atoms: C_5  and  N_9
REMARK    5  A    between atoms: C_6  and  C_7
REMARK    6  A    between atoms: C_10  and  C_12
REMARK    7  A    between atoms: C_12  and  N_13
REMARK    8  A    between atoms: N_13  and  C_14
REMARK    9  A    between atoms: N_13  and  C_15
REMARK   10  A    between atoms: C_15  and  C_16
REMARK   11  A    between atoms: C_23  and  C_24
REMARK                            x       y       z     vdW  Elec       q    Type
REMARK                         _______ _______ _______ _____ _____    ______ ____
ROOT
ATOM      1  N   UNL     1       1.721   3.146   0.332  0.00  0.00    -0.272 N 
ATOM      2  C   UNL     1       3.033   3.382   0.135  0.00  0.00    +0.202 C 
ATOM      3  O   UNL     1       3.793   2.458  -0.062  0.00  0.00    -0.278 OA
ATOM      4  H   UNL     1       1.017   3.988   0.416  0.00  0.00    +0.156 HD
ENDROOT
BRANCH   1   9
ATOM      5  C   UNL     1       1.377  -1.818   1.213  0.00  0.00    +0.047 C 
ATOM      6  C   UNL     1       1.069  -0.398   0.815  0.00  0.00    -0.011 A 
ATOM      7  C   UNL     1      -0.086   0.060   0.305  0.00  0.00    +0.022 A 
ATOM      8  N   UNL     1       0.023   1.405   0.072  0.00  0.00    -0.324 N 
ATOM      9  C   UNL     1       1.258   1.843   0.429  0.00  0.00    +0.124 A 
ATOM     10  C   UNL     1       1.974   0.755   0.907  0.00  0.00    +0.095 A 
ATOM     11  C   UNL     1      -1.310  -0.776   0.034  0.00  0.00    +0.064 C 
BRANCH  10  12
ATOM     12  C   UNL     1       3.320   0.757   1.398  0.00  0.00    +0.103 C 
ATOM     13  N   UNL     1       4.387   0.759   1.787  0.00  0.00    -0.191 NA
ENDBRANCH  10  12
BRANCH   8  14
ATOM     14  C   UNL     1      -1.040   2.248  -0.481  0.00  0.00    +0.197 C 
BRANCH  14  15
ATOM     15  C   UNL     1      -1.949   2.704   0.631  0.00  0.00    +0.124 A 
ATOM     16  C   UNL     1      -1.852   3.867   1.300  0.00  0.00    +0.046 A 
ATOM     17  C   UNL     1      -2.901   3.884   2.247  0.00  0.00    +0.041 A 
ATOM     18  C   UNL     1      -3.572   2.727   2.106  0.00  0.00    +0.195 A 
ATOM     19  O   UNL     1      -2.991   2.016   1.125  0.00  0.00    -0.466 OA
ENDBRANCH  14  15
ENDBRANCH   8  14
ENDBRANCH   1   9
BRANCH   2  20
ATOM     20  C   UNL     1       3.556   4.796   0.158  0.00  0.00    +0.019 C 
BRANCH  20  21
ATOM     21  N   UNL     1       5.019   4.778   0.031  0.00  0.00    +0.386 N 
ATOM     22  C   UNL     1       5.425   4.413  -1.333  0.00  0.00    -0.095 C 
ATOM     23  H   UNL     1       5.409   4.011   0.716  0.00  0.00    -0.081 HD
BRANCH  21  24
ATOM     24  C   UNL     1       5.597   6.070   0.424  0.00  0.00    -0.042 C 
BRANCH  24  25
ATOM     25  C   UNL     1       7.101   5.969   0.424  0.00  0.00    -0.050 A 
ATOM     26  C   UNL     1       7.771   5.627   1.584  0.00  0.00    +0.003 A 
ATOM     27  C   UNL     1       9.150   5.530   1.583  0.00  0.00    +0.000 A 
ATOM     28  C   UNL     1       9.860   5.783   0.424  0.00  0.00    +0.001 A 
ATOM     29  C   UNL     1       9.192   6.130  -0.735  0.00  0.00    +0.015 A 
ATOM     30  C   UNL     1       7.811   6.223  -0.736  0.00  0.00    +0.019 A 
ATOM     31 BR   UNL     1       6.896   6.698  -2.321  0.00  0.00    -0.050 Br
ENDBRANCH  24  25
ENDBRANCH  21  24
ENDBRANCH  20  21
ENDBRANCH   2  20
TORSDOF 8
