REMARK  Name = ZINC38748312
REMARK  4 active torsions:
REMARK  status: ('A' for Active; 'I' for Inactive)
REMARK    1  A    between atoms: C_7  and  C_25
REMARK    2  A    between atoms: N_15  and  C_18
REMARK    3  A    between atoms: C_27  and  O_41
REMARK    4  A    between atoms: N_29  and  C_35
REMARK                            x       y       z     vdW  Elec       q    Type
REMARK                         _______ _______ _______ _____ _____    ______ ____
ROOT
ATOM      1  C   UNL     1      -1.714   0.129   0.322  0.00  0.00    +0.001 A 
ATOM      2  C   UNL     1      -1.302   1.378  -0.106  0.00  0.00    +0.004 A 
ATOM      3  C   UNL     1      -0.114   1.513  -0.794  0.00  0.00    +0.046 A 
ATOM      4  C   UNL     1       0.671   0.395  -1.062  0.00  0.00    +0.133 A 
ATOM      5  C   UNL     1       0.254  -0.855  -0.639  0.00  0.00    +0.000 A 
ATOM      6  C   UNL     1      -0.938  -0.982   0.056  0.00  0.00    +0.007 A 
ATOM      7  C   UNL     1       1.058  -2.100  -0.920  0.00  0.00    +0.059 C 
ATOM      8  C   UNL     1       2.508  -1.718  -1.234  0.00  0.00    +0.167 C 
ATOM      9  C   UNL     1       2.477  -0.533  -2.169  0.00  0.00    +0.202 C 
ATOM     10  N   UNL     1       3.028  -0.564  -3.342  0.00  0.00    -0.131 NA
ATOM     11  C   UNL     1       3.655  -1.649  -3.820  0.00  0.00    +0.335 C 
ATOM     12  O   UNL     1       4.161  -1.603  -4.926  0.00  0.00    -0.250 OA
ATOM     13  N   UNL     1       3.739  -2.784  -3.108  0.00  0.00    -0.221 N 
ATOM     14  C   UNL     1       3.213  -2.880  -1.872  0.00  0.00    +0.236 C 
ATOM     15  O   UNL     1       3.308  -3.923  -1.261  0.00  0.00    -0.274 OA
ATOM     16  O   UNL     1       1.840   0.573  -1.736  0.00  0.00    -0.443 OA
ENDROOT
BRANCH   7  17
ATOM     17  C   UNL     1       0.455  -2.836  -2.118  0.00  0.00    +0.131 C 
ATOM     18  C   UNL     1      -1.068  -2.679  -2.101  0.00  0.00    +0.219 C 
ATOM     19  N   UNL     1      -1.634  -3.509  -1.036  0.00  0.00    -0.256 N 
ATOM     20  C   UNL     1      -1.101  -4.704  -0.736  0.00  0.00    +0.311 C 
ATOM     21  O   UNL     1      -1.656  -5.412   0.081  0.00  0.00    -0.252 OA
ATOM     22  N   UNL     1       0.030  -5.136  -1.317  0.00  0.00    -0.240 N 
ATOM     23  C   UNL     1       0.803  -4.301  -2.038  0.00  0.00    +0.228 C 
ATOM     24  O   UNL     1       1.777  -4.725  -2.622  0.00  0.00    -0.275 OA
ATOM     25  H   UNL     1       0.295  -6.064  -1.216  0.00  0.00    +0.159 HD
BRANCH  19  26
ATOM     26  C   UNL     1      -2.797  -3.027  -0.287  0.00  0.00    +0.080 C 
ATOM     27  C   UNL     1      -2.551  -3.214   1.212  0.00  0.00    +0.022 C 
ATOM     28  C   UNL     1      -3.766  -2.712   1.994  0.00  0.00    +0.002 C 
ATOM     29  C   UNL     1      -5.005  -3.507   1.577  0.00  0.00    +0.000 C 
ATOM     30  C   UNL     1      -5.251  -3.320   0.079  0.00  0.00    +0.002 C 
ATOM     31  C   UNL     1      -4.036  -3.822  -0.704  0.00  0.00    +0.022 C 
ENDBRANCH  19  26
BRANCH  18  32
ATOM     32  O   UNL     1      -1.402  -1.309  -1.867  0.00  0.00    -0.373 OA
ATOM     33  H   UNL     1      -2.335  -1.101  -2.016  0.00  0.00    +0.212 HD
ENDBRANCH  18  32
ENDBRANCH   7  17
BRANCH  13  34
ATOM     34  C   UNL     1       4.420  -3.945  -3.687  0.00  0.00    +0.086 C 
ATOM     35  C   UNL     1       5.904  -3.624  -3.874  0.00  0.00    +0.023 C 
ATOM     36  C   UNL     1       6.616  -4.836  -4.479  0.00  0.00    +0.002 C 
ATOM     37  C   UNL     1       5.991  -5.170  -5.835  0.00  0.00    +0.000 C 
ATOM     38  C   UNL     1       4.507  -5.491  -5.648  0.00  0.00    +0.002 C 
ATOM     39  C   UNL     1       3.795  -4.279  -5.043  0.00  0.00    +0.023 C 
ENDBRANCH  13  34
TORSDOF 4
