REMARK  Name = ZINC13786283
REMARK  6 active torsions:
REMARK  status: ('A' for Active; 'I' for Inactive)
REMARK    1  A    between atoms: C_3  and  N_32
REMARK    2  A    between atoms: C_6  and  N_7
REMARK    3  A    between atoms: C_8  and  C_10
REMARK    4  A    between atoms: C_10  and  N_60
REMARK    5  A    between atoms: C_13  and  O_31
REMARK    6  A    between atoms: C_20  and  C_22
REMARK                            x       y       z     vdW  Elec       q    Type
REMARK                         _______ _______ _______ _____ _____    ______ ____
ROOT
ATOM      1  C   UNL     1      -0.701   1.454  -3.495  0.00  0.00    -0.075 C 
ATOM      2  C   UNL     1      -0.141   1.100  -2.115  0.00  0.00    +0.016 C 
ATOM      3  C   UNL     1      -0.838   1.957  -1.057  0.00  0.00    +0.066 C 
ATOM      4  C   UNL     1      -0.333   1.581   0.337  0.00  0.00    +0.035 C 
ATOM      5  C   UNL     1      -1.036   2.450   1.382  0.00  0.00    +0.003 C 
ATOM      6  C   UNL     1      -2.548   2.227   1.303  0.00  0.00    +0.000 C 
ATOM      7  C   UNL     1      -3.052   2.591  -0.096  0.00  0.00    +0.005 C 
ATOM      8  C   UNL     1      -2.348   1.713  -1.130  0.00  0.00    +0.011 C 
ATOM      9  C   UNL     1      -2.845   2.058  -2.534  0.00  0.00    -0.031 C 
ATOM     10  N   UNL     1      -2.155   1.186  -3.511  0.00  0.00    +0.390 N 
ATOM     11  H   UNL     1      -2.316   0.206  -3.253  0.00  0.00    -0.080 HD
ENDROOT
BRANCH   9  12
ATOM     12  C   UNL     1      -2.563   3.509  -2.825  0.00  0.00    -0.057 A 
ATOM     13  C   UNL     1      -1.771   3.855  -3.904  0.00  0.00    +0.006 A 
ATOM     14  C   UNL     1      -1.512   5.185  -4.178  0.00  0.00    +0.050 A 
ATOM     15  C   UNL     1      -2.040   6.176  -3.365  0.00  0.00    +0.166 A 
ATOM     16  C   UNL     1      -2.833   5.827  -2.275  0.00  0.00    +0.166 A 
ATOM     17  C   UNL     1      -3.092   4.492  -2.010  0.00  0.00    +0.051 A 
ATOM     18  O   UNL     1      -3.226   6.969  -1.638  0.00  0.00    -0.453 OA
ATOM     19  C   UNL     1      -3.004   8.032  -2.583  0.00  0.00    +0.466 C 
ATOM     20  O   UNL     1      -1.935   7.536  -3.411  0.00  0.00    -0.453 OA
ENDBRANCH   9  12
BRANCH   3  21
ATOM     21  O   UNL     1      -0.566   3.338  -1.306  0.00  0.00    -0.388 OA
ATOM     22  H   UNL     1       0.373   3.566  -1.271  0.00  0.00    +0.210 HD
ENDBRANCH   3  21
BRANCH  10  23
ATOM     23  C   UNL     1      -2.696   1.420  -4.866  0.00  0.00    +0.020 C 
BRANCH  23  25
ATOM     24  N   UNL     1      -4.803   0.952  -6.074  0.00  0.00    -0.287 N 
ATOM     25  C   UNL     1      -4.103   0.883  -4.924  0.00  0.00    +0.201 C 
ATOM     26  O   UNL     1      -4.605   0.389  -3.937  0.00  0.00    -0.278 OA
ATOM     27  H   UNL     1      -4.432   1.415  -6.841  0.00  0.00    +0.155 HD
BRANCH  24  33
ATOM     28  C   UNL     1      -6.375  -0.737  -5.360  0.00  0.00    +0.025 A 
ATOM     29  C   UNL     1      -7.623  -1.321  -5.444  0.00  0.00    +0.034 A 
ATOM     30  C   UNL     1      -8.561  -0.828  -6.333  0.00  0.00    +0.126 A 
ATOM     31  C   UNL     1      -8.253   0.255  -7.136  0.00  0.00    +0.034 A 
ATOM     32  C   UNL     1      -7.008   0.847  -7.053  0.00  0.00    +0.025 A 
ATOM     33  C   UNL     1      -6.065   0.354  -6.161  0.00  0.00    +0.033 A 
BRANCH  30  34
ATOM     34  N   UNL     1      -9.896  -1.461  -6.426  0.00  0.00    +0.056 N 
ATOM     35  O   UNL     1     -10.722  -1.028  -7.209  0.00  0.00    -0.126 OA
ATOM     36  O   UNL     1     -10.168  -2.414  -5.719  0.00  0.00    -0.126 OA
ENDBRANCH  30  34
ENDBRANCH  24  33
ENDBRANCH  23  25
ENDBRANCH  10  23
TORSDOF 6
