REMARK  Name = ZINC39687156
REMARK  7 active torsions:
REMARK  status: ('A' for Active; 'I' for Inactive)
REMARK    1  A    between atoms: C_1  and  C_2
REMARK    2  A    between atoms: C_2  and  C_4
REMARK    3  A    between atoms: C_2  and  N_12
REMARK    4  A    between atoms: C_4  and  C_5
REMARK    5  A    between atoms: C_13  and  C_15
REMARK    6  A    between atoms: C_26  and  C_28
REMARK    7  A    between atoms: C_31  and  C_33
REMARK                            x       y       z     vdW  Elec       q    Type
REMARK                         _______ _______ _______ _____ _____    ______ ____
ROOT
ATOM      1  C   UNL     1       0.780  -1.133   3.576  0.00  0.00    +0.100 C 
ATOM      2  C   UNL     1       1.973  -0.207   3.907  0.00  0.00    +0.121 C 
ATOM      3  N   UNL     1       1.444   0.739   4.917  0.00  0.00    -0.294 N 
ATOM      4  C   UNL     1       0.577  -0.094   5.784  0.00  0.00    +0.115 C 
ATOM      5  C   UNL     1      -0.132  -1.058   4.812  0.00  0.00    -0.004 C 
ATOM      6  C   UNL     1      -1.500  -0.505   4.426  0.00  0.00    -0.010 C 
ATOM      7  C   UNL     1      -2.407  -0.493   5.660  0.00  0.00    -0.082 C 
ATOM      8  N   UNL     1      -2.539  -1.858   6.186  0.00  0.00    +0.379 N 
ATOM      9  C   UNL     1      -1.232  -2.348   6.640  0.00  0.00    -0.082 C 
ATOM     10  C   UNL     1      -0.276  -2.437   5.448  0.00  0.00    -0.010 C 
ATOM     11  C   UNL     1       1.694   2.059   5.023  0.00  0.00    +0.282 C 
ATOM     12  O   UNL     1       1.179   2.707   5.916  0.00  0.00    -0.267 OA
ATOM     13  H   UNL     1      -3.185  -1.857   6.961  0.00  0.00    -0.086 HD
ATOM     14  H   UNL     1      -2.890  -2.464   5.460  0.00  0.00    -0.086 HD
ENDROOT
BRANCH  11  15
ATOM     15  C   UNL     1       2.586   2.715   4.063  0.00  0.00    +0.190 A 
ATOM     16  C   UNL     1       2.929   4.049   4.059  0.00  0.00    +0.055 A 
ATOM     17  C   UNL     1       3.795   4.240   2.977  0.00  0.00    +0.050 A 
ATOM     18  C   UNL     1       3.946   3.028   2.366  0.00  0.00    +0.136 A 
ATOM     19  O   UNL     1       3.218   2.116   3.031  0.00  0.00    -0.450 OA
BRANCH  18  20
ATOM     20  C   UNL     1       4.777   2.763   1.174  0.00  0.00    +0.017 A 
ATOM     21  C   UNL     1       5.498   3.800   0.578  0.00  0.00    +0.014 A 
ATOM     22  C   UNL     1       6.272   3.547  -0.534  0.00  0.00    +0.039 A 
ATOM     23  C   UNL     1       6.335   2.266  -1.061  0.00  0.00    +0.123 A 
ATOM     24  C   UNL     1       5.621   1.233  -0.474  0.00  0.00    +0.039 A 
ATOM     25  C   UNL     1       4.848   1.474   0.642  0.00  0.00    +0.014 A 
ATOM     26  F   UNL     1       7.096   2.024  -2.151  0.00  0.00    -0.205 F 
ENDBRANCH  18  20
ENDBRANCH  11  15
BRANCH   1  28
ATOM     27  N   UNL     1      -0.569  -1.506   1.537  0.00  0.00    -0.312 N 
ATOM     28  C   UNL     1       0.051  -0.633   2.355  0.00  0.00    +0.218 C 
ATOM     29  O   UNL     1       0.022   0.554   2.110  0.00  0.00    -0.275 OA
ATOM     30  H   UNL     1      -0.546  -2.456   1.733  0.00  0.00    +0.149 HD
BRANCH  27  32
ATOM     31  C   UNL     1      -0.288  -0.865  -0.806  0.00  0.00    +0.028 C 
ATOM     32  C   UNL     1      -1.277  -1.021   0.350  0.00  0.00    +0.074 C 
BRANCH  32  33
ATOM     33  C   UNL     1      -2.364  -2.024  -0.041  0.00  0.00    +0.060 C 
BRANCH  33  34
ATOM     34  C   UNL     1      -3.405  -2.087   1.047  0.00  0.00    -0.010 A 
ATOM     35  C   UNL     1      -3.320  -3.054   2.030  0.00  0.00    +0.006 A 
ATOM     36  C   UNL     1      -4.275  -3.112   3.028  0.00  0.00    +0.000 A 
ATOM     37  C   UNL     1      -5.315  -2.201   3.045  0.00  0.00    +0.003 A 
ATOM     38  C   UNL     1      -5.402  -1.233   2.063  0.00  0.00    +0.038 A 
ATOM     39  C   UNL     1      -4.443  -1.171   1.065  0.00  0.00    +0.127 A 
ATOM     40  F   UNL     1      -4.524  -0.221   0.108  0.00  0.00    -0.205 F 
ENDBRANCH  33  34
ENDBRANCH  32  33
ENDBRANCH  27  32
ENDBRANCH   1  28
TORSDOF 6
