REMARK  Name = ZINC64707805
REMARK  7 active torsions:
REMARK  status: ('A' for Active; 'I' for Inactive)
REMARK    1  A    between atoms: C_1  and  C_2
REMARK    2  A    between atoms: C_2  and  C_4
REMARK    3  A    between atoms: C_2  and  N_13
REMARK    4  A    between atoms: C_14  and  C_16
REMARK    5  A    between atoms: C_16  and  N_17
REMARK    6  A    between atoms: C_20  and  C_25
REMARK    7  A    between atoms: C_25  and  C_26
REMARK                            x       y       z     vdW  Elec       q    Type
REMARK                         _______ _______ _______ _____ _____    ______ ____
ROOT
ATOM      1  N   UNL     1       4.181  -1.104  -2.214  0.00  0.00    -0.216 N 
ATOM      2  C   UNL     1       5.010  -0.068  -2.449  0.00  0.00    +0.244 C 
ATOM      3  O   UNL     1       4.713   1.024  -2.883  0.00  0.00    -0.273 OA
ATOM      4  C   UNL     1       6.392  -0.552  -2.057  0.00  0.00    +0.165 C 
ATOM      5  N   UNL     1       6.160  -1.934  -1.605  0.00  0.00    -0.287 N 
ATOM      6  C   UNL     1       4.840  -2.163  -1.729  0.00  0.00    +0.310 C 
ATOM      7  O   UNL     1       4.306  -3.214  -1.436  0.00  0.00    -0.252 OA
ATOM      8  H   UNL     1       6.827  -2.557  -1.278  0.00  0.00    +0.151 HD
ENDROOT
BRANCH   1   9
ATOM      9  C   UNL     1       2.736  -1.073  -2.455  0.00  0.00    +0.213 C 
BRANCH   9  11
ATOM     10  N   UNL     1       0.688  -0.476  -1.203  0.00  0.00    -0.307 N 
ATOM     11  C   UNL     1       2.031  -0.587  -1.215  0.00  0.00    +0.231 C 
ATOM     12  O   UNL     1       2.672  -0.295  -0.228  0.00  0.00    -0.274 OA
ATOM     13  H   UNL     1       0.175  -0.710  -1.993  0.00  0.00    +0.149 HD
BRANCH  10  15
ATOM     14  C   UNL     1      -0.019   1.526   0.010  0.00  0.00    +0.033 C 
ATOM     15  C   UNL     1       0.002  -0.004   0.002  0.00  0.00    +0.100 C 
BRANCH  15  16
ATOM     16  C   UNL     1      -1.412  -0.526   0.013  0.00  0.00    -0.024 A 
ATOM     17  C   UNL     1      -2.140  -0.568  -1.162  0.00  0.00    +0.009 A 
ATOM     18  C   UNL     1      -3.437  -1.046  -1.157  0.00  0.00    +0.050 A 
ATOM     19  C   UNL     1      -4.011  -1.484   0.026  0.00  0.00    +0.166 A 
ATOM     20  C   UNL     1      -3.277  -1.441   1.209  0.00  0.00    +0.167 A 
ATOM     21  C   UNL     1      -1.976  -0.966   1.196  0.00  0.00    +0.055 A 
ATOM     22  O   UNL     1      -4.055  -1.921   2.222  0.00  0.00    -0.453 OA
ATOM     23  C   UNL     1      -5.405  -1.876   1.725  0.00  0.00    +0.466 C 
ATOM     24  O   UNL     1      -5.248  -1.991   0.298  0.00  0.00    -0.453 OA
ENDBRANCH  15  16
ENDBRANCH  10  15
ENDBRANCH   9  11
ENDBRANCH   1   9
BRANCH   4  25
ATOM     25  C   UNL     1       6.959   0.302  -0.922  0.00  0.00    +0.065 C 
BRANCH  25  26
ATOM     26  C   UNL     1       8.377  -0.120  -0.636  0.00  0.00    -0.039 C 
ATOM     27  C   UNL     1       9.507   0.438  -1.128  0.00  0.00    -0.001 A 
ATOM     28  C   UNL     1       9.745   1.561  -2.042  0.00  0.00    +0.010 A 
ATOM     29  C   UNL     1      11.017   1.893  -2.357  0.00  0.00    +0.001 A 
ATOM     30  C   UNL     1      12.113   1.191  -1.835  0.00  0.00    +0.002 A 
ATOM     31  C   UNL     1      11.974   0.148  -0.989  0.00  0.00    +0.026 A 
ATOM     32  C   UNL     1      10.681  -0.286  -0.589  0.00  0.00    +0.043 A 
ATOM     33  N   UNL     1      10.292  -1.254   0.205  0.00  0.00    -0.380 N 
ATOM     34  C   UNL     1       8.826  -1.250   0.265  0.00  0.00    +0.144 C 
ATOM     35  H   UNL     1      10.876  -1.868   0.677  0.00  0.00    +0.160 HD
ENDBRANCH  25  26
ENDBRANCH   4  25
TORSDOF 6
