REMARK  Name = ZINC22131285
REMARK  8 active torsions:
REMARK  status: ('A' for Active; 'I' for Inactive)
REMARK    1  A    between atoms: C_1  and  C_2
REMARK    2  A    between atoms: C_9  and  C_11
REMARK    3  A    between atoms: C_11  and  C_13
REMARK    4  A    between atoms: C_11  and  N_17
REMARK    5  A    between atoms: C_13  and  C_14
REMARK    6  A    between atoms: C_14  and  C_15
REMARK    7  A    between atoms: C_14  and  C_16
REMARK    8  A    between atoms: C_18  and  C_20
REMARK                            x       y       z     vdW  Elec       q    Type
REMARK                         _______ _______ _______ _____ _____    ______ ____
ROOT
ATOM      1  C   UNL     1      -0.652  -0.701  -2.133  0.00  0.00    +0.160 C 
ENDROOT
BRANCH   1   9
ATOM      2  C   UNL     1      -2.933   4.335   0.664  0.00  0.00    +0.039 C 
ATOM      3  C   UNL     1      -2.685   2.857   0.354  0.00  0.00    +0.132 C 
ATOM      4  C   UNL     1      -1.538   2.731  -0.656  0.00  0.00    +0.139 C 
ATOM      5  N   UNL     1      -1.197   1.307  -0.795  0.00  0.00    -0.295 N 
ATOM      6  C   UNL     1      -0.958   0.529   0.431  0.00  0.00    +0.136 C 
ATOM      7  C   UNL     1      -2.133   0.762   1.389  0.00  0.00    +0.179 C 
ATOM      8  O   UNL     1      -2.332   2.168   1.556  0.00  0.00    -0.374 OA
ATOM      9  C   UNL     1      -1.105   0.731  -2.010  0.00  0.00    +0.236 C 
ATOM     10  O   UNL     1      -1.387   1.365  -3.005  0.00  0.00    -0.274 OA
ENDBRANCH   1   9
BRANCH   1  11
ATOM     11  N   UNL     1      -1.048  -1.228  -3.442  0.00  0.00    -0.300 N 
ATOM     12  C   UNL     1      -1.221  -2.554  -3.610  0.00  0.00    +0.246 C 
ATOM     13  O   UNL     1      -1.048  -3.313  -2.676  0.00  0.00    -0.270 OA
ATOM     14  H   UNL     1      -1.204  -0.541  -4.287  0.00  0.00    +0.150 HD
BRANCH  12  15
ATOM     15  C   UNL     1      -1.620  -3.085  -4.929  0.00  0.00    +0.055 A 
ATOM     16  C   UNL     1      -1.819  -2.216  -6.004  0.00  0.00    +0.016 A 
ATOM     17  C   UNL     1      -2.191  -2.717  -7.233  0.00  0.00    +0.021 A 
ATOM     18  C   UNL     1      -2.368  -4.081  -7.404  0.00  0.00    +0.042 A 
ATOM     19  C   UNL     1      -2.173  -4.949  -6.344  0.00  0.00    +0.040 A 
ATOM     20  C   UNL     1      -1.794  -4.460  -5.109  0.00  0.00    +0.054 A 
ATOM     21 CL   UNL     1      -1.542  -5.550  -3.782  0.00  0.00    -0.083 Cl
ATOM     22 CL   UNL     1      -2.837  -4.703  -8.955  0.00  0.00    -0.083 Cl
ENDBRANCH  12  15
ENDBRANCH   1  11
BRANCH   1  23
ATOM     23  C   UNL     1       0.870  -0.769  -1.995  0.00  0.00    +0.034 C 
BRANCH  23  24
ATOM     24  C   UNL     1       1.315  -2.232  -1.958  0.00  0.00    -0.015 C 
ATOM     25  C   UNL     1       2.843  -2.301  -1.946  0.00  0.00    +0.007 C 
ATOM     26  C   UNL     1       0.764  -2.900  -0.696  0.00  0.00    +0.007 C 
ENDBRANCH  23  24
ENDBRANCH   1  23
TORSDOF 5
