REMARK  Name = ZINC40796799
REMARK  3 active torsions:
REMARK  status: ('A' for Active; 'I' for Inactive)
REMARK    1  A    between atoms: C_14  and  N_31
REMARK    2  A    between atoms: C_15  and  O_19
REMARK    3  A    between atoms: O_19  and  C_20
REMARK                            x       y       z     vdW  Elec       q    Type
REMARK                         _______ _______ _______ _____ _____    ______ ____
ROOT
ATOM      1  C   UNL     1       2.351   1.378   2.703  0.00  0.00    +0.005 A 
ATOM      2  C   UNL     1       2.455   2.044   1.489  0.00  0.00    +0.018 A 
ATOM      3  C   UNL     1       2.574   1.313   0.325  0.00  0.00    +0.084 A 
ATOM      4  N   UNL     1       2.589  -0.006   0.352  0.00  0.00    -0.350 N 
ATOM      5  C   UNL     1       2.492  -0.678   1.489  0.00  0.00    +0.099 A 
ATOM      6  C   UNL     1       2.370  -0.005   2.701  0.00  0.00    +0.042 A 
ATOM      7  N   UNL     1       2.512  -2.067   1.472  0.00  0.00    -0.314 N 
ATOM      8  C   UNL     1       2.537  -2.831   2.728  0.00  0.00    +0.125 C 
ATOM      9  C   UNL     1       1.357  -3.811   2.729  0.00  0.00    +0.125 C 
ATOM     10  N   UNL     1       1.354  -4.543   1.455  0.00  0.00    -0.311 N 
ATOM     11  C   UNL     1       1.329  -3.780   0.199  0.00  0.00    +0.125 C 
ATOM     12  C   UNL     1       2.503  -2.800   0.198  0.00  0.00    +0.125 C 
ATOM     13  C   UNL     1       1.374  -5.932   1.438  0.00  0.00    +0.149 A 
ATOM     14  C   UNL     1       0.184  -6.658   1.341  0.00  0.00    +0.128 A 
ATOM     15  C   UNL     1       0.261  -8.050   1.327  0.00  0.00    +0.246 A 
ATOM     16  N   UNL     1       1.454  -8.630   1.407  0.00  0.00    -0.199 NA
ATOM     17  C   UNL     1       2.554  -7.910   1.498  0.00  0.00    +0.227 A 
ATOM     18  N   UNL     1       2.527  -6.592   1.508  0.00  0.00    -0.219 NA
ATOM     19  H   UNL     1       2.674  -0.496  -0.481  0.00  0.00    +0.166 HD
ENDROOT
BRANCH  14  20
ATOM     20  N   UNL     1      -1.056  -6.004   1.259  0.00  0.00    -0.351 N 
ATOM     21  H   UNL     1      -1.090  -5.037   1.196  0.00  0.00    +0.143 HD
ATOM     22  H   UNL     1      -1.877  -6.519   1.266  0.00  0.00    +0.143 HD
ENDBRANCH  14  20
BRANCH  15  23
ATOM     23  O   UNL     1      -0.865  -8.801   1.235  0.00  0.00    -0.434 OA
BRANCH  23  24
ATOM     24  C   UNL     1      -0.726 -10.147   1.121  0.00  0.00    +0.156 A 
ATOM     25  C   UNL     1      -0.714 -10.740  -0.120  0.00  0.00    +0.049 A 
ATOM     26  C   UNL     1      -0.572 -12.118  -0.252  0.00  0.00    +0.019 A 
ATOM     27  C   UNL     1      -0.441 -12.917   0.844  0.00  0.00    +0.027 A 
ATOM     28  C   UNL     1      -0.449 -12.349   2.128  0.00  0.00    +0.018 A 
ATOM     29  C   UNL     1      -0.588 -10.947   2.275  0.00  0.00    +0.114 A 
ATOM     30  N   UNL     1      -0.591 -10.402   3.495  0.00  0.00    -0.251 NA
ATOM     31  C   UNL     1      -0.463 -11.140   4.571  0.00  0.00    +0.111 A 
ATOM     32  C   UNL     1      -0.317 -12.524   4.498  0.00  0.00    +0.020 A 
ATOM     33  C   UNL     1      -0.318 -13.146   3.282  0.00  0.00    +0.013 A 
ATOM     34 BR   UNL     1      -0.251 -14.787   0.636  0.00  0.00    -0.050 Br
ENDBRANCH  23  24
ENDBRANCH  15  23
TORSDOF 3
