REMARK  Name = ZINC31047259
REMARK  8 active torsions:
REMARK  status: ('A' for Active; 'I' for Inactive)
REMARK    1  A    between atoms: C_1  and  C_2
REMARK    2  A    between atoms: N_7  and  C_9
REMARK    3  A    between atoms: C_12  and  C_15
REMARK    4  A    between atoms: C_15  and  N_16
REMARK    5  A    between atoms: C_17  and  C_19
REMARK    6  A    between atoms: N_24  and  C_26
REMARK    7  A    between atoms: C_26  and  C_27
REMARK    8  A    between atoms: C_29  and  C_32
REMARK                            x       y       z     vdW  Elec       q    Type
REMARK                         _______ _______ _______ _____ _____    ______ ____
ROOT
ATOM      1  C   UNL     1      -0.756   1.594  -1.230  0.00  0.00    +0.058 C 
ATOM      2  C   UNL     1      -0.013   1.086   0.008  0.00  0.00    +0.009 C 
ATOM      3  C   UNL     1      -0.732   1.581   1.266  0.00  0.00    -0.018 C 
ATOM      4  C   UNL     1      -2.185   1.096   1.239  0.00  0.00    -0.078 C 
ATOM      5  N   UNL     1      -2.852   1.610   0.036  0.00  0.00    +0.386 N 
ATOM      6  C   UNL     1      -2.207   1.109  -1.184  0.00  0.00    -0.065 C 
ATOM      7  H   UNL     1      -2.756   2.705   0.042  0.00  0.00    -0.081 HD
ENDROOT
BRANCH   1   9
ATOM      8  N   UNL     1       1.203   1.360  -2.722  0.00  0.00    -0.311 N 
ATOM      9  C   UNL     1      -0.087   1.063  -2.472  0.00  0.00    +0.215 C 
ATOM     10  O   UNL     1      -0.710   0.367  -3.246  0.00  0.00    -0.276 OA
ATOM     11  H   UNL     1       1.769   1.991  -2.020  0.00  0.00    +0.149 HD
BRANCH   8  12
ATOM     12  C   UNL     1       1.853   0.843  -3.929  0.00  0.00    +0.139 C 
BRANCH  12  16
ATOM     13  C   UNL     1       5.909   2.188  -4.050  0.00  0.00    +0.030 A 
ATOM     14  C   UNL     1       5.591   0.988  -3.426  0.00  0.00    +0.023 A 
ATOM     15  C   UNL     1       4.280   0.557  -3.389  0.00  0.00    +0.007 A 
ATOM     16  C   UNL     1       3.283   1.317  -3.972  0.00  0.00    -0.030 A 
ATOM     17  C   UNL     1       3.596   2.509  -4.599  0.00  0.00    +0.007 A 
ATOM     18  C   UNL     1       4.905   2.949  -4.635  0.00  0.00    +0.023 A 
BRANCH  13  24
ATOM     19  C   UNL     1       8.894   5.763  -5.434  0.00  0.00    +0.009 C 
ATOM     20  C   UNL     1       8.777   4.433  -4.688  0.00  0.00    +0.003 C 
ATOM     21  C   UNL     1       9.730   3.411  -5.313  0.00  0.00    +0.006 C 
ATOM     22  C   UNL     1       9.564   2.067  -4.598  0.00  0.00    +0.019 C 
ATOM     23  C   UNL     1       8.105   1.616  -4.703  0.00  0.00    +0.105 C 
ATOM     24  N   UNL     1       7.234   2.627  -4.090  0.00  0.00    -0.330 N 
ATOM     25  C   UNL     1       7.341   3.914  -4.790  0.00  0.00    +0.108 C 
ENDBRANCH  13  24
ENDBRANCH  12  16
ENDBRANCH   8  12
ENDBRANCH   1   9
BRANCH   5  26
ATOM     26  C   UNL     1      -4.284   1.280   0.048  0.00  0.00    +0.022 C 
BRANCH  26  27
ATOM     27  C   UNL     1      -4.959   2.012   1.179  0.00  0.00    +0.211 A 
ATOM     28  N   UNL     1      -5.495   3.205   1.123  0.00  0.00    -0.193 NA
ATOM     29  C   UNL     1      -5.977   3.445   2.363  0.00  0.00    +0.202 A 
ATOM     30  N   UNL     1      -5.701   2.397   3.094  0.00  0.00    -0.056 NA
ATOM     31  O   UNL     1      -5.118   1.567   2.429  0.00  0.00    -0.340 OA
BRANCH  29  32
ATOM     32  C   UNL     1      -6.683   4.671   2.812  0.00  0.00    +0.023 A 
ATOM     33  C   UNL     1      -6.904   5.717   1.919  0.00  0.00    +0.013 A 
ATOM     34  C   UNL     1      -7.567   6.852   2.339  0.00  0.00    +0.021 A 
ATOM     35  C   UNL     1      -8.001   6.958   3.650  0.00  0.00    +0.041 A 
ATOM     36  C   UNL     1      -7.778   5.923   4.543  0.00  0.00    +0.021 A 
ATOM     37  C   UNL     1      -7.122   4.782   4.130  0.00  0.00    +0.013 A 
ATOM     38 CL   UNL     1      -8.827   8.391   4.175  0.00  0.00    -0.084 Cl
ENDBRANCH  29  32
ENDBRANCH  26  27
ENDBRANCH   5  26
TORSDOF 7
