REMARK  Name = ZINC08791554
REMARK  12 active torsions:
REMARK  status: ('A' for Active; 'I' for Inactive)
REMARK    1  A    between atoms: C_1  and  C_2
REMARK    2  A    between atoms: C_2  and  C_3
REMARK    3  A    between atoms: C_2  and  C_4
REMARK    4  A    between atoms: C_4  and  C_5
REMARK    5  A    between atoms: C_5  and  C_7
REMARK    6  A    between atoms: C_5  and  N_15
REMARK    7  A    between atoms: N_9  and  C_10
REMARK    8  A    between atoms: C_10  and  C_11
REMARK    9  A    between atoms: C_11  and  C_12
REMARK   10  A    between atoms: C_12  and  O_13
REMARK   11  A    between atoms: O_13  and  C_14
REMARK   12  A    between atoms: C_16  and  C_18
REMARK                            x       y       z     vdW  Elec       q    Type
REMARK                         _______ _______ _______ _____ _____    ______ ____
ROOT
ATOM      1  C   UNL     1       5.099   0.193  -0.777  0.00  0.00    +0.167 C 
ATOM      2  C   UNL     1       4.623   0.592  -2.182  0.00  0.00    +0.069 C 
ATOM      3  C   UNL     1       4.490   2.090  -2.282  0.00  0.00    -0.015 A 
ATOM      4  C   UNL     1       3.803   2.843  -3.317  0.00  0.00    +0.003 A 
ATOM      5  C   UNL     1       3.086   2.449  -4.451  0.00  0.00    +0.010 A 
ATOM      6  C   UNL     1       2.562   3.451  -5.230  0.00  0.00    +0.001 A 
ATOM      7  C   UNL     1       2.718   4.790  -4.912  0.00  0.00    +0.002 A 
ATOM      8  C   UNL     1       3.424   5.207  -3.796  0.00  0.00    +0.026 A 
ATOM      9  C   UNL     1       3.973   4.212  -2.990  0.00  0.00    +0.047 A 
ATOM     10  N   UNL     1       4.710   4.266  -1.843  0.00  0.00    -0.356 N 
ATOM     11  H   UNL     1       4.982   5.081  -1.392  0.00  0.00    +0.166 HD
ATOM     12  C   UNL     1       5.008   2.998  -1.424  0.00  0.00    +0.046 A 
ATOM     13  C   UNL     1       5.790   2.611  -0.193  0.00  0.00    +0.155 C 
ATOM     14  N   UNL     1       6.105   1.171  -0.352  0.00  0.00    -0.273 N 
ATOM     15  C   UNL     1       7.405   0.988  -0.087  0.00  0.00    +0.248 C 
ATOM     16  O   UNL     1       7.943  -0.091   0.070  0.00  0.00    -0.270 OA
ATOM     17  C   UNL     1       8.082   2.287  -0.014  0.00  0.00    +0.042 A 
ATOM     18  C   UNL     1       7.108   3.302  -0.110  0.00  0.00    -0.009 A 
ATOM     19  C   UNL     1       7.455   4.635  -0.113  0.00  0.00    +0.006 A 
ATOM     20  C   UNL     1       8.809   4.937  -0.002  0.00  0.00    +0.000 A 
ATOM     21  C   UNL     1       9.768   3.951   0.105  0.00  0.00    +0.001 A 
ATOM     22  C   UNL     1       9.437   2.604   0.103  0.00  0.00    +0.013 A 
ENDROOT
BRANCH   1  24
ATOM     23  N   UNL     1       5.083  -2.216  -0.218  0.00  0.00    -0.302 N 
ATOM     24  C   UNL     1       5.710  -1.184  -0.817  0.00  0.00    +0.235 C 
ATOM     25  O   UNL     1       6.765  -1.363  -1.387  0.00  0.00    -0.274 OA
ATOM     26  H   UNL     1       4.206  -2.089   0.175  0.00  0.00    +0.150 HD
BRANCH  23  27
ATOM     27  C   UNL     1       5.728  -3.530  -0.161  0.00  0.00    +0.159 C 
BRANCH  27  28
ATOM     28  C   UNL     1       4.674  -4.606  -0.110  0.00  0.00    +0.233 C 
ATOM     29  O   UNL     1       3.521  -4.314   0.127  0.00  0.00    -0.274 OA
ATOM     30  N   UNL     1       5.012  -5.892  -0.328  0.00  0.00    -0.314 N 
ATOM     31  H   UNL     1       5.944  -6.135  -0.445  0.00  0.00    +0.149 HD
BRANCH  30  32
ATOM     32  C   UNL     1       3.972  -6.923  -0.389  0.00  0.00    +0.106 C 
BRANCH  32  33
ATOM     33  C   UNL     1       4.619  -8.285  -0.645  0.00  0.00    +0.047 C 
BRANCH  33  34
ATOM     34  C   UNL     1       3.534  -9.361  -0.708  0.00  0.00    +0.161 C 
BRANCH  34  35
ATOM     35  O   UNL     1       4.138 -10.634  -0.947  0.00  0.00    -0.383 OA
ATOM     36  C   UNL     1       3.206 -11.715  -1.024  0.00  0.00    +0.193 C 
ENDBRANCH  34  35
ENDBRANCH  33  34
ENDBRANCH  32  33
ENDBRANCH  30  32
ENDBRANCH  27  28
BRANCH  27  37
ATOM     37  C   UNL     1       6.604  -3.615   1.091  0.00  0.00    +0.034 C 
BRANCH  37  39
ATOM     38  C   UNL     1       8.389  -4.910  -0.083  0.00  0.00    +0.007 C 
ATOM     39  C   UNL     1       7.390  -4.927   1.076  0.00  0.00    -0.015 C 
ATOM     40  C   UNL     1       8.144  -5.085   2.398  0.00  0.00    +0.007 C 
ENDBRANCH  37  39
ENDBRANCH  27  37
ENDBRANCH  23  27
ENDBRANCH   1  24
TORSDOF 9
