REMARK  Name = ZINC21254176
REMARK  11 active torsions:
REMARK  status: ('A' for Active; 'I' for Inactive)
REMARK    1  A    between atoms: C_1  and  C_2
REMARK    2  A    between atoms: C_2  and  O_3
REMARK    3  A    between atoms: O_3  and  C_4
REMARK    4  A    between atoms: C_6  and  C_14
REMARK    5  A    between atoms: C_9  and  O_10
REMARK    6  A    between atoms: O_10  and  C_11
REMARK    7  A    between atoms: C_11  and  C_12
REMARK    8  A    between atoms: C_11  and  C_13
REMARK    9  A    between atoms: C_19  and  C_24
REMARK   10  A    between atoms: C_28  and  O_30
REMARK   11  A    between atoms: O_30  and  C_31
REMARK                            x       y       z     vdW  Elec       q    Type
REMARK                         _______ _______ _______ _____ _____    ______ ____
ROOT
ATOM      1  C   UNL     1      -2.906   1.846  -0.585  0.00  0.00    +0.136 C 
ATOM      2  C   UNL     1      -3.147   1.563  -2.049  0.00  0.00    +0.036 C 
ATOM      3  C   UNL     1      -3.255   0.347  -2.609  0.00  0.00    +0.017 C 
ATOM      4  C   UNL     1      -3.472   0.207  -4.107  0.00  0.00    +0.059 C 
ATOM      5  C   UNL     1      -4.297   1.383  -4.627  0.00  0.00    +0.032 C 
ATOM      6  C   UNL     1      -3.522   2.669  -4.319  0.00  0.00    +0.088 C 
ATOM      7  C   UNL     1      -3.261   2.728  -2.844  0.00  0.00    +0.163 C 
ATOM      8  O   UNL     1      -3.143   3.814  -2.312  0.00  0.00    -0.292 OA
ATOM      9  N   UNL     1      -3.182  -0.828  -1.935  0.00  0.00    -0.316 N 
ATOM     10  C   UNL     1      -2.210  -1.142  -0.992  0.00  0.00    +0.052 A 
ATOM     11  C   UNL     1      -1.289  -2.156  -1.189  0.00  0.00    +0.025 A 
ATOM     12  C   UNL     1      -0.375  -2.446  -0.190  0.00  0.00    +0.002 A 
ATOM     13  C   UNL     1      -0.384  -1.730   0.994  0.00  0.00    +0.002 A 
ATOM     14  C   UNL     1      -1.294  -0.705   1.185  0.00  0.00    +0.025 A 
ATOM     15  C   UNL     1      -2.195  -0.398   0.178  0.00  0.00    +0.049 A 
ATOM     16  N   UNL     1      -3.053   0.692   0.278  0.00  0.00    -0.331 N 
ATOM     17  H   UNL     1      -3.928  -1.615  -2.120  0.00  0.00    +0.152 HD
ATOM     18  H   UNL     1      -3.855   0.666   1.030  0.00  0.00    +0.147 HD
ENDROOT
BRANCH   1  21
ATOM     19  C   UNL     1      -0.031   4.169   0.196  0.00  0.00    +0.162 A 
ATOM     20  C   UNL     1      -1.315   3.668   0.055  0.00  0.00    +0.055 A 
ATOM     21  C   UNL     1      -1.508   2.386  -0.425  0.00  0.00    -0.019 A 
ATOM     22  C   UNL     1      -0.422   1.598  -0.756  0.00  0.00    +0.009 A 
ATOM     23  C   UNL     1       0.862   2.091  -0.617  0.00  0.00    +0.050 A 
ATOM     24  C   UNL     1       1.062   3.377  -0.141  0.00  0.00    +0.162 A 
BRANCH  19  25
ATOM     25  O   UNL     1       0.160   5.432   0.664  0.00  0.00    -0.489 OA
BRANCH  25  27
ATOM     26  C   UNL     1      -0.596   7.571   1.495  0.00  0.00    +0.048 C 
ATOM     27  C   UNL     1      -1.008   6.187   0.990  0.00  0.00    +0.226 C 
ENDBRANCH  25  27
ENDBRANCH  19  25
BRANCH  24  28
ATOM     28  O   UNL     1       2.324   3.864  -0.005  0.00  0.00    -0.486 OA
BRANCH  28  29
ATOM     29  C   UNL     1       3.400   2.958  -0.256  0.00  0.00    +0.167 C 
ATOM     30  C   UNL     1       3.708   2.933  -1.754  0.00  0.00    +0.051 C 
ATOM     31  C   UNL     1       4.642   3.416   0.512  0.00  0.00    +0.051 C 
ENDBRANCH  28  29
ENDBRANCH  24  28
ENDBRANCH   1  21
BRANCH   5  32
ATOM     32  C   UNL     1      -4.496   1.249  -6.115  0.00  0.00    -0.040 A 
ATOM     33  C   UNL     1      -3.400   1.218  -6.958  0.00  0.00    +0.004 A 
ATOM     34  C   UNL     1      -3.579   1.095  -8.323  0.00  0.00    +0.004 A 
ATOM     35  C   UNL     1      -4.853   1.003  -8.849  0.00  0.00    +0.045 A 
ATOM     36  C   UNL     1      -5.954   1.034  -8.005  0.00  0.00    +0.120 A 
ATOM     37  C   UNL     1      -5.772   1.153  -6.635  0.00  0.00    +0.049 A 
BRANCH  36  38
ATOM     38  O   UNL     1      -7.208   0.945  -8.520  0.00  0.00    -0.495 OA
ATOM     39  C   UNL     1      -7.320   0.819  -9.939  0.00  0.00    +0.277 C 
ENDBRANCH  36  38
ENDBRANCH   5  32
TORSDOF 7
