REMARK  Name = ZINC63831599
REMARK  10 active torsions:
REMARK  status: ('A' for Active; 'I' for Inactive)
REMARK    1  A    between atoms: C_1  and  O_2
REMARK    2  A    between atoms: O_2  and  C_3
REMARK    3  A    between atoms: C_6  and  C_9
REMARK    4  A    between atoms: C_9  and  C_11
REMARK    5  A    between atoms: C_9  and  C_29
REMARK    6  A    between atoms: C_11  and  N_12
REMARK    7  A    between atoms: C_13  and  C_15
REMARK    8  A    between atoms: C_15  and  N_16
REMARK    9  A    between atoms: N_19  and  C_22
REMARK   10  A    between atoms: C_27  and  O_28
REMARK                            x       y       z     vdW  Elec       q    Type
REMARK                         _______ _______ _______ _____ _____    ______ ____
ROOT
ATOM      1  C   UNL     1       1.490  -3.382  -5.115  0.00  0.00    +0.116 C 
ENDROOT
BRANCH   1   2
ATOM      2  N   UNL     1       2.107  -3.938  -6.322  0.00  0.00    -0.313 N 
ATOM      3  C   UNL     1       1.395  -4.747  -7.131  0.00  0.00    +0.227 C 
ATOM      4  O   UNL     1       0.244  -5.016  -6.860  0.00  0.00    -0.274 OA
ATOM      5  H   UNL     1       3.027  -3.722  -6.539  0.00  0.00    +0.149 HD
BRANCH   3   6
ATOM      6  C   UNL     1       2.030  -5.319  -8.373  0.00  0.00    +0.180 C 
BRANCH   6   7
ATOM      7  N   UNL     1       1.056  -6.162  -9.077  0.00  0.00    -0.291 NA
ATOM      8  C   UNL     1       0.708  -7.345  -8.278  0.00  0.00    +0.104 C 
ATOM      9  C   UNL     1      -0.438  -8.100  -8.960  0.00  0.00    +0.120 C 
ATOM     10  N   UNL     1      -0.049  -8.381 -10.351  0.00  0.00    -0.325 N 
ATOM     11  C   UNL     1       0.442  -7.267 -11.175  0.00  0.00    +0.120 C 
ATOM     12  C   UNL     1       1.553  -6.545 -10.405  0.00  0.00    +0.104 C 
BRANCH  10  13
ATOM     13  C   UNL     1      -0.145  -9.675 -10.875  0.00  0.00    +0.072 A 
ATOM     14  C   UNL     1      -1.312 -10.088 -11.501  0.00  0.00    +0.027 A 
ATOM     15  C   UNL     1      -1.404 -11.366 -12.019  0.00  0.00    +0.002 A 
ATOM     16  C   UNL     1      -0.334 -12.236 -11.915  0.00  0.00    +0.004 A 
ATOM     17  C   UNL     1       0.833 -11.832 -11.292  0.00  0.00    +0.047 A 
ATOM     18  C   UNL     1       0.934 -10.551 -10.776  0.00  0.00    +0.138 A 
BRANCH  18  19
ATOM     19  O   UNL     1       2.083 -10.150 -10.168  0.00  0.00    -0.505 OA
ATOM     20  H   UNL     1       2.107 -10.326  -9.217  0.00  0.00    +0.292 HD
ENDBRANCH  18  19
ENDBRANCH  10  13
ENDBRANCH   6   7
ENDBRANCH   3   6
ENDBRANCH   1   2
BRANCH   1  21
ATOM     21  C   UNL     1       2.505  -2.503  -4.381  0.00  0.00    +0.064 C 
BRANCH  21  22
ATOM     22  C   UNL     1       3.645  -3.357  -3.889  0.00  0.00    -0.033 C 
ATOM     23  C   UNL     1       4.952  -3.232  -4.212  0.00  0.00    -0.000 A 
ATOM     24  C   UNL     1       5.677  -2.300  -5.084  0.00  0.00    +0.010 A 
ATOM     25  C   UNL     1       7.017  -2.426  -5.210  0.00  0.00    +0.001 A 
ATOM     26  C   UNL     1       7.731  -3.423  -4.531  0.00  0.00    +0.002 A 
ATOM     27  C   UNL     1       7.135  -4.316  -3.712  0.00  0.00    +0.026 A 
ATOM     28  C   UNL     1       5.729  -4.275  -3.505  0.00  0.00    +0.043 A 
ATOM     29  N   UNL     1       4.932  -5.017  -2.774  0.00  0.00    -0.380 N 
ATOM     30  C   UNL     1       3.560  -4.523  -2.930  0.00  0.00    +0.145 C 
ATOM     31  H   UNL     1       5.205  -5.764  -2.220  0.00  0.00    +0.160 HD
ENDBRANCH  21  22
BRANCH  21  35
ATOM     32  C   UNL     1       0.606  -0.607  -1.056  0.00  0.00    +0.120 A 
ATOM     33  C   UNL     1       1.173   0.161  -2.062  0.00  0.00    +0.046 A 
ATOM     34  C   UNL     1       1.786  -0.455  -3.136  0.00  0.00    +0.008 A 
ATOM     35  C   UNL     1       1.835  -1.835  -3.209  0.00  0.00    -0.038 A 
ATOM     36  C   UNL     1       1.270  -2.602  -2.207  0.00  0.00    +0.008 A 
ATOM     37  C   UNL     1       0.661  -1.992  -1.128  0.00  0.00    +0.046 A 
BRANCH  32  39
ATOM     38  C   UNL     1      -0.017   1.425   0.010  0.00  0.00    +0.277 C 
ATOM     39  O   UNL     1       0.002  -0.004   0.002  0.00  0.00    -0.495 OA
ENDBRANCH  32  39
ENDBRANCH  21  35
ENDBRANCH   1  21
TORSDOF 9
