REMARK  Name = ZINC36006710
REMARK  17 active torsions:
REMARK  status: ('A' for Active; 'I' for Inactive)
REMARK    1  A    between atoms: C_1  and  C_2
REMARK    2  A    between atoms: C_2  and  O_3
REMARK    3  A    between atoms: O_3  and  C_4
REMARK    4  A    between atoms: C_4  and  C_6
REMARK    5  A    between atoms: C_7  and  C_25
REMARK    6  A    between atoms: N_8  and  C_24
REMARK    7  A    between atoms: C_12  and  C_14
REMARK    8  A    between atoms: C_17  and  O_22
REMARK    9  A    between atoms: C_18  and  O_20
REMARK   10  A    between atoms: O_20  and  C_21
REMARK   11  A    between atoms: O_22  and  C_23
REMARK   12  A    between atoms: C_25  and  N_26
REMARK   13  A    between atoms: C_30  and  C_33
REMARK   14  A    between atoms: N_36  and  C_37
REMARK   15  A    between atoms: C_37  and  C_38
REMARK   16  A    between atoms: C_37  and  C_39
REMARK   17  A    between atoms: C_37  and  C_40
REMARK                            x       y       z     vdW  Elec       q    Type
REMARK                         _______ _______ _______ _____ _____    ______ ____
ROOT
ATOM      1  C   UNL     1       1.642  -1.886  -2.491  0.00  0.00    +0.080 C 
ATOM      2  C   UNL     1       1.839  -3.214  -2.642  0.00  0.00    +0.041 C 
ATOM      3  N   UNL     1       2.515  -3.708  -3.721  0.00  0.00    -0.260 N 
ATOM      4  C   UNL     1       3.026  -2.941  -4.692  0.00  0.00    +0.307 C 
ATOM      5  O   UNL     1       3.613  -3.473  -5.614  0.00  0.00    -0.252 OA
ATOM      6  N   UNL     1       2.910  -1.598  -4.681  0.00  0.00    -0.288 N 
ATOM      7  C   UNL     1       2.192  -0.966  -3.562  0.00  0.00    +0.144 C 
ATOM      8  C   UNL     1       2.692  -5.159  -3.821  0.00  0.00    +0.139 C 
ATOM      9  H   UNL     1       3.289  -1.062  -5.395  0.00  0.00    +0.151 HD
ENDROOT
BRANCH   7  10
ATOM     10  C   UNL     1       1.042  -0.175  -4.130  0.00  0.00    -0.019 A 
ATOM     11  C   UNL     1       0.142  -0.783  -4.986  0.00  0.00    +0.009 A 
ATOM     12  C   UNL     1      -0.914  -0.062  -5.510  0.00  0.00    +0.050 A 
ATOM     13  C   UNL     1      -1.074   1.273  -5.177  0.00  0.00    +0.162 A 
ATOM     14  C   UNL     1      -0.170   1.886  -4.315  0.00  0.00    +0.162 A 
ATOM     15  C   UNL     1       0.885   1.156  -3.790  0.00  0.00    +0.055 A 
BRANCH  14  16
ATOM     16  O   UNL     1      -0.323   3.196  -3.985  0.00  0.00    -0.491 OA
ATOM     17  C   UNL     1       0.701   3.786  -3.182  0.00  0.00    +0.277 C 
ENDBRANCH  14  16
BRANCH  13  18
ATOM     18  O   UNL     1      -2.113   1.984  -5.691  0.00  0.00    -0.491 OA
ATOM     19  C   UNL     1      -3.002   1.291  -6.570  0.00  0.00    +0.277 C 
ENDBRANCH  13  18
ENDBRANCH   7  10
BRANCH   1  20
ATOM     20  C   UNL     1       0.942  -1.373  -1.375  0.00  0.00    +0.339 C 
ATOM     21  O   UNL     1      -0.202  -0.979  -1.503  0.00  0.00    -0.245 OA
BRANCH  20  22
ATOM     22  O   UNL     1       1.542  -1.320  -0.168  0.00  0.00    -0.462 OA
BRANCH  22  24
ATOM     23  C   UNL     1       1.617  -0.780   2.187  0.00  0.00    +0.048 C 
ATOM     24  C   UNL     1       0.742  -0.894   0.937  0.00  0.00    +0.229 C 
ENDBRANCH  22  24
ENDBRANCH  20  22
ENDBRANCH   1  20
BRANCH   2  25
ATOM     25  C   UNL     1       1.304  -4.165  -1.603  0.00  0.00    +0.136 C 
BRANCH  25  26
ATOM     26  N   UNL     1       0.277  -5.024  -2.207  0.00  0.00    -0.294 NA
ATOM     27  C   UNL     1      -0.897  -4.237  -2.609  0.00  0.00    +0.104 C 
ATOM     28  C   UNL     1      -1.863  -5.131  -3.394  0.00  0.00    +0.125 C 
ATOM     29  N   UNL     1      -2.159  -6.323  -2.584  0.00  0.00    -0.280 N 
ATOM     30  C   UNL     1      -1.031  -7.086  -2.030  0.00  0.00    +0.088 C 
ATOM     31  C   UNL     1      -0.098  -6.115  -1.299  0.00  0.00    +0.107 C 
ATOM     32  C   UNL     1      -1.554  -8.139  -1.051  0.00  0.00    +0.029 C 
ATOM     33  C   UNL     1      -3.431  -6.705  -2.355  0.00  0.00    +0.303 C 
ATOM     34  O   UNL     1      -3.662  -7.635  -1.607  0.00  0.00    -0.253 OA
ATOM     35  N   UNL     1      -4.448  -6.055  -2.956  0.00  0.00    -0.294 N 
ATOM     36  H   UNL     1      -4.263  -5.362  -3.609  0.00  0.00    +0.151 HD
BRANCH  35  37
ATOM     37  C   UNL     1      -5.833  -6.396  -2.623  0.00  0.00    +0.028 C 
ATOM     38  C   UNL     1      -6.073  -6.157  -1.131  0.00  0.00    +0.031 C 
ATOM     39  C   UNL     1      -6.785  -5.518  -3.439  0.00  0.00    +0.031 C 
ATOM     40  C   UNL     1      -6.090  -7.868  -2.951  0.00  0.00    +0.031 C 
ENDBRANCH  35  37
ENDBRANCH  25  26
ENDBRANCH   2  25
TORSDOF 9
