REMARK  Name = ZINC38486911
REMARK  6 active torsions:
REMARK  status: ('A' for Active; 'I' for Inactive)
REMARK    1  A    between atoms: C_1  and  O_2
REMARK    2  A    between atoms: O_2  and  C_3
REMARK    3  A    between atoms: C_8  and  N_9
REMARK    4  A    between atoms: C_10  and  N_28
REMARK    5  A    between atoms: C_11  and  C_14
REMARK    6  A    between atoms: C_16  and  C_19
REMARK                            x       y       z     vdW  Elec       q    Type
REMARK                         _______ _______ _______ _____ _____    ______ ____
ROOT
ATOM      1  N   UNL     1      -0.070  -2.779   0.013  0.00  0.00    -0.195 N 
ATOM      2  C   UNL     1       0.034  -4.138   0.069  0.00  0.00    +0.150 A 
ATOM      3  C   UNL     1       1.385  -4.428  -0.010  0.00  0.00    +0.159 A 
ATOM      4  N   UNL     1       2.058  -3.270  -0.111  0.00  0.00    -0.125 NA
ATOM      5  N   UNL     1       1.235  -2.281  -0.106  0.00  0.00    -0.058 NA
ENDROOT
BRANCH   1  11
ATOM      6  C   UNL     1      -1.470  -1.008  -0.866  0.00  0.00    +0.146 A 
ATOM      7  C   UNL     1      -2.642  -0.271  -0.819  0.00  0.00    +0.049 A 
ATOM      8  C   UNL     1      -3.592  -0.543   0.148  0.00  0.00    +0.024 A 
ATOM      9  C   UNL     1      -3.375  -1.550   1.072  0.00  0.00    +0.043 A 
ATOM     10  C   UNL     1      -2.207  -2.290   1.032  0.00  0.00    +0.051 A 
ATOM     11  C   UNL     1      -1.253  -2.026   0.060  0.00  0.00    +0.112 A 
ATOM     12 CL   UNL     1      -4.571  -1.886   2.284  0.00  0.00    -0.083 Cl
BRANCH   6  14
ATOM     13  C   UNL     1      -0.825   0.316  -2.733  0.00  0.00    +0.277 C 
ATOM     14  O   UNL     1      -0.535  -0.742  -1.817  0.00  0.00    -0.493 OA
ENDBRANCH   6  14
ENDBRANCH   1  11
BRANCH   3  15
ATOM     15  C   UNL     1       1.983  -5.777   0.011  0.00  0.00    +0.132 A 
ATOM     16  N   UNL     1       3.258  -6.130  -0.055  0.00  0.00    -0.237 NA
ATOM     17  C   UNL     1       3.619  -7.402  -0.021  0.00  0.00    +0.079 A 
ATOM     18  C   UNL     1       2.659  -8.371   0.084  0.00  0.00    +0.075 A 
ATOM     19  S   UNL     1       1.179  -7.369   0.141  0.00  0.00    -0.073 S 
BRANCH  17  20
ATOM     20  C   UNL     1       5.053  -7.775  -0.097  0.00  0.00    +0.005 A 
ATOM     21  C   UNL     1       5.428  -9.117  -0.068  0.00  0.00    +0.014 A 
ATOM     22  C   UNL     1       6.762  -9.462  -0.138  0.00  0.00    +0.050 A 
ATOM     23  C   UNL     1       7.733  -8.478  -0.240  0.00  0.00    +0.166 A 
ATOM     24  C   UNL     1       7.364  -7.134  -0.270  0.00  0.00    +0.167 A 
ATOM     25  C   UNL     1       6.027  -6.784  -0.204  0.00  0.00    +0.059 A 
ATOM     26  O   UNL     1       8.493  -6.373  -0.372  0.00  0.00    -0.453 OA
ATOM     27  C   UNL     1       9.577  -7.242   0.008  0.00  0.00    +0.466 C 
ATOM     28  O   UNL     1       9.094  -8.557  -0.323  0.00  0.00    -0.453 OA
ENDBRANCH  17  20
ENDBRANCH   3  15
BRANCH   2  29
ATOM     29  N   UNL     1      -1.007  -5.047   0.184  0.00  0.00    -0.341 N 
ATOM     30  H   UNL     1      -1.926  -4.740   0.141  0.00  0.00    +0.144 HD
ATOM     31  H   UNL     1      -0.816  -5.990   0.308  0.00  0.00    +0.144 HD
ENDBRANCH   2  29
TORSDOF 5
