REMARK  Name = ZINC21868394
REMARK  10 active torsions:
REMARK  status: ('A' for Active; 'I' for Inactive)
REMARK    1  A    between atoms: C_1  and  C_2
REMARK    2  A    between atoms: C_5  and  C_35
REMARK    3  A    between atoms: N_8  and  C_10
REMARK    4  A    between atoms: C_10  and  C_11
REMARK    5  A    between atoms: C_11  and  C_12
REMARK    6  A    between atoms: C_12  and  N_13
REMARK    7  A    between atoms: C_14  and  C_16
REMARK    8  A    between atoms: C_17  and  C_34
REMARK    9  A    between atoms: N_24  and  C_27
REMARK   10  A    between atoms: C_27  and  C_28
REMARK                            x       y       z     vdW  Elec       q    Type
REMARK                         _______ _______ _______ _____ _____    ______ ____
ROOT
ATOM      1  C   UNL     1       7.509  -2.028   4.093  0.00  0.00    +0.067 C 
ATOM      2  C   UNL     1       8.517  -2.288   4.944  0.00  0.00    +0.045 C 
ATOM      3  C   UNL     1       9.751  -1.686   4.413  0.00  0.00    +0.336 C 
ATOM      4  O   UNL     1      10.841  -1.741   4.946  0.00  0.00    -0.245 OA
ATOM      5  O   UNL     1       9.489  -1.067   3.247  0.00  0.00    -0.450 OA
ATOM      6  C   UNL     1       8.101  -1.232   2.957  0.00  0.00    +0.146 C 
ATOM      7  C   UNL     1       7.420   0.135   2.866  0.00  0.00    +0.068 C 
ATOM      8  C   UNL     1       8.002   0.911   1.682  0.00  0.00    +0.089 C 
ATOM      9  N   UNL     1       7.792   0.147   0.445  0.00  0.00    -0.298 NA
ATOM     10  C   UNL     1       8.488  -1.145   0.493  0.00  0.00    +0.089 C 
ATOM     11  C   UNL     1       7.922  -1.987   1.639  0.00  0.00    +0.068 C 
ATOM     12  C   UNL     1       8.402  -3.066   6.230  0.00  0.00    +0.052 C 
ENDROOT
BRANCH   1  14
ATOM     13  N   UNL     1       5.198  -2.115   3.294  0.00  0.00    -0.312 N 
ATOM     14  C   UNL     1       6.100  -2.446   4.238  0.00  0.00    +0.244 C 
ATOM     15  O   UNL     1       5.755  -3.090   5.210  0.00  0.00    -0.270 OA
ATOM     16  H   UNL     1       5.474  -1.601   2.519  0.00  0.00    +0.149 HD
BRANCH  13  17
ATOM     17  C   UNL     1       3.800  -2.529   3.438  0.00  0.00    +0.102 C 
BRANCH  17  18
ATOM     18  C   UNL     1       2.993  -2.028   2.239  0.00  0.00    +0.000 C 
BRANCH  18  19
ATOM     19  C   UNL     1       1.534  -2.461   2.390  0.00  0.00    -0.077 C 
BRANCH  19  25
ATOM     20  C   UNL     1      -0.019   1.526   0.010  0.00  0.00    +0.005 C 
ATOM     21  C   UNL     1       0.002  -0.004   0.002  0.00  0.00    -0.031 C 
ATOM     22  C   UNL     1      -1.434  -0.535   0.015  0.00  0.00    +0.003 C 
ATOM     23  C   UNL     1      -1.402  -2.064   0.086  0.00  0.00    -0.031 C 
ATOM     24  C   UNL     1      -0.613  -2.496   1.324  0.00  0.00    -0.076 C 
ATOM     25  N   UNL     1       0.758  -1.980   1.239  0.00  0.00    +0.380 N 
ATOM     26  C   UNL     1       0.740  -0.512   1.242  0.00  0.00    -0.076 C 
ATOM     27  C   UNL     1      -0.728  -2.620  -1.170  0.00  0.00    +0.005 C 
ATOM     28  H   UNL     1       1.188  -2.307   0.386  0.00  0.00    -0.082 HD
ENDBRANCH  19  25
ENDBRANCH  18  19
ENDBRANCH  17  18
ENDBRANCH  13  17
ENDBRANCH   1  14
BRANCH   9  29
ATOM     29  C   UNL     1       8.207   0.925  -0.730  0.00  0.00    +0.119 C 
BRANCH  29  30
ATOM     30  C   UNL     1       7.756   0.220  -1.984  0.00  0.00    -0.033 A 
ATOM     31  C   UNL     1       8.580  -0.710  -2.589  0.00  0.00    +0.005 A 
ATOM     32  C   UNL     1       8.167  -1.356  -3.738  0.00  0.00    +0.000 A 
ATOM     33  C   UNL     1       6.928  -1.073  -4.282  0.00  0.00    +0.000 A 
ATOM     34  C   UNL     1       6.102  -0.144  -3.677  0.00  0.00    +0.000 A 
ATOM     35  C   UNL     1       6.514   0.499  -2.525  0.00  0.00    +0.005 A 
ENDBRANCH  29  30
ENDBRANCH   9  29
TORSDOF 7
