REMARK  Name = ZINC12555861
REMARK  11 active torsions:
REMARK  status: ('A' for Active; 'I' for Inactive)
REMARK    1  A    between atoms: C_1  and  C_2
REMARK    2  A    between atoms: C_2  and  O_3
REMARK    3  A    between atoms: O_3  and  C_4
REMARK    4  A    between atoms: C_5  and  O_28
REMARK    5  A    between atoms: C_7  and  C_11
REMARK    6  A    between atoms: C_12  and  C_13
REMARK    7  A    between atoms: C_12  and  C_15
REMARK    8  A    between atoms: N_17  and  C_18
REMARK    9  A    between atoms: C_21  and  N_25
REMARK   10  A    between atoms: C_23  and  O_24
REMARK   11  A    between atoms: O_28  and  C_29
REMARK                            x       y       z     vdW  Elec       q    Type
REMARK                         _______ _______ _______ _____ _____    ______ ____
ROOT
ATOM      1  C   UNL     1       1.486   0.058   6.121  0.00  0.00    +0.032 C 
ATOM      2  C   UNL     1       1.014  -1.062   6.772  0.00  0.00    +0.114 C 
ENDROOT
BRANCH   1   6
ATOM      3  C   UNL     1      -0.323   1.318   2.499  0.00  0.00    +0.176 A 
ATOM      4  C   UNL     1       1.015   1.624   2.750  0.00  0.00    +0.163 A 
ATOM      5  C   UNL     1       1.608   1.216   3.927  0.00  0.00    +0.057 A 
ATOM      6  C   UNL     1       0.863   0.494   4.870  0.00  0.00    -0.019 A 
ATOM      7  C   UNL     1      -0.481   0.191   4.610  0.00  0.00    +0.027 A 
ATOM      8  C   UNL     1      -1.065   0.607   3.434  0.00  0.00    +0.064 A 
ATOM      9 BR   UNL     1      -2.880   0.204   3.089  0.00  0.00    -0.046 Br
BRANCH   4  10
ATOM     10  O   UNL     1       1.736   2.324   1.833  0.00  0.00    -0.491 OA
ATOM     11  C   UNL     1       3.100   2.603   2.155  0.00  0.00    +0.277 C 
ENDBRANCH   4  10
BRANCH   3  12
ATOM     12  O   UNL     1      -0.903   1.721   1.339  0.00  0.00    -0.487 OA
BRANCH  12  14
ATOM     13  C   UNL     1      -1.531   1.445  -0.978  0.00  0.00    +0.048 C 
ATOM     14  C   UNL     1      -0.827   0.824   0.230  0.00  0.00    +0.226 C 
ENDBRANCH  12  14
ENDBRANCH   3  12
ENDBRANCH   1   6
BRANCH   2  15
ATOM     15  C   UNL     1       1.520  -1.401   8.111  0.00  0.00    +0.259 C 
ATOM     16  O   UNL     1       2.353  -0.694   8.644  0.00  0.00    -0.269 OA
ATOM     17  N   UNL     1       1.058  -2.496   8.748  0.00  0.00    -0.278 N 
ATOM     18  H   UNL     1       0.454  -3.103   8.293  0.00  0.00    +0.155 HD
BRANCH  17  19
ATOM     19  C   UNL     1       1.452  -2.758  10.066  0.00  0.00    +0.076 A 
ATOM     20  C   UNL     1       1.869  -1.719  10.886  0.00  0.00    +0.029 A 
ATOM     21  C   UNL     1       2.257  -1.980  12.187  0.00  0.00    +0.035 A 
ATOM     22  C   UNL     1       2.232  -3.274  12.674  0.00  0.00    +0.130 A 
ATOM     23  C   UNL     1       1.818  -4.314  11.862  0.00  0.00    +0.080 A 
ATOM     24  C   UNL     1       1.422  -4.060  10.559  0.00  0.00    +0.140 A 
BRANCH  22  25
ATOM     25  N   UNL     1       2.649  -3.547  14.067  0.00  0.00    +0.057 N 
ATOM     26  O   UNL     1       3.014  -2.632  14.784  0.00  0.00    -0.126 OA
ATOM     27  O   UNL     1       2.627  -4.686  14.498  0.00  0.00    -0.126 OA
ENDBRANCH  22  25
BRANCH  24  28
ATOM     28  O   UNL     1       1.008  -5.081   9.761  0.00  0.00    -0.505 OA
ATOM     29  H   UNL     1       1.720  -5.500   9.258  0.00  0.00    +0.292 HD
ENDBRANCH  24  28
ENDBRANCH  17  19
ENDBRANCH   2  15
BRANCH   2  30
ATOM     30  C   UNL     1       0.033  -1.895   6.144  0.00  0.00    +0.104 C 
ATOM     31  N   UNL     1      -0.745  -2.555   5.647  0.00  0.00    -0.191 NA
ENDBRANCH   2  30
TORSDOF 9
