REMARK  Name = ZINC14882037
REMARK  7 active torsions:
REMARK  status: ('A' for Active; 'I' for Inactive)
REMARK    1  A    between atoms: C_1  and  C_2
REMARK    2  A    between atoms: C_6  and  C_8
REMARK    3  A    between atoms: C_8  and  C_9
REMARK    4  A    between atoms: C_14  and  C_17
REMARK    5  A    between atoms: C_17  and  C_30
REMARK    6  A    between atoms: N_20  and  C_24
REMARK    7  A    between atoms: C_30  and  C_31
REMARK                            x       y       z     vdW  Elec       q    Type
REMARK                         _______ _______ _______ _____ _____    ______ ____
ROOT
ATOM      1  C   UNL     1       1.274   2.337   4.243  0.00  0.00    +0.119 C 
ATOM      2  C   UNL     1       0.184   1.563   3.528  0.00  0.00    +0.247 C 
ATOM      3  O   UNL     1      -0.499   0.671   3.983  0.00  0.00    -0.273 OA
ATOM      4  N   UNL     1       0.134   2.072   2.281  0.00  0.00    -0.219 N 
ATOM      5  C   UNL     1       1.026   3.055   2.112  0.00  0.00    +0.310 C 
ATOM      6  O   UNL     1       1.166   3.670   1.073  0.00  0.00    -0.252 OA
ATOM      7  N   UNL     1       1.751   3.286   3.222  0.00  0.00    -0.284 N 
ATOM      8  H   UNL     1       2.452   3.949   3.328  0.00  0.00    +0.151 HD
ENDROOT
BRANCH   1  14
ATOM      9  C   UNL     1       6.359   0.374   4.262  0.00  0.00    +0.220 C 
ATOM     10  O   UNL     1       6.684  -0.332   3.331  0.00  0.00    -0.275 OA
ATOM     11  N   UNL     1       5.066   0.446   4.634  0.00  0.00    -0.301 N 
ATOM     12  C   UNL     1       4.038  -0.325   3.921  0.00  0.00    +0.108 C 
ATOM     13  C   UNL     1       2.929   0.631   3.471  0.00  0.00    +0.025 C 
ATOM     14  C   UNL     1       2.406   1.407   4.683  0.00  0.00    +0.025 C 
ATOM     15  C   UNL     1       3.541   2.235   5.289  0.00  0.00    +0.025 C 
ATOM     16  C   UNL     1       4.657   1.297   5.760  0.00  0.00    +0.108 C 
BRANCH   9  17
ATOM     17  C   UNL     1       7.402   1.170   5.003  0.00  0.00    +0.131 C 
BRANCH  17  23
ATOM     18  C   UNL     1      11.643  -1.480   4.825  0.00  0.00    +0.044 C 
ATOM     19  C   UNL     1      10.786  -0.354   4.309  0.00  0.00    -0.050 A 
ATOM     20  C   UNL     1      11.242   0.445   3.277  0.00  0.00    +0.003 A 
ATOM     21  C   UNL     1      10.455   1.479   2.804  0.00  0.00    +0.001 A 
ATOM     22  C   UNL     1       9.212   1.713   3.362  0.00  0.00    +0.004 A 
ATOM     23  C   UNL     1       8.757   0.914   4.394  0.00  0.00    -0.038 A 
ATOM     24  C   UNL     1       9.546  -0.116   4.871  0.00  0.00    +0.007 A 
ENDBRANCH  17  23
ENDBRANCH   9  17
ENDBRANCH   1  14
BRANCH   4  25
ATOM     25  C   UNL     1      -0.788   1.610   1.241  0.00  0.00    +0.113 C 
ATOM     26  C   UNL     1      -0.013   1.086   0.008  0.00  0.00    +0.053 C 
ATOM     27  C   UNL     1      -0.808   1.621  -1.198  0.00  0.00    +0.162 C 
ATOM     28  O   UNL     1      -1.946   2.329  -0.680  0.00  0.00    -0.378 OA
ATOM     29  C   UNL     1      -1.587   2.797   0.638  0.00  0.00    +0.182 C 
ENDBRANCH   4  25
BRANCH   1  30
ATOM     30  C   UNL     1       0.697   3.086   5.446  0.00  0.00    +0.070 C 
BRANCH  30  31
ATOM     31  C   UNL     1      -0.448   3.955   4.994  0.00  0.00    -0.045 A 
ATOM     32  C   UNL     1      -0.211   5.258   4.596  0.00  0.00    +0.006 A 
ATOM     33  C   UNL     1      -1.260   6.055   4.177  0.00  0.00    +0.038 A 
ATOM     34  C   UNL     1      -2.550   5.551   4.165  0.00  0.00    +0.123 A 
ATOM     35  C   UNL     1      -2.786   4.248   4.569  0.00  0.00    +0.038 A 
ATOM     36  C   UNL     1      -1.735   3.451   4.982  0.00  0.00    +0.006 A 
ATOM     37  F   UNL     1      -3.576   6.330   3.760  0.00  0.00    -0.205 F 
ENDBRANCH  30  31
ENDBRANCH   1  30
TORSDOF 6
