REMARK  Name = ZINC43569674
REMARK  6 active torsions:
REMARK  status: ('A' for Active; 'I' for Inactive)
REMARK    1  A    between atoms: C_1  and  C_2
REMARK    2  A    between atoms: C_2  and  C_3
REMARK    3  A    between atoms: C_3  and  C_4
REMARK    4  A    between atoms: C_9  and  S_11
REMARK    5  A    between atoms: S_11  and  C_12
REMARK    6  A    between atoms: C_14  and  N_18
REMARK                            x       y       z     vdW  Elec       q    Type
REMARK                         _______ _______ _______ _____ _____    ______ ____
ROOT
ATOM      1  C   UNL     1       0.683  -2.000  -1.169  0.00  0.00    +0.049 A 
ATOM      2  C   UNL     1      -0.402  -2.682  -1.640  0.00  0.00    +0.093 A 
ATOM      3  C   UNL     1      -0.431  -4.082  -1.517  0.00  0.00    +0.252 A 
ATOM      4  O   UNL     1      -1.385  -4.723  -1.927  0.00  0.00    -0.268 OA
ATOM      5  N   UNL     1       0.618  -4.704  -0.937  0.00  0.00    -0.302 N 
ATOM      6  C   UNL     1       1.673  -3.971  -0.486  0.00  0.00    +0.175 A 
ATOM      7  N   UNL     1       1.694  -2.659  -0.610  0.00  0.00    -0.228 NA
ATOM      8  H   UNL     1       0.620  -5.670  -0.841  0.00  0.00    +0.171 HD
ENDROOT
BRANCH   1   9
ATOM      9  C   UNL     1       0.737  -0.499  -1.290  0.00  0.00    +0.055 C 
BRANCH   9  11
ATOM     10  C   UNL     1       0.289   1.659  -0.114  0.00  0.00    +0.004 C 
ATOM     11  C   UNL     1       0.234   0.135   0.009  0.00  0.00    +0.003 C 
ENDBRANCH   9  11
ENDBRANCH   1   9
BRANCH   6  12
ATOM     12  S   UNL     1       3.038  -4.792   0.269  0.00  0.00    -0.034 S 
BRANCH  12  13
ATOM     13  C   UNL     1       4.074  -3.477   0.819  0.00  0.00    +0.083 A 
ATOM     14  C   UNL     1       5.399  -3.429   0.408  0.00  0.00    +0.056 A 
ATOM     15  C   UNL     1       6.205  -2.385   0.850  0.00  0.00    +0.028 A 
ATOM     16  C   UNL     1       5.643  -1.424   1.694  0.00  0.00    +0.040 A 
ATOM     17  C   UNL     1       4.319  -1.541   2.058  0.00  0.00    +0.085 A 
ATOM     18  N   UNL     1       3.579  -2.542   1.617  0.00  0.00    -0.356 N 
ATOM     19  H   UNL     1       2.649  -2.596   1.887  0.00  0.00    +0.166 HD
BRANCH  15  20
ATOM     20  N   UNL     1       7.539  -2.299   0.462  0.00  0.00    -0.358 N 
ATOM     21  H   UNL     1       7.918  -2.973  -0.124  0.00  0.00    +0.142 HD
ATOM     22  H   UNL     1       8.090  -1.566   0.777  0.00  0.00    +0.142 HD
ENDBRANCH  15  20
ENDBRANCH  12  13
ENDBRANCH   6  12
TORSDOF 5
