REMARK  Name = ZINC20609464
REMARK  11 active torsions:
REMARK  status: ('A' for Active; 'I' for Inactive)
REMARK    1  A    between atoms: C_1  and  C_2
REMARK    2  A    between atoms: C_2  and  O_3
REMARK    3  A    between atoms: O_3  and  C_4
REMARK    4  A    between atoms: C_4  and  C_6
REMARK    5  A    between atoms: C_7  and  C_29
REMARK    6  A    between atoms: C_19  and  N_27
REMARK    7  A    between atoms: C_20  and  C_21
REMARK    8  A    between atoms: C_21  and  O_23
REMARK    9  A    between atoms: O_23  and  C_24
REMARK   10  A    between atoms: C_24  and  C_25
REMARK   11  A    between atoms: C_24  and  C_26
REMARK                            x       y       z     vdW  Elec       q    Type
REMARK                         _______ _______ _______ _____ _____    ______ ____
ROOT
ATOM      1  C   UNL     1      -0.944   2.708   1.647  0.00  0.00    +0.100 C 
ATOM      2  C   UNL     1      -0.799   1.387   1.452  0.00  0.00    +0.117 C 
ATOM      3  O   UNL     1      -1.321   0.658   2.447  0.00  0.00    -0.429 OA
ATOM      4  C   UNL     1      -1.874   1.417   3.409  0.00  0.00    +0.332 C 
ATOM      5  O   UNL     1      -2.415   1.034   4.420  0.00  0.00    -0.249 OA
ATOM      6  C   UNL     1      -1.677   2.850   2.964  0.00  0.00    +0.164 C 
ATOM      7  C   UNL     1      -3.006   3.515   2.753  0.00  0.00    +0.001 A 
ATOM      8  C   UNL     1      -4.035   2.813   2.150  0.00  0.00    +0.022 A 
ATOM      9  C   UNL     1      -5.263   3.416   1.947  0.00  0.00    +0.018 A 
ATOM     10  C   UNL     1      -5.469   4.725   2.345  0.00  0.00    +0.017 A 
ATOM     11  C   UNL     1      -4.447   5.431   2.948  0.00  0.00    +0.024 A 
ATOM     12  C   UNL     1      -3.213   4.827   3.154  0.00  0.00    +0.037 A 
ATOM     13  N   UNL     1      -2.183   5.546   3.768  0.00  0.00    -0.302 N 
ATOM     14  C   UNL     1      -1.108   4.889   4.306  0.00  0.00    +0.097 C 
ATOM     15  C   UNL     1      -0.830   3.592   3.950  0.00  0.00    +0.098 C 
ATOM     16 BR   UNL     1      -6.663   2.448   1.123  0.00  0.00    -0.050 Br
ATOM     17  C   UNL     1      -0.119   0.790   0.247  0.00  0.00    +0.087 C 
ATOM     18  H   UNL     1      -2.234   6.644   3.821  0.00  0.00    +0.153 HD
ENDROOT
BRANCH  14  19
ATOM     19  N   UNL     1      -0.301   5.533   5.207  0.00  0.00    -0.346 N 
ATOM     20  H   UNL     1       0.564   5.011   5.642  0.00  0.00    +0.143 HD
ATOM     21  H   UNL     1      -0.518   6.572   5.495  0.00  0.00    +0.143 HD
ENDBRANCH  14  19
BRANCH   1  22
ATOM     22  C   UNL     1      -0.503   3.753   0.796  0.00  0.00    +0.340 C 
ATOM     23  O   UNL     1       0.075   3.490  -0.241  0.00  0.00    -0.245 OA
BRANCH  22  24
ATOM     24  O   UNL     1      -0.726   5.040   1.136  0.00  0.00    -0.462 OA
BRANCH  24  26
ATOM     25  C   UNL     1      -0.596   7.427   0.782  0.00  0.00    +0.048 C 
ATOM     26  C   UNL     1      -0.255   6.040   0.232  0.00  0.00    +0.229 C 
ENDBRANCH  24  26
ENDBRANCH  22  24
ENDBRANCH   1  22
BRANCH  15  27
ATOM     27  C   UNL     1       0.272   2.948   4.525  0.00  0.00    +0.340 C 
ATOM     28  O   UNL     1       1.310   2.839   3.896  0.00  0.00    -0.245 OA
BRANCH  27  29
ATOM     29  O   UNL     1       0.184   2.448   5.777  0.00  0.00    -0.459 OA
BRANCH  29  30
ATOM     30  C   UNL     1       1.347   1.804   6.301  0.00  0.00    +0.171 C 
ATOM     31  C   UNL     1       1.382   1.971   7.821  0.00  0.00    +0.052 C 
ATOM     32  C   UNL     1       1.306   0.314   5.953  0.00  0.00    +0.052 C 
ENDBRANCH  29  30
ENDBRANCH  27  29
ENDBRANCH  15  27
TORSDOF 7
