REMARK  Name = ZINC00665436
REMARK  10 active torsions:
REMARK  status: ('A' for Active; 'I' for Inactive)
REMARK    1  A    between atoms: C_1  and  C_2
REMARK    2  A    between atoms: C_2  and  O_3
REMARK    3  A    between atoms: O_3  and  C_4
REMARK    4  A    between atoms: C_4  and  C_6
REMARK    5  A    between atoms: C_7  and  C_37
REMARK    6  A    between atoms: C_14  and  C_15
REMARK    7  A    between atoms: C_16  and  C_25
REMARK    8  A    between atoms: C_27  and  C_29
REMARK    9  A    between atoms: C_34  and  O_35
REMARK   10  A    between atoms: O_35  and  C_36
REMARK                            x       y       z     vdW  Elec       q    Type
REMARK                         _______ _______ _______ _____ _____    ______ ____
ROOT
ATOM      1  C   UNL     1      -0.151   1.544  -0.091  0.00  0.00    +0.085 C 
ATOM      2  C   UNL     1      -1.272   2.325  -0.054  0.00  0.00    +0.053 C 
ATOM      3  N   UNL     1      -1.174   3.638   0.118  0.00  0.00    -0.228 NA
ATOM      4  C   UNL     1      -0.047   4.289   0.251  0.00  0.00    +0.178 A 
ATOM      5  N   UNL     1       1.196   3.696   0.237  0.00  0.00    -0.275 N 
ATOM      6  C   UNL     1       2.271   4.478   0.383  0.00  0.00    +0.268 A 
ATOM      7  O   UNL     1       3.389   3.995   0.377  0.00  0.00    -0.266 OA
ATOM      8  C   UNL     1       2.096   5.879   0.547  0.00  0.00    +0.081 A 
ATOM      9  C   UNL     1       3.034   6.853   0.712  0.00  0.00    +0.030 C 
ATOM     10  S   UNL     1       0.317   6.018   0.481  0.00  0.00    -0.046 S 
ATOM     11  C   UNL     1       1.194   2.218   0.055  0.00  0.00    +0.165 C 
ATOM     12  C   UNL     1      -2.631   1.691  -0.203  0.00  0.00    +0.066 C 
ENDROOT
BRANCH   9  13
ATOM     13  C   UNL     1       2.620   8.248   0.864  0.00  0.00    +0.004 A 
ATOM     14  C   UNL     1       1.759   8.939   0.058  0.00  0.00    +0.021 A 
ATOM     15  N   UNL     1       1.620  10.207   0.520  0.00  0.00    -0.358 N 
ATOM     16  H   UNL     1       1.058  10.886   0.113  0.00  0.00    +0.166 HD
ATOM     17  C   UNL     1       2.395  10.399   1.645  0.00  0.00    +0.047 A 
ATOM     18  C   UNL     1       3.055   9.189   1.914  0.00  0.00    +0.007 A 
ATOM     19  C   UNL     1       3.915   9.090   3.005  0.00  0.00    +0.010 A 
ATOM     20  C   UNL     1       4.114  10.184   3.818  0.00  0.00    +0.001 A 
ATOM     21  C   UNL     1       3.462  11.380   3.554  0.00  0.00    +0.002 A 
ATOM     22  C   UNL     1       2.609  11.492   2.477  0.00  0.00    +0.026 A 
ATOM     23  C   UNL     1       1.066   8.376  -1.156  0.00  0.00    +0.064 C 
ENDBRANCH   9  13
BRANCH  11  24
ATOM     24  C   UNL     1       2.008   1.901  -1.173  0.00  0.00    +0.022 A 
ATOM     25  C   UNL     1       1.992   2.763  -2.253  0.00  0.00    +0.009 A 
ATOM     26  C   UNL     1       2.739   2.473  -3.381  0.00  0.00    +0.001 A 
ATOM     27  C   UNL     1       3.502   1.321  -3.430  0.00  0.00    +0.004 A 
ATOM     28  C   UNL     1       3.522   0.458  -2.352  0.00  0.00    +0.046 A 
ATOM     29  C   UNL     1       2.777   0.748  -1.218  0.00  0.00    +0.126 A 
BRANCH  29  30
ATOM     30  O   UNL     1       2.798  -0.098  -0.155  0.00  0.00    -0.495 OA
ATOM     31  C   UNL     1       3.679  -1.220  -0.236  0.00  0.00    +0.277 C 
ENDBRANCH  29  30
ENDBRANCH  11  24
BRANCH   1  32
ATOM     32  C   UNL     1      -0.246   0.154  -0.266  0.00  0.00    +0.339 C 
ATOM     33  O   UNL     1      -0.165  -0.588   0.697  0.00  0.00    -0.245 OA
BRANCH  32  34
ATOM     34  O   UNL     1      -0.427  -0.360  -1.502  0.00  0.00    -0.462 OA
BRANCH  34  36
ATOM     35  C   UNL     1      -0.700  -2.181  -3.068  0.00  0.00    +0.048 C 
ATOM     36  C   UNL     1      -0.618  -1.774  -1.595  0.00  0.00    +0.229 C 
ENDBRANCH  34  36
ENDBRANCH  32  34
ENDBRANCH   1  32
TORSDOF 6
