REMARK  Name = ZINC27015918
REMARK  7 active torsions:
REMARK  status: ('A' for Active; 'I' for Inactive)
REMARK    1  A    between atoms: C_1  and  C_2
REMARK    2  A    between atoms: C_5  and  C_8
REMARK    3  A    between atoms: C_9  and  N_24
REMARK    4  A    between atoms: N_12  and  C_13
REMARK    5  A    between atoms: N_20  and  C_21
REMARK    6  A    between atoms: C_21  and  C_22
REMARK    7  A    between atoms: C_25  and  C_27
REMARK                            x       y       z     vdW  Elec       q    Type
REMARK                         _______ _______ _______ _____ _____    ______ ____
ROOT
ATOM      1  C   UNL     1      -1.299   2.123   0.004  0.00  0.00    +0.080 A 
ATOM      2  C   UNL     1      -2.468   1.440  -0.098  0.00  0.00    +0.099 A 
ATOM      3  S   UNL     1      -3.677   2.750  -0.013  0.00  0.00    -0.036 S 
ATOM      4  C   UNL     1      -2.548   4.124   0.144  0.00  0.00    +0.154 A 
ATOM      5  N   UNL     1      -2.814   5.412   0.251  0.00  0.00    -0.336 N 
ATOM      6  N   UNL     1      -1.329   3.490   0.126  0.00  0.00    -0.315 N 
ATOM      7  H   UNL     1      -1.993   6.145   0.257  0.00  0.00    +0.168 HD
ENDROOT
BRANCH   1  12
ATOM      8  C   UNL     1       3.718  -0.690  -0.083  0.00  0.00    +0.044 C 
ATOM      9  C   UNL     1       2.404   0.048  -0.061  0.00  0.00    -0.050 A 
ATOM     10  C   UNL     1       2.127   0.930   0.969  0.00  0.00    +0.004 A 
ATOM     11  C   UNL     1       0.927   1.609   0.996  0.00  0.00    +0.010 A 
ATOM     12  C   UNL     1      -0.011   1.405  -0.020  0.00  0.00    +0.001 A 
ATOM     13  C   UNL     1       0.276   0.512  -1.056  0.00  0.00    +0.010 A 
ATOM     14  C   UNL     1       1.480  -0.160  -1.070  0.00  0.00    +0.004 A 
ENDBRANCH   1  12
BRANCH   5  15
ATOM     15  C   UNL     1      -4.110   5.837   0.353  0.00  0.00    +0.041 A 
ATOM     16  C   UNL     1      -4.808   6.243  -0.787  0.00  0.00    +0.027 A 
ATOM     17  C   UNL     1      -6.116   6.665  -0.677  0.00  0.00    +0.017 A 
ATOM     18  C   UNL     1      -6.735   6.697   0.561  0.00  0.00    +0.018 A 
ATOM     19  C   UNL     1      -6.048   6.300   1.696  0.00  0.00    +0.017 A 
ATOM     20  C   UNL     1      -4.741   5.871   1.599  0.00  0.00    +0.027 A 
ATOM     21 BR   UNL     1      -8.527   7.284   0.703  0.00  0.00    -0.050 Br
ENDBRANCH   5  15
BRANCH   2  22
ATOM     22  N   UNL     1      -2.671   0.068  -0.233  0.00  0.00    -0.279 N 
ATOM     23  C   UNL     1      -3.915  -0.413  -0.427  0.00  0.00    +0.215 C 
ATOM     24  O   UNL     1      -4.858   0.348  -0.485  0.00  0.00    -0.276 OA
ATOM     25  C   UNL     1      -4.135  -1.897  -0.573  0.00  0.00    +0.109 C 
ATOM     26  H   UNL     1      -1.816  -0.623  -0.180  0.00  0.00    +0.155 HD
ENDBRANCH   2  22
BRANCH   6  27
ATOM     27  C   UNL     1      -0.086   4.258   0.233  0.00  0.00    +0.151 C 
BRANCH  27  28
ATOM     28  C   UNL     1       0.324   4.744  -1.133  0.00  0.00    -0.013 C 
ATOM     29  C   UNL     1       0.533   6.021  -1.338  0.00  0.00    +0.005 C 
ENDBRANCH  27  28
ENDBRANCH   6  27
TORSDOF 5
