REMARK  Name = ZINC63627451
REMARK  5 active torsions:
REMARK  status: ('A' for Active; 'I' for Inactive)
REMARK    1  A    between atoms: C_3  and  N_18
REMARK    2  A    between atoms: C_6  and  C_7
REMARK    3  A    between atoms: N_18  and  S_19
REMARK    4  A    between atoms: S_19  and  C_22
REMARK    5  A    between atoms: C_25  and  C_28
REMARK                            x       y       z     vdW  Elec       q    Type
REMARK                         _______ _______ _______ _____ _____    ______ ____
ROOT
ATOM      1  C   UNL     1       3.179   2.166  -3.671  0.00  0.00    +0.008 A 
ATOM      2  C   UNL     1       2.931   1.921  -2.335  0.00  0.00    +0.025 A 
ATOM      3  C   UNL     1       3.827   2.366  -1.371  0.00  0.00    +0.048 A 
ATOM      4  C   UNL     1       4.970   3.056  -1.755  0.00  0.00    +0.025 A 
ATOM      5  C   UNL     1       5.212   3.298  -3.093  0.00  0.00    +0.008 A 
ATOM      6  C   UNL     1       4.318   2.854  -4.050  0.00  0.00    -0.021 A 
ENDROOT
BRANCH   6   7
ATOM      7  C   UNL     1       4.585   3.119  -5.510  0.00  0.00    +0.133 C 
ATOM      8  C   UNL     1       5.629   2.157  -6.031  0.00  0.00    +0.012 C 
ATOM      9  C   UNL     1       6.665   2.920  -6.449  0.00  0.00    -0.001 A 
ATOM     10  C   UNL     1       7.964   2.590  -7.048  0.00  0.00    +0.048 A 
ATOM     11  C   UNL     1       8.813   3.594  -7.369  0.00  0.00    +0.124 A 
ATOM     12  C   UNL     1       8.482   4.940  -7.143  0.00  0.00    +0.040 A 
ATOM     13  C   UNL     1       7.308   5.319  -6.597  0.00  0.00    +0.029 A 
ATOM     14  C   UNL     1       6.341   4.346  -6.222  0.00  0.00    +0.043 A 
ATOM     15  N   UNL     1       5.149   4.462  -5.684  0.00  0.00    -0.374 N 
ATOM     16  F   UNL     1      10.010   3.294  -7.919  0.00  0.00    -0.205 F 
ATOM     17  H   UNL     1       4.714   5.294  -5.443  0.00  0.00    +0.161 HD
ENDBRANCH   6   7
BRANCH   3  18
ATOM     18  N   UNL     1       3.579   2.120  -0.019  0.00  0.00    -0.216 N 
ATOM     19  H   UNL     1       2.697   2.284   0.350  0.00  0.00    +0.174 HD
BRANCH  18  20
ATOM     20  S   UNL     1       4.791   1.549   0.955  0.00  0.00    +0.072 S 
ATOM     21  O   UNL     1       5.899   2.422   0.779  0.00  0.00    -0.150 OA
ATOM     22  O   UNL     1       4.208   1.304   2.227  0.00  0.00    -0.150 OA
BRANCH  20  23
ATOM     23  C   UNL     1       5.279  -0.019   0.314  0.00  0.00    +0.109 A 
ATOM     24  C   UNL     1       4.584  -1.158   0.674  0.00  0.00    +0.029 A 
ATOM     25  C   UNL     1       4.966  -2.388   0.171  0.00  0.00    +0.006 A 
ATOM     26  C   UNL     1       6.043  -2.478  -0.691  0.00  0.00    -0.044 A 
ATOM     27  C   UNL     1       6.737  -1.338  -1.051  0.00  0.00    +0.006 A 
ATOM     28  C   UNL     1       6.352  -0.108  -0.552  0.00  0.00    +0.029 A 
BRANCH  26  29
ATOM     29  C   UNL     1       6.460  -3.819  -1.238  0.00  0.00    +0.019 C 
ATOM     30  C   UNL     1       7.902  -4.115  -0.818  0.00  0.00    +0.008 C 
ATOM     31  C   UNL     1       8.325  -5.476  -1.373  0.00  0.00    +0.001 C 
ATOM     32  C   UNL     1       8.233  -5.455  -2.900  0.00  0.00    +0.000 C 
ATOM     33  C   UNL     1       6.792  -5.159  -3.321  0.00  0.00    +0.001 C 
ATOM     34  C   UNL     1       6.369  -3.798  -2.765  0.00  0.00    +0.008 C 
ENDBRANCH  26  29
ENDBRANCH  20  23
ENDBRANCH  18  20
ENDBRANCH   3  18
TORSDOF 5
