REMARK  Name = ZINC64006726
REMARK  11 active torsions:
REMARK  status: ('A' for Active; 'I' for Inactive)
REMARK    1  A    between atoms: C_1  and  C_2
REMARK    2  A    between atoms: C_4  and  C_22
REMARK    3  A    between atoms: C_6  and  C_9
REMARK    4  A    between atoms: C_14  and  N_15
REMARK    5  A    between atoms: N_15  and  S_16
REMARK    6  A    between atoms: S_16  and  N_19
REMARK    7  A    between atoms: N_19  and  C_20
REMARK    8  A    between atoms: N_19  and  C_21
REMARK    9  A    between atoms: C_22  and  N_23
REMARK   10  A    between atoms: C_24  and  C_26
REMARK   11  A    between atoms: C_26  and  C_27
REMARK                            x       y       z     vdW  Elec       q    Type
REMARK                         _______ _______ _______ _____ _____    ______ ____
ROOT
ATOM      1  C   UNL     1      -0.047   1.735   0.187  0.00  0.00    +0.044 C 
ATOM      2  C   UNL     1       0.075   0.224  -0.022  0.00  0.00    +0.164 C 
ATOM      3  C   UNL     1       0.883  -0.072  -1.266  0.00  0.00    +0.062 C 
ATOM      4  N   UNL     1       2.067  -0.408  -0.913  0.00  0.00    -0.253 NA
ATOM      5  C   UNL     1       2.176  -0.372   0.550  0.00  0.00    +0.269 C 
ATOM      6  O   UNL     1       0.824  -0.373   1.056  0.00  0.00    -0.342 OA
ENDROOT
BRANCH   5   7
ATOM      7  C   UNL     1       2.915  -1.589   1.044  0.00  0.00    +0.025 A 
ATOM      8  C   UNL     1       3.134  -2.657   0.197  0.00  0.00    +0.010 A 
ATOM      9  C   UNL     1       3.812  -3.773   0.649  0.00  0.00    +0.001 A 
ATOM     10  C   UNL     1       4.274  -3.825   1.952  0.00  0.00    +0.002 A 
ATOM     11  C   UNL     1       4.059  -2.760   2.805  0.00  0.00    +0.025 A 
ATOM     12  C   UNL     1       3.383  -1.635   2.352  0.00  0.00    +0.057 A 
BRANCH  12  13
ATOM     13  N   UNL     1       3.168  -0.554   3.210  0.00  0.00    -0.206 N 
ATOM     14  H   UNL     1       2.347  -0.042   3.150  0.00  0.00    +0.175 HD
BRANCH  13  15
ATOM     15  S   UNL     1       4.317  -0.147   4.331  0.00  0.00    +0.111 S 
ATOM     16  O   UNL     1       3.880   1.060   4.940  0.00  0.00    -0.138 OA
ATOM     17  O   UNL     1       4.588  -1.323   5.080  0.00  0.00    -0.138 OA
BRANCH  15  18
ATOM     18  N   UNL     1       5.704   0.216   3.502  0.00  0.00    -0.170 NA
ATOM     19  C   UNL     1       5.956   1.591   3.064  0.00  0.00    +0.132 C 
ATOM     20  C   UNL     1       6.678  -0.837   3.207  0.00  0.00    +0.132 C 
ENDBRANCH  15  18
ENDBRANCH  13  15
ENDBRANCH  12  13
ENDBRANCH   5   7
BRANCH   3  21
ATOM     21  C   UNL     1       0.379   0.014  -2.684  0.00  0.00    +0.157 C 
BRANCH  21  22
ATOM     22  N   UNL     1       1.457  -0.347  -3.608  0.00  0.00    -0.310 N 
ATOM     23  C   UNL     1       1.235  -0.341  -4.937  0.00  0.00    +0.217 C 
ATOM     24  O   UNL     1       0.143  -0.036  -5.369  0.00  0.00    -0.275 OA
ATOM     25  H   UNL     1       2.330  -0.592  -3.263  0.00  0.00    +0.149 HD
BRANCH  23  26
ATOM     26  C   UNL     1       2.344  -0.713  -5.888  0.00  0.00    +0.129 C 
BRANCH  26  27
ATOM     27  C   UNL     1       1.840  -0.627  -7.306  0.00  0.00    -0.033 C 
ATOM     28  C   UNL     1       1.964   0.422  -8.150  0.00  0.00    -0.001 A 
ATOM     29  C   UNL     1       2.580   1.746  -8.007  0.00  0.00    +0.010 A 
ATOM     30  C   UNL     1       2.544   2.603  -9.054  0.00  0.00    +0.001 A 
ATOM     31  C   UNL     1       1.935   2.258 -10.268  0.00  0.00    +0.002 A 
ATOM     32  C   UNL     1       1.348   1.060 -10.475  0.00  0.00    +0.026 A 
ATOM     33  C   UNL     1       1.327   0.082  -9.443  0.00  0.00    +0.043 A 
ATOM     34  N   UNL     1       0.829  -1.130  -9.399  0.00  0.00    -0.380 N 
ATOM     35  C   UNL     1       1.099  -1.699  -8.074  0.00  0.00    +0.145 C 
ATOM     36  H   UNL     1       0.363  -1.577 -10.123  0.00  0.00    +0.160 HD
ENDBRANCH  26  27
ENDBRANCH  23  26
ENDBRANCH  21  22
ENDBRANCH   3  21
TORSDOF 8
