REMARK  Name = ZINC34784971
REMARK  9 active torsions:
REMARK  status: ('A' for Active; 'I' for Inactive)
REMARK    1  A    between atoms: C_1  and  C_2
REMARK    2  A    between atoms: C_2  and  C_3
REMARK    3  A    between atoms: C_2  and  C_4
REMARK    4  A    between atoms: C_4  and  N_5
REMARK    5  A    between atoms: N_8  and  C_9
REMARK    6  A    between atoms: C_10  and  C_22
REMARK    7  A    between atoms: N_12  and  C_15
REMARK    8  A    between atoms: C_13  and  N_14
REMARK    9  A    between atoms: C_15  and  C_16
REMARK                            x       y       z     vdW  Elec       q    Type
REMARK                         _______ _______ _______ _____ _____    ______ ____
ROOT
ATOM      1  C   UNL     1       0.252  -0.428   6.062  0.00  0.00    +0.102 A 
ATOM      2  C   UNL     1      -0.485  -0.348   7.261  0.00  0.00    +0.116 A 
ATOM      3  N   UNL     1       0.328  -0.623   8.261  0.00  0.00    -0.167 NA
ATOM      4  N   UNL     1       1.600  -0.885   7.738  0.00  0.00    -0.244 N 
ATOM      5  C   UNL     1       1.532  -0.766   6.384  0.00  0.00    +0.137 A 
ENDROOT
BRANCH   1   9
ATOM      6  N   UNL     1      -2.014  -0.289   3.237  0.00  0.00    -0.299 N 
ATOM      7  C   UNL     1      -1.500  -0.593   4.445  0.00  0.00    +0.304 C 
ATOM      8  O   UNL     1      -2.165  -1.217   5.250  0.00  0.00    -0.253 OA
ATOM      9  N   UNL     1      -0.248  -0.205   4.762  0.00  0.00    -0.265 N 
ATOM     10  H   UNL     1      -1.483   0.208   2.595  0.00  0.00    +0.150 HD
ATOM     11  H   UNL     1       0.308   0.228   4.096  0.00  0.00    +0.157 HD
BRANCH   6  12
ATOM     12  C   UNL     1      -3.374  -0.711   2.892  0.00  0.00    +0.108 C 
BRANCH  12  14
ATOM     13  C   UNL     1      -2.799  -0.956   0.473  0.00  0.00    +0.009 C 
ATOM     14  C   UNL     1      -3.710  -0.243   1.475  0.00  0.00    -0.000 C 
ATOM     15  C   UNL     1      -5.170  -0.574   1.161  0.00  0.00    +0.009 C 
ENDBRANCH  12  14
ENDBRANCH   6  12
ENDBRANCH   1   9
BRANCH   2  16
ATOM     16  C   UNL     1      -1.926  -0.013   7.378  0.00  0.00    +0.004 A 
ATOM     17  C   UNL     1      -2.511   0.878   6.480  0.00  0.00    +0.010 A 
ATOM     18  C   UNL     1      -3.851   1.186   6.592  0.00  0.00    +0.001 A 
ATOM     19  C   UNL     1      -4.614   0.613   7.594  0.00  0.00    +0.000 A 
ATOM     20  C   UNL     1      -4.038  -0.272   8.488  0.00  0.00    +0.001 A 
ATOM     21  C   UNL     1      -2.700  -0.592   8.381  0.00  0.00    +0.010 A 
ENDBRANCH   2  16
BRANCH   5  22
ATOM     22  N   UNL     1       2.585  -0.953   5.487  0.00  0.00    -0.342 N 
ATOM     23  H   UNL     1       2.416  -0.942   4.532  0.00  0.00    +0.144 HD
ATOM     24  H   UNL     1       3.486  -1.094   5.819  0.00  0.00    +0.144 HD
ENDBRANCH   5  22
BRANCH   4  25
ATOM     25  C   UNL     1       2.793  -1.233   8.512  0.00  0.00    +0.180 C 
BRANCH  25  26
ATOM     26  C   UNL     1       2.873  -2.730   8.667  0.00  0.00    -0.026 A 
ATOM     27  C   UNL     1       2.270  -3.346   9.747  0.00  0.00    +0.005 A 
ATOM     28  C   UNL     1       2.343  -4.719   9.889  0.00  0.00    +0.000 A 
ATOM     29  C   UNL     1       3.020  -5.476   8.950  0.00  0.00    +0.000 A 
ATOM     30  C   UNL     1       3.623  -4.860   7.870  0.00  0.00    +0.000 A 
ATOM     31  C   UNL     1       3.546  -3.487   7.726  0.00  0.00    +0.005 A 
ENDBRANCH  25  26
ENDBRANCH   4  25
TORSDOF 7
