REMARK  Name = ZINC45974570
REMARK  7 active torsions:
REMARK  status: ('A' for Active; 'I' for Inactive)
REMARK    1  A    between atoms: C_1  and  C_2
REMARK    2  A    between atoms: C_2  and  C_3
REMARK    3  A    between atoms: C_6  and  S_9
REMARK    4  A    between atoms: S_9  and  N_12
REMARK    5  A    between atoms: N_12  and  C_13
REMARK    6  A    between atoms: N_12  and  C_22
REMARK    7  A    between atoms: C_13  and  C_14
REMARK                            x       y       z     vdW  Elec       q    Type
REMARK                         _______ _______ _______ _____ _____    ______ ____
ROOT
ATOM      1  N   UNL     1       3.400  -0.674   5.753  0.00  0.00    -0.165 NA
ENDROOT
BRANCH   1   2
ATOM      2  C   UNL     1       4.705  -0.063   5.491  0.00  0.00    +0.080 C 
ATOM      3  C   UNL     1       5.550  -0.100   6.766  0.00  0.00    +0.020 C 
ATOM      4  C   UNL     1       6.914   0.539   6.493  0.00  0.00    +0.002 C 
ATOM      5  C   UNL     1       6.718   1.991   6.053  0.00  0.00    +0.000 C 
ATOM      6  C   UNL     1       5.873   2.028   4.778  0.00  0.00    +0.002 C 
ATOM      7  C   UNL     1       4.510   1.389   5.051  0.00  0.00    +0.020 C 
ENDBRANCH   1   2
BRANCH   1   8
ATOM      8  S   UNL     1       2.920  -2.003   4.890  0.00  0.00    +0.062 S 
ATOM      9  O   UNL     1       1.959  -2.680   5.688  0.00  0.00    -0.153 OA
ATOM     10  O   UNL     1       4.105  -2.635   4.425  0.00  0.00    -0.153 OA
BRANCH   8  14
ATOM     11  C   UNL     1       0.731  -0.503   1.223  0.00  0.00    -0.048 A 
ATOM     12  C   UNL     1       2.097  -0.710   1.176  0.00  0.00    +0.005 A 
ATOM     13  C   UNL     1       2.766  -1.167   2.296  0.00  0.00    +0.029 A 
ATOM     14  C   UNL     1       2.068  -1.419   3.463  0.00  0.00    +0.106 A 
ATOM     15  C   UNL     1       0.702  -1.212   3.510  0.00  0.00    +0.029 A 
ATOM     16  C   UNL     1       0.034  -0.750   2.391  0.00  0.00    +0.005 A 
BRANCH  11  18
ATOM     17  C   UNL     1      -0.019   1.526   0.010  0.00  0.00    +0.009 C 
ATOM     18  C   UNL     1       0.002  -0.004   0.002  0.00  0.00    +0.032 C 
ENDBRANCH  11  18
ENDBRANCH   8  14
ENDBRANCH   1   8
BRANCH   1  19
ATOM     19  C   UNL     1       2.519  -0.109   6.778  0.00  0.00    +0.205 C 
BRANCH  19  20
ATOM     20  C   UNL     1       2.890  -0.672   8.126  0.00  0.00    +0.231 C 
ATOM     21  O   UNL     1       3.802  -1.466   8.221  0.00  0.00    -0.274 OA
ATOM     22  N   UNL     1       2.210  -0.292   9.225  0.00  0.00    -0.304 N 
ATOM     23  C   UNL     1       1.097   0.666   9.133  0.00  0.00    +0.089 C 
ATOM     24  C   UNL     1      -0.112   0.077   9.868  0.00  0.00    -0.063 C 
ATOM     25  N   UNL     1       0.274  -0.274  11.240  0.00  0.00    +0.381 N 
ATOM     26  C   UNL     1       1.281  -1.341  11.219  0.00  0.00    -0.063 C 
ATOM     27  C   UNL     1       2.556  -0.828  10.551  0.00  0.00    +0.089 C 
ATOM     28  H   UNL     1       0.656   0.539  11.699  0.00  0.00    -0.086 HD
ATOM     29  H   UNL     1      -0.540  -0.590  11.746  0.00  0.00    -0.086 HD
ENDBRANCH  19  20
ENDBRANCH   1  19
TORSDOF 6
