REMARK  Name = ZINC27323688
REMARK  8 active torsions:
REMARK  status: ('A' for Active; 'I' for Inactive)
REMARK    1  A    between atoms: C_1  and  C_2
REMARK    2  A    between atoms: C_2  and  C_4
REMARK    3  A    between atoms: C_2  and  N_14
REMARK    4  A    between atoms: C_7  and  S_10
REMARK    5  A    between atoms: S_10  and  N_13
REMARK    6  A    between atoms: C_15  and  C_17
REMARK    7  A    between atoms: C_17  and  C_18
REMARK    8  A    between atoms: C_18  and  N_19
REMARK                            x       y       z     vdW  Elec       q    Type
REMARK                         _______ _______ _______ _____ _____    ______ ____
ROOT
ATOM      1  N   UNL     1       0.688  -0.476  -1.203  0.00  0.00    -0.309 N 
ATOM      2  C   UNL     1       2.031  -0.587  -1.215  0.00  0.00    +0.215 C 
ATOM      3  O   UNL     1       2.672  -0.295  -0.228  0.00  0.00    -0.276 OA
ATOM      4  H   UNL     1       0.175  -0.710  -1.993  0.00  0.00    +0.149 HD
ENDROOT
BRANCH   1   6
ATOM      5  C   UNL     1      -0.019   1.526   0.010  0.00  0.00    +0.033 C 
ATOM      6  C   UNL     1       0.002  -0.004   0.002  0.00  0.00    +0.100 C 
BRANCH   6   7
ATOM      7  C   UNL     1      -1.412  -0.526   0.013  0.00  0.00    -0.027 A 
ATOM      8  C   UNL     1      -2.141  -0.569  -1.161  0.00  0.00    +0.007 A 
ATOM      9  C   UNL     1      -3.438  -1.047  -1.151  0.00  0.00    +0.029 A 
ATOM     10  C   UNL     1      -4.005  -1.483   0.032  0.00  0.00    +0.105 A 
ATOM     11  C   UNL     1      -3.275  -1.441   1.205  0.00  0.00    +0.029 A 
ATOM     12  C   UNL     1      -1.977  -0.966   1.195  0.00  0.00    +0.007 A 
BRANCH  10  13
ATOM     13  S   UNL     1      -5.659  -2.092   0.045  0.00  0.00    +0.056 S 
ATOM     14  O   UNL     1      -6.142  -1.928   1.371  0.00  0.00    -0.153 OA
ATOM     15  O   UNL     1      -6.311  -1.518  -1.080  0.00  0.00    -0.153 OA
BRANCH  13  16
ATOM     16  N   UNL     1      -5.582  -3.723  -0.233  0.00  0.00    -0.204 NA
ATOM     17  H   UNL     1      -6.256  -4.311   0.142  0.00  0.00    +0.144 HD
ATOM     18  H   UNL     1      -4.863  -4.090  -0.771  0.00  0.00    +0.144 HD
ENDBRANCH  13  16
ENDBRANCH  10  13
ENDBRANCH   6   7
ENDBRANCH   1   6
BRANCH   2  19
ATOM     19  C   UNL     1       2.736  -1.073  -2.455  0.00  0.00    +0.115 C 
BRANCH  19  20
ATOM     20  C   UNL     1       4.245  -1.105  -2.204  0.00  0.00    +0.125 C 
BRANCH  20  21
ATOM     21  N   UNL     1       4.931  -1.578  -3.409  0.00  0.00    -0.241 N 
ATOM     22  C   UNL     1       5.190  -2.891  -3.654  0.00  0.00    +0.226 C 
ATOM     23  O   UNL     1       4.731  -3.847  -3.067  0.00  0.00    -0.275 OA
ATOM     24  C   UNL     1       6.157  -2.914  -4.795  0.00  0.00    +0.087 C 
ATOM     25  C   UNL     1       6.101  -4.049  -5.794  0.00  0.00    +0.013 C 
ATOM     26  C   UNL     1       7.187  -3.749  -6.847  0.00  0.00    +0.001 C 
ATOM     27  C   UNL     1       6.976  -2.393  -7.511  0.00  0.00    +0.001 C 
ATOM     28  C   UNL     1       6.839  -1.258  -6.479  0.00  0.00    +0.013 C 
ATOM     29  C   UNL     1       5.714  -1.626  -5.552  0.00  0.00    +0.087 C 
ATOM     30  C   UNL     1       5.365  -0.747  -4.395  0.00  0.00    +0.226 C 
ATOM     31  O   UNL     1       5.454   0.461  -4.345  0.00  0.00    -0.275 OA
ENDBRANCH  20  21
ENDBRANCH  19  20
ENDBRANCH   2  19
TORSDOF 7
