REMARK  Name = ZINC36187109
REMARK  10 active torsions:
REMARK  status: ('A' for Active; 'I' for Inactive)
REMARK    1  A    between atoms: C_1  and  C_2
REMARK    2  A    between atoms: C_6  and  C_14
REMARK    3  A    between atoms: C_12  and  C_13
REMARK    4  A    between atoms: C_14  and  O_15
REMARK    5  A    between atoms: O_15  and  C_16
REMARK    6  A    between atoms: C_16  and  C_18
REMARK    7  A    between atoms: C_18  and  C_19
REMARK    8  A    between atoms: C_19  and  C_21
REMARK    9  A    between atoms: C_19  and  N_27
REMARK   10  A    between atoms: C_28  and  C_30
REMARK                            x       y       z     vdW  Elec       q    Type
REMARK                         _______ _______ _______ _____ _____    ______ ____
ROOT
ATOM      1  C   UNL     1       0.116  -8.739  -1.855  0.00  0.00    +0.147 C 
ENDROOT
BRANCH   1   2
ATOM      2  C   UNL     1       0.093  -7.250  -2.081  0.00  0.00    +0.310 C 
ATOM      3  O   UNL     1       0.081  -6.809  -3.206  0.00  0.00    -0.251 OA
BRANCH   2   4
ATOM      4  O   UNL     1       0.087  -6.412  -1.032  0.00  0.00    -0.460 OA
BRANCH   4   5
ATOM      5  C   UNL     1       0.066  -5.012  -1.320  0.00  0.00    +0.268 C 
BRANCH   5  11
ATOM      6  C   UNL     1      -0.018   1.503   0.010  0.00  0.00    +0.044 C 
ATOM      7  C   UNL     1       0.002  -0.004   0.002  0.00  0.00    -0.044 A 
ATOM      8  C   UNL     1       0.006  -0.684  -1.207  0.00  0.00    +0.004 A 
ATOM      9  C   UNL     1       0.025  -2.050  -1.235  0.00  0.00    +0.012 A 
ATOM     10  C   UNL     1       0.040  -2.768  -0.035  0.00  0.00    +0.024 A 
ATOM     11  C   UNL     1       0.061  -4.234  -0.030  0.00  0.00    +0.007 A 
ATOM     12  C   UNL     1       0.077  -4.870   1.169  0.00  0.00    +0.099 A 
ATOM     13  C   UNL     1       0.072  -4.118   2.363  0.00  0.00    +0.338 A 
ATOM     14  O   UNL     1       0.086  -4.701   3.432  0.00  0.00    -0.245 OA
ATOM     15  O   UNL     1       0.053  -2.776   2.350  0.00  0.00    -0.422 OA
ATOM     16  C   UNL     1       0.037  -2.082   1.193  0.00  0.00    +0.143 A 
ATOM     17  C   UNL     1       0.023  -0.693   1.196  0.00  0.00    -0.005 A 
ATOM     18  C   UNL     1       0.025   0.059   2.502  0.00  0.00    +0.048 C 
ENDBRANCH   5  11
ENDBRANCH   4   5
ENDBRANCH   2   4
ENDBRANCH   1   2
BRANCH   1  19
ATOM     19  C   UNL     1       0.119  -9.460  -3.204  0.00  0.00    +0.114 C 
BRANCH  19  20
ATOM     20  C   UNL     1       0.265 -10.943  -2.982  0.00  0.00    -0.027 A 
ATOM     21  C   UNL     1      -0.835 -11.700  -2.625  0.00  0.00    +0.005 A 
ATOM     22  C   UNL     1      -0.701 -13.061  -2.420  0.00  0.00    +0.000 A 
ATOM     23  C   UNL     1       0.533 -13.664  -2.573  0.00  0.00    +0.000 A 
ATOM     24  C   UNL     1       1.633 -12.907  -2.931  0.00  0.00    +0.000 A 
ATOM     25  C   UNL     1       1.498 -11.548  -3.139  0.00  0.00    +0.005 A 
ENDBRANCH  19  20
BRANCH  19  26
ATOM     26  N   UNL     1      -1.141  -9.193  -3.903  0.00  0.00    -0.304 N 
ATOM     27  C   UNL     1      -1.195  -9.270  -5.248  0.00  0.00    +0.245 C 
ATOM     28  O   UNL     1      -0.198  -9.560  -5.880  0.00  0.00    -0.270 OA
ATOM     29  H   UNL     1      -1.936  -8.961  -3.398  0.00  0.00    +0.150 HD
BRANCH  27  30
ATOM     30  C   UNL     1      -2.466  -9.000  -5.953  0.00  0.00    +0.037 A 
ATOM     31  C   UNL     1      -3.610  -8.661  -5.230  0.00  0.00    +0.013 A 
ATOM     32  C   UNL     1      -4.793  -8.410  -5.894  0.00  0.00    +0.001 A 
ATOM     33  C   UNL     1      -4.846  -8.495  -7.274  0.00  0.00    +0.000 A 
ATOM     34  C   UNL     1      -3.716  -8.832  -7.997  0.00  0.00    +0.001 A 
ATOM     35  C   UNL     1      -2.525  -9.079  -7.345  0.00  0.00    +0.013 A 
ENDBRANCH  27  30
ENDBRANCH  19  26
ENDBRANCH   1  19
TORSDOF 8
