REMARK  Name = ZINC03376050
REMARK  14 active torsions:
REMARK  status: ('A' for Active; 'I' for Inactive)
REMARK    1  A    between atoms: C_1  and  C_2
REMARK    2  A    between atoms: C_3  and  C_30
REMARK    3  A    between atoms: C_4  and  C_29
REMARK    4  A    between atoms: C_7  and  C_8
REMARK    5  A    between atoms: C_8  and  C_10
REMARK    6  A    between atoms: C_10  and  S_11
REMARK    7  A    between atoms: S_11  and  C_12
REMARK    8  A    between atoms: C_15  and  C_24
REMARK    9  A    between atoms: N_16  and  C_17
REMARK   10  A    between atoms: C_24  and  C_26
REMARK   11  A    between atoms: C_24  and  N_57
REMARK   12  A    between atoms: C_27  and  N_57
REMARK   13  A    between atoms: C_28  and  N_57
REMARK   14  A    between atoms: C_30  and  C_32
REMARK                            x       y       z     vdW  Elec       q    Type
REMARK                         _______ _______ _______ _____ _____    ______ ____
ROOT
ATOM      1  C   UNL     1      -4.712  -1.962   1.188  0.00  0.00    +0.196 A 
ATOM      2  N   UNL     1      -3.719  -2.811   1.054  0.00  0.00    -0.122 NA
ATOM      3  N   UNL     1      -4.145  -4.012   1.218  0.00  0.00    -0.135 NA
ATOM      4  C   UNL     1      -5.424  -4.005   1.465  0.00  0.00    +0.125 A 
ATOM      5  N   UNL     1      -5.833  -2.697   1.461  0.00  0.00    -0.275 N 
ENDROOT
BRANCH   5   6
ATOM      6  C   UNL     1      -7.130  -2.214   1.686  0.00  0.00    +0.050 A 
ATOM      7  C   UNL     1      -7.729  -2.382   2.926  0.00  0.00    +0.028 A 
ATOM      8  C   UNL     1      -9.005  -1.901   3.147  0.00  0.00    +0.022 A 
ATOM      9  C   UNL     1      -9.690  -1.261   2.129  0.00  0.00    +0.041 A 
ATOM     10  C   UNL     1      -9.097  -1.097   0.890  0.00  0.00    +0.022 A 
ATOM     11  C   UNL     1      -7.819  -1.571   0.666  0.00  0.00    +0.028 A 
ATOM     12 CL   UNL     1     -11.295  -0.662   2.407  0.00  0.00    -0.084 Cl
ENDBRANCH   5   6
BRANCH   4  13
ATOM     13  C   UNL     1      -6.292  -5.211   1.716  0.00  0.00    -0.003 C 
ATOM     14  C   UNL     1      -6.554  -5.935   0.394  0.00  0.00    -0.005 C 
BRANCH  13  17
ATOM     15  C   UNL     1      -6.475  -7.252   3.006  0.00  0.00    -0.096 C 
ATOM     16  C   UNL     1      -4.337  -6.591   2.082  0.00  0.00    -0.096 C 
ATOM     17  N   UNL     1      -5.604  -6.106   2.669  0.00  0.00    +0.382 N 
ATOM     18  H   UNL     1      -5.395  -5.583   3.527  0.00  0.00    -0.082 HD
ENDBRANCH  13  17
ENDBRANCH   4  13
BRANCH   1  19
ATOM     19  S   UNL     1      -4.617  -0.208   1.052  0.00  0.00    -0.078 S 
BRANCH  19  20
ATOM     20  C   UNL     1      -2.853  -0.015   0.697  0.00  0.00    +0.158 C 
BRANCH  20  21
ATOM     21  C   UNL     1      -2.530   1.448   0.536  0.00  0.00    +0.190 C 
ATOM     22  O   UNL     1      -3.407   2.280   0.650  0.00  0.00    -0.290 OA
BRANCH  21  29
ATOM     23  C   UNL     1      -1.617   4.396   0.169  0.00  0.00    +0.047 C 
ATOM     24  C   UNL     1      -0.772   3.150   0.085  0.00  0.00    -0.012 A 
ATOM     25  C   UNL     1       0.614   3.089  -0.187  0.00  0.00    +0.041 A 
ATOM     26  C   UNL     1       0.974   1.749  -0.169  0.00  0.00    +0.024 A 
ATOM     27  N   UNL     1      -0.116   1.016   0.097  0.00  0.00    -0.355 N 
ATOM     28  H   UNL     1      -0.139   0.049   0.166  0.00  0.00    +0.166 HD
ATOM     29  C   UNL     1      -1.203   1.853   0.251  0.00  0.00    +0.087 A 
ATOM     30  C   UNL     1       2.360   1.208  -0.409  0.00  0.00    +0.064 C 
BRANCH  25  31
ATOM     31  C   UNL     1       1.503   4.227  -0.440  0.00  0.00    +0.162 C 
ATOM     32  O   UNL     1       2.028   4.805   0.489  0.00  0.00    -0.292 OA
ATOM     33  C   UNL     1       1.766   4.678  -1.853  0.00  0.00    +0.091 C 
ENDBRANCH  25  31
ENDBRANCH  21  29
ENDBRANCH  20  21
ENDBRANCH  19  20
ENDBRANCH   1  19
TORSDOF 8
