REMARK  Name = ZINC44728484
REMARK  8 active torsions:
REMARK  status: ('A' for Active; 'I' for Inactive)
REMARK    1  A    between atoms: C_1  and  C_2
REMARK    2  A    between atoms: C_11  and  C_12
REMARK    3  A    between atoms: C_12  and  C_13
REMARK    4  A    between atoms: C_13  and  N_14
REMARK    5  A    between atoms: C_15  and  C_17
REMARK    6  A    between atoms: C_28  and  C_30
REMARK    7  A    between atoms: C_32  and  C_39
REMARK    8  A    between atoms: C_34  and  C_35
REMARK                            x       y       z     vdW  Elec       q    Type
REMARK                         _______ _______ _______ _____ _____    ______ ____
ROOT
ATOM      1  C   UNL     1       2.681  -7.975   4.196  0.00  0.00    +0.100 C 
ATOM      2  C   UNL     1       2.317  -7.993   5.697  0.00  0.00    +0.121 C 
ATOM      3  N   UNL     1       3.171  -9.056   6.277  0.00  0.00    -0.296 N 
ATOM      4  C   UNL     1       4.473  -8.902   5.584  0.00  0.00    +0.115 C 
ATOM      5  C   UNL     1       4.097  -8.572   4.126  0.00  0.00    -0.004 C 
ATOM      6  C   UNL     1       5.073  -7.551   3.548  0.00  0.00    -0.010 C 
ATOM      7  C   UNL     1       6.461  -8.187   3.434  0.00  0.00    -0.082 C 
ATOM      8  N   UNL     1       6.390  -9.370   2.567  0.00  0.00    +0.379 N 
ATOM      9  C   UNL     1       5.521 -10.385   3.177  0.00  0.00    -0.082 C 
ATOM     10  C   UNL     1       4.093  -9.842   3.280  0.00  0.00    -0.010 C 
ATOM     11  C   UNL     1       2.840  -9.959   7.221  0.00  0.00    +0.250 C 
ATOM     12  O   UNL     1       1.692 -10.033   7.615  0.00  0.00    -0.270 OA
ATOM     13  H   UNL     1       6.016  -9.105   1.669  0.00  0.00    -0.086 HD
ATOM     14  H   UNL     1       7.316  -9.752   2.445  0.00  0.00    -0.086 HD
ENDROOT
BRANCH  11  15
ATOM     15  C   UNL     1       3.869 -10.856   7.777  0.00  0.00    +0.087 A 
ATOM     16  C   UNL     1       5.317 -10.808   7.529  0.00  0.00    +0.058 A 
ATOM     17  C   UNL     1       5.847 -11.813   8.242  0.00  0.00    +0.103 A 
ATOM     18  O   UNL     1       4.864 -12.457   8.892  0.00  0.00    -0.455 OA
ATOM     19  C   UNL     1       3.677 -11.900   8.633  0.00  0.00    +0.220 A 
ATOM     20  C   UNL     1       7.311 -12.164   8.305  0.00  0.00    +0.086 C 
BRANCH  19  21
ATOM     21  C   UNL     1       2.351 -12.352   9.190  0.00  0.00    +0.451 C 
ATOM     22  F   UNL     1       1.786 -13.305   8.336  0.00  0.00    -0.163 F 
ATOM     23  F   UNL     1       2.545 -12.916  10.455  0.00  0.00    -0.163 F 
ATOM     24  F   UNL     1       1.492 -11.253   9.296  0.00  0.00    -0.163 F 
ENDBRANCH  19  21
ENDBRANCH  11  15
BRANCH   1  26
ATOM     25  N   UNL     1       2.557  -6.333   2.350  0.00  0.00    -0.315 N 
ATOM     26  C   UNL     1       2.682  -6.562   3.673  0.00  0.00    +0.218 C 
ATOM     27  O   UNL     1       2.793  -5.630   4.441  0.00  0.00    -0.275 OA
ATOM     28  H   UNL     1       2.468  -7.078   1.735  0.00  0.00    +0.149 HD
BRANCH  25  29
ATOM     29  C   UNL     1       2.558  -4.959   1.841  0.00  0.00    +0.109 C 
BRANCH  29  30
ATOM     30  C   UNL     1       2.404  -4.979   0.319  0.00  0.00    +0.056 C 
BRANCH  30  41
ATOM     31  C   UNL     1       3.480   0.807  -1.846  0.00  0.00    +0.046 C 
ATOM     32  C   UNL     1       3.987  -0.527  -1.362  0.00  0.00    -0.027 A 
ATOM     33  C   UNL     1       5.342  -0.769  -1.300  0.00  0.00    +0.005 A 
ATOM     34  C   UNL     1       5.822  -1.994  -0.856  0.00  0.00    +0.001 A 
ATOM     35  C   UNL     1       4.958  -2.981  -0.473  0.00  0.00    +0.010 A 
ATOM     36  C   UNL     1       3.582  -2.756  -0.528  0.00  0.00    +0.003 A 
ATOM     37  C   UNL     1       3.090  -1.515  -0.972  0.00  0.00    +0.050 A 
ATOM     38  N   UNL     1       1.716  -1.579  -0.915  0.00  0.00    -0.360 N 
ATOM     39  H   UNL     1       1.114  -0.861  -1.167  0.00  0.00    +0.165 HD
ATOM     40  C   UNL     1       1.326  -2.805  -0.449  0.00  0.00    +0.087 A 
ATOM     41  C   UNL     1       2.404  -3.565  -0.204  0.00  0.00    -0.021 A 
ENDBRANCH  30  41
ENDBRANCH  29  30
ENDBRANCH  25  29
ENDBRANCH   1  26
TORSDOF 6
