REMARK  Name = ZINC39654383
REMARK  10 active torsions:
REMARK  status: ('A' for Active; 'I' for Inactive)
REMARK    1  A    between atoms: C_1  and  C_2
REMARK    2  A    between atoms: C_2  and  C_3
REMARK    3  A    between atoms: C_6  and  C_9
REMARK    4  A    between atoms: C_9  and  C_10
REMARK    5  A    between atoms: C_10  and  N_11
REMARK    6  A    between atoms: C_12  and  C_14
REMARK    7  A    between atoms: C_25  and  C_27
REMARK    8  A    between atoms: C_32  and  O_33
REMARK    9  A    between atoms: O_33  and  C_34
REMARK   10  A    between atoms: C_34  and  C_35
REMARK                            x       y       z     vdW  Elec       q    Type
REMARK                         _______ _______ _______ _____ _____    ______ ____
ROOT
ATOM      1  C   UNL     1       5.207  -0.845   8.819  0.00  0.00    +0.100 C 
ATOM      2  C   UNL     1       6.411  -1.722   8.410  0.00  0.00    +0.121 C 
ATOM      3  N   UNL     1       7.566  -0.793   8.399  0.00  0.00    -0.296 N 
ATOM      4  C   UNL     1       7.343   0.084   9.574  0.00  0.00    +0.115 C 
ATOM      5  C   UNL     1       5.823   0.338   9.585  0.00  0.00    -0.004 C 
ATOM      6  C   UNL     1       5.303   0.366  11.020  0.00  0.00    -0.010 C 
ATOM      7  C   UNL     1       5.883   1.583  11.745  0.00  0.00    -0.082 C 
ATOM      8  N   UNL     1       5.493   2.809  11.037  0.00  0.00    +0.379 N 
ATOM      9  C   UNL     1       6.075   2.816   9.690  0.00  0.00    -0.082 C 
ATOM     10  C   UNL     1       5.502   1.651   8.878  0.00  0.00    -0.010 C 
ATOM     11  C   UNL     1       8.587  -0.755   7.521  0.00  0.00    +0.250 C 
ATOM     12  O   UNL     1       8.580  -1.483   6.548  0.00  0.00    -0.270 OA
ATOM     13  H   UNL     1       4.487   2.849  10.968  0.00  0.00    -0.086 HD
ATOM     14  H   UNL     1       5.824   3.612  11.550  0.00  0.00    -0.086 HD
ENDROOT
BRANCH  11  15
ATOM     15  C   UNL     1       9.714   0.172   7.741  0.00  0.00    +0.078 A 
ATOM     16  C   UNL     1      10.152   0.450   9.038  0.00  0.00    +0.017 A 
ATOM     17  C   UNL     1      11.206   1.316   9.236  0.00  0.00    +0.001 A 
ATOM     18  C   UNL     1      11.834   1.912   8.154  0.00  0.00    +0.004 A 
ATOM     19  C   UNL     1      11.411   1.646   6.867  0.00  0.00    +0.046 A 
ATOM     20  C   UNL     1      10.355   0.773   6.649  0.00  0.00    +0.133 A 
BRANCH  20  21
ATOM     21  O   UNL     1       9.942   0.506   5.385  0.00  0.00    -0.491 OA
BRANCH  21  22
ATOM     22  C   UNL     1      10.643   1.155   4.322  0.00  0.00    +0.226 C 
ATOM     23  C   UNL     1      10.040   0.735   2.981  0.00  0.00    +0.048 C 
ENDBRANCH  21  22
ENDBRANCH  20  21
ENDBRANCH  11  15
BRANCH   1  25
ATOM     24  N   UNL     1       3.150  -0.125   7.649  0.00  0.00    -0.315 N 
ATOM     25  C   UNL     1       4.477  -0.353   7.595  0.00  0.00    +0.218 C 
ATOM     26  O   UNL     1       5.083  -0.164   6.562  0.00  0.00    -0.275 OA
ATOM     27  H   UNL     1       2.664  -0.277   8.476  0.00  0.00    +0.149 HD
BRANCH  24  28
ATOM     28  C   UNL     1       2.439   0.353   6.460  0.00  0.00    +0.109 C 
BRANCH  28  29
ATOM     29  C   UNL     1       0.956   0.530   6.789  0.00  0.00    +0.054 C 
BRANCH  29  33
ATOM     30  C   UNL     1      -1.117   1.922   3.323  0.00  0.00    -0.048 A 
ATOM     31  C   UNL     1      -0.989   0.565   3.554  0.00  0.00    +0.004 A 
ATOM     32  C   UNL     1      -0.318   0.115   4.675  0.00  0.00    +0.004 A 
ATOM     33  C   UNL     1       0.225   1.021   5.566  0.00  0.00    -0.046 A 
ATOM     34  C   UNL     1       0.098   2.378   5.335  0.00  0.00    +0.004 A 
ATOM     35  C   UNL     1      -0.569   2.829   4.212  0.00  0.00    +0.004 A 
BRANCH  30  37
ATOM     36  C   UNL     1      -0.861   2.563   0.942  0.00  0.00    +0.009 C 
ATOM     37  C   UNL     1      -1.848   2.413   2.101  0.00  0.00    +0.032 C 
ENDBRANCH  30  37
ENDBRANCH  29  33
ENDBRANCH  28  29
ENDBRANCH  24  28
ENDBRANCH   1  25
TORSDOF 8
