REMARK  Name = ZINC23983477
REMARK  6 active torsions:
REMARK  status: ('A' for Active; 'I' for Inactive)
REMARK    1  A    between atoms: C_3  and  C_6
REMARK    2  A    between atoms: N_15  and  C_16
REMARK    3  A    between atoms: C_16  and  C_17
REMARK    4  A    between atoms: N_25  and  C_26
REMARK    5  A    between atoms: C_26  and  C_27
REMARK    6  A    between atoms: C_27  and  O_28
REMARK                            x       y       z     vdW  Elec       q    Type
REMARK                         _______ _______ _______ _____ _____    ______ ____
ROOT
ATOM      1  C   UNL     1      -0.372   0.901  -2.407  0.00  0.00    +0.159 C 
ENDROOT
BRANCH   1   2
ATOM      2  C   UNL     1       1.014   1.305  -2.840  0.00  0.00    +0.125 A 
ATOM      3  N   UNL     1       1.296   2.360  -3.548  0.00  0.00    -0.231 NA
ATOM      4  C   UNL     1       2.636   2.424  -3.758  0.00  0.00    +0.089 A 
ATOM      5  C   UNL     1       3.463   3.323  -4.435  0.00  0.00    +0.031 A 
ATOM      6  C   UNL     1       4.813   3.114  -4.470  0.00  0.00    +0.022 A 
ATOM      7  C   UNL     1       5.375   2.012  -3.839  0.00  0.00    +0.043 A 
ATOM      8  C   UNL     1       4.577   1.111  -3.165  0.00  0.00    +0.048 A 
ATOM      9  C   UNL     1       3.204   1.309  -3.118  0.00  0.00    +0.070 A 
ATOM     10  N   UNL     1       2.153   0.623  -2.542  0.00  0.00    -0.324 N 
ATOM     11 CL   UNL     1       7.093   1.767  -3.899  0.00  0.00    -0.083 Cl
BRANCH  10  12
ATOM     12  C   UNL     1       2.247  -0.611  -1.759  0.00  0.00    +0.151 C 
BRANCH  12  13
ATOM     13  C   UNL     1       2.264  -1.815  -2.704  0.00  0.00    +0.177 C 
BRANCH  13  14
ATOM     14  O   UNL     1       2.467  -3.010  -1.949  0.00  0.00    -0.393 OA
ATOM     15  H   UNL     1       2.509  -3.983  -2.460  0.00  0.00    +0.209 HD
ENDBRANCH  13  14
ENDBRANCH  12  13
ENDBRANCH  10  12
ENDBRANCH   1   2
BRANCH   1  24
ATOM     16  C   UNL     1      -0.718   3.089  -1.431  0.00  0.00    +0.125 C 
ATOM     17  C   UNL     1      -1.084   3.803  -0.133  0.00  0.00    -0.015 A 
ATOM     18  C   UNL     1      -1.519   5.124  -0.069  0.00  0.00    +0.013 A 
ATOM     19  C   UNL     1      -1.825   5.679   1.127  0.00  0.00    +0.046 A 
ATOM     20  S   UNL     1      -1.507   4.328   2.253  0.00  0.00    -0.101 S 
ATOM     21  C   UNL     1      -0.993   3.134   1.051  0.00  0.00    -0.004 A 
ATOM     22  C   UNL     1      -0.549   1.720   1.246  0.00  0.00    +0.058 C 
ATOM     23  C   UNL     1       0.113   1.253  -0.061  0.00  0.00    +0.091 C 
ATOM     24  N   UNL     1      -0.741   1.641  -1.193  0.00  0.00    -0.284 NA
BRANCH  16  27
ATOM     25  C   UNL     1      -2.626   4.433  -4.442  0.00  0.00    +0.008 A 
ATOM     26  C   UNL     1      -1.562   4.256  -3.577  0.00  0.00    +0.013 A 
ATOM     27  C   UNL     1      -1.714   3.442  -2.505  0.00  0.00    +0.011 A 
ATOM     28  S   UNL     1      -3.400   2.887  -2.699  0.00  0.00    -0.100 S 
ATOM     29  C   UNL     1      -3.790   3.786  -4.191  0.00  0.00    +0.045 A 
ENDBRANCH  16  27
ENDBRANCH   1  24
TORSDOF 6
