REMARK  Name = ZINC59310013
REMARK  7 active torsions:
REMARK  status: ('A' for Active; 'I' for Inactive)
REMARK    1  A    between atoms: C_1  and  C_2
REMARK    2  A    between atoms: C_6  and  N_8
REMARK    3  A    between atoms: C_9  and  C_11
REMARK    4  A    between atoms: C_11  and  S_12
REMARK    5  A    between atoms: S_12  and  C_13
REMARK    6  A    between atoms: N_18  and  N_19
REMARK    7  A    between atoms: C_20  and  C_21
REMARK                            x       y       z     vdW  Elec       q    Type
REMARK                         _______ _______ _______ _____ _____    ______ ____
ROOT
ATOM      1  C   UNL     1      -0.392  -7.409   4.941  0.00  0.00    +0.211 A 
ATOM      2  N   UNL     1      -0.466  -8.721   5.189  0.00  0.00    -0.186 NA
ATOM      3  C   UNL     1      -0.514  -8.924   6.489  0.00  0.00    +0.232 A 
ATOM      4  N   UNL     1      -0.471  -7.720   7.100  0.00  0.00    -0.245 N 
ATOM      5  N   UNL     1      -0.387  -6.759   6.080  0.00  0.00    -0.144 NA
ATOM      6  N   UNL     1      -0.595 -10.152   7.118  0.00  0.00    -0.205 N 
ATOM      7  H   UNL     1      -0.627 -10.200   8.086  0.00  0.00    +0.177 HD
ATOM      8  H   UNL     1      -0.491  -7.553   8.056  0.00  0.00    +0.192 HD
ENDROOT
BRANCH   6   9
ATOM      9  N   UNL     1      -0.632 -11.328   6.356  0.00  0.00    -0.188 NA
ATOM     10  C   UNL     1      -0.708 -12.485   6.948  0.00  0.00    +0.139 C 
BRANCH  10  11
ATOM     11  C   UNL     1      -0.746 -13.714   6.152  0.00  0.00    +0.010 A 
ATOM     12  C   UNL     1      -0.956 -14.962   6.775  0.00  0.00    -0.009 A 
ATOM     13  C   UNL     1      -1.132 -15.058   8.166  0.00  0.00    +0.009 A 
ATOM     14  C   UNL     1      -1.333 -16.276   8.736  0.00  0.00    +0.001 A 
ATOM     15  C   UNL     1      -1.368 -17.443   7.974  0.00  0.00    +0.001 A 
ATOM     16  C   UNL     1      -1.204 -17.419   6.626  0.00  0.00    +0.008 A 
ATOM     17  C   UNL     1      -0.993 -16.186   5.972  0.00  0.00    -0.017 A 
ATOM     18  C   UNL     1      -0.822 -16.127   4.589  0.00  0.00    +0.017 A 
ATOM     19  C   UNL     1      -0.614 -14.896   3.964  0.00  0.00    -0.017 A 
ATOM     20  C   UNL     1      -0.579 -13.663   4.752  0.00  0.00    -0.009 A 
ATOM     21  C   UNL     1      -0.373 -12.441   4.090  0.00  0.00    +0.009 A 
ATOM     22  C   UNL     1      -0.216 -12.426   2.739  0.00  0.00    +0.001 A 
ATOM     23  C   UNL     1      -0.254 -13.598   1.986  0.00  0.00    +0.001 A 
ATOM     24  C   UNL     1      -0.438 -14.812   2.566  0.00  0.00    +0.008 A 
ENDBRANCH  10  11
ENDBRANCH   6   9
BRANCH   1  25
ATOM     25  S   UNL     1      -0.307  -6.673   3.342  0.00  0.00    -0.075 S 
BRANCH  25  26
ATOM     26  C   UNL     1      -0.218  -4.894   3.682  0.00  0.00    +0.173 C 
BRANCH  26  28
ATOM     27  N   UNL     1      -0.067  -2.791   2.388  0.00  0.00    -0.285 N 
ATOM     28  C   UNL     1      -0.141  -4.136   2.381  0.00  0.00    +0.227 C 
ATOM     29  O   UNL     1      -0.145  -4.738   1.328  0.00  0.00    -0.275 OA
ATOM     30  H   UNL     1       0.014  -2.314   3.229  0.00  0.00    +0.155 HD
BRANCH  27  36
ATOM     31  C   UNL     1       1.344   1.081  -0.293  0.00  0.00    +0.044 C 
ATOM     32  C   UNL     1       0.568  -0.202  -0.144  0.00  0.00    -0.049 A 
ATOM     33  C   UNL     1      -0.186  -0.679  -1.201  0.00  0.00    +0.003 A 
ATOM     34  C   UNL     1      -0.899  -1.856  -1.069  0.00  0.00    +0.002 A 
ATOM     35  C   UNL     1      -0.862  -2.559   0.119  0.00  0.00    +0.023 A 
ATOM     36  C   UNL     1      -0.107  -2.082   1.183  0.00  0.00    +0.034 A 
ATOM     37  C   UNL     1       0.613  -0.902   1.045  0.00  0.00    +0.026 A 
ENDBRANCH  27  36
ENDBRANCH  26  28
ENDBRANCH  25  26
ENDBRANCH   1  25
TORSDOF 6
