REMARK  Name = ZINC09846957
REMARK  8 active torsions:
REMARK  status: ('A' for Active; 'I' for Inactive)
REMARK    1  A    between atoms: C_1  and  C_2
REMARK    2  A    between atoms: C_4  and  C_15
REMARK    3  A    between atoms: C_5  and  C_14
REMARK    4  A    between atoms: N_6  and  C_7
REMARK    5  A    between atoms: N_16  and  N_17
REMARK    6  A    between atoms: C_18  and  C_20
REMARK    7  A    between atoms: N_22  and  C_23
REMARK    8  A    between atoms: C_26  and  N_29
REMARK                            x       y       z     vdW  Elec       q    Type
REMARK                         _______ _______ _______ _____ _____    ______ ____
ROOT
ATOM      1  N   UNL     1       3.599  -4.872  -0.373  0.00  0.00    -0.199 N 
ATOM      2  C   UNL     1       2.426  -4.218  -0.257  0.00  0.00    +0.318 C 
ATOM      3  O   UNL     1       1.382  -4.839  -0.250  0.00  0.00    -0.263 OA
ATOM      4  H   UNL     1       4.432  -4.376  -0.379  0.00  0.00    +0.178 HD
ENDROOT
BRANCH   2   5
ATOM      5  C   UNL     1       2.410  -2.732  -0.137  0.00  0.00    +0.305 C 
ATOM      6  O   UNL     1       3.454  -2.111  -0.144  0.00  0.00    -0.265 OA
ATOM      7  N   UNL     1       1.238  -2.078  -0.021  0.00  0.00    -0.278 N 
ATOM      8  H   UNL     1       0.410  -2.577   0.062  0.00  0.00    +0.155 HD
BRANCH   7   9
ATOM      9  C   UNL     1       1.215  -0.681  -0.019  0.00  0.00    +0.034 A 
ATOM     10  C   UNL     1       2.137   0.032  -0.775  0.00  0.00    +0.025 A 
ATOM     11  C   UNL     1       2.111   1.413  -0.772  0.00  0.00    +0.034 A 
ATOM     12  C   UNL     1       1.168   2.086  -0.017  0.00  0.00    +0.126 A 
ATOM     13  C   UNL     1       0.249   1.380   0.737  0.00  0.00    +0.034 A 
ATOM     14  C   UNL     1       0.269  -0.001   0.738  0.00  0.00    +0.025 A 
BRANCH  12  15
ATOM     15  N   UNL     1       1.144   3.566  -0.015  0.00  0.00    +0.056 N 
ATOM     16  O   UNL     1       1.953   4.189  -0.679  0.00  0.00    -0.126 OA
ATOM     17  O   UNL     1       0.314   4.161   0.649  0.00  0.00    -0.126 OA
ENDBRANCH  12  15
ENDBRANCH   7   9
ENDBRANCH   2   5
BRANCH   1  19
ATOM     18  C   UNL     1       4.744  -6.899  -0.599  0.00  0.00    +0.140 C 
ATOM     19  N   UNL     1       3.613  -6.268  -0.486  0.00  0.00    -0.187 NA
BRANCH  18  23
ATOM     20  C   UNL     1       6.346 -11.722  -1.071  0.00  0.00    +0.064 C 
ATOM     21  C   UNL     1       5.488 -10.492  -0.927  0.00  0.00    +0.022 A 
ATOM     22  C   UNL     1       5.940  -9.227  -0.850  0.00  0.00    +0.032 A 
ATOM     23  C   UNL     1       4.760  -8.367  -0.717  0.00  0.00    +0.016 A 
ATOM     24  C   UNL     1       3.677  -9.201  -0.719  0.00  0.00    +0.030 A 
ATOM     25  N   UNL     1       4.124 -10.479  -0.852  0.00  0.00    -0.317 N 
ATOM     26  C   UNL     1       2.235  -8.778  -0.599  0.00  0.00    +0.064 C 
BRANCH  25  27
ATOM     27  C   UNL     1       3.306 -11.616  -0.898  0.00  0.00    +0.048 A 
ATOM     28  C   UNL     1       3.370 -12.561   0.117  0.00  0.00    +0.026 A 
ATOM     29  C   UNL     1       2.562 -13.680   0.069  0.00  0.00    +0.003 A 
ATOM     30  C   UNL     1       1.690 -13.861  -0.988  0.00  0.00    +0.015 A 
ATOM     31  C   UNL     1       1.623 -12.921  -2.001  0.00  0.00    +0.020 A 
ATOM     32  C   UNL     1       2.425 -11.796  -1.956  0.00  0.00    +0.041 A 
ATOM     33 BR   UNL     1       0.428 -13.172  -3.445  0.00  0.00    -0.050 Br
ENDBRANCH  25  27
ENDBRANCH  18  23
ENDBRANCH   1  19
TORSDOF 6
