REMARK  Name = ZINC50043872
REMARK  4 active torsions:
REMARK  status: ('A' for Active; 'I' for Inactive)
REMARK    1  A    between atoms: C_1  and  C_2
REMARK    2  A    between atoms: C_12  and  C_14
REMARK    3  A    between atoms: N_21  and  C_22
REMARK    4  A    between atoms: C_22  and  C_23
REMARK                            x       y       z     vdW  Elec       q    Type
REMARK                         _______ _______ _______ _____ _____    ______ ____
ROOT
ATOM      1  C   UNL     1      -0.172   1.495  -0.083  0.00  0.00    +0.066 C 
ATOM      2  C   UNL     1      -0.111  -0.011  -0.067  0.00  0.00    +0.047 C 
ATOM      3  C   UNL     1      -1.271  -0.733  -0.068  0.00  0.00    +0.091 C 
ATOM      4  C   UNL     1      -1.194  -2.137  -0.053  0.00  0.00    +0.249 C 
ATOM      5  O   UNL     1      -2.205  -2.820  -0.053  0.00  0.00    -0.270 OA
ATOM      6  N   UNL     1       0.045  -2.718  -0.039  0.00  0.00    -0.215 N 
ATOM      7  C   UNL     1       1.174  -1.942  -0.039  0.00  0.00    +0.229 C 
ATOM      8  N   UNL     1       1.068  -0.618  -0.058  0.00  0.00    -0.219 NA
ATOM      9  N   UNL     1       2.387  -2.508  -0.024  0.00  0.00    -0.183 NA
ATOM     10  C   UNL     1       2.595  -3.804  -0.009  0.00  0.00    +0.194 C 
ATOM     11  N   UNL     1       1.569  -4.705  -0.007  0.00  0.00    -0.339 N 
ATOM     12  C   UNL     1       0.191  -4.180  -0.022  0.00  0.00    +0.184 C 
ATOM     13  N   UNL     1       3.880  -4.266   0.005  0.00  0.00    -0.311 N 
ATOM     14  H   UNL     1       4.052  -5.221   0.016  0.00  0.00    +0.149 HD
ATOM     15  H   UNL     1       1.741  -5.660   0.003  0.00  0.00    +0.164 HD
ENDROOT
BRANCH  12  16
ATOM     16  C   UNL     1      -0.533  -4.715   1.215  0.00  0.00    +0.034 C 
ATOM     17  C   UNL     1       0.133  -4.163   2.481  0.00  0.00    +0.011 C 
ATOM     18  C   UNL     1      -0.714  -4.566   3.689  0.00  0.00    +0.027 C 
ATOM     19  C   UNL     1      -1.024  -6.034   3.637  0.00  0.00    -0.031 C 
ATOM     20  C   UNL     1      -0.909  -6.761   2.573  0.00  0.00    -0.031 C 
ATOM     21  C   UNL     1      -0.446  -6.242   1.242  0.00  0.00    +0.034 C 
ENDBRANCH  12  16
BRANCH  13  22
ATOM     22  C   UNL     1       4.999  -3.320   0.003  0.00  0.00    +0.139 C 
BRANCH  22  23
ATOM     23  C   UNL     1       6.299  -4.081   0.020  0.00  0.00    -0.030 A 
ATOM     24  C   UNL     1       6.885  -4.422   1.225  0.00  0.00    +0.006 A 
ATOM     25  C   UNL     1       8.078  -5.120   1.241  0.00  0.00    +0.020 A 
ATOM     26  C   UNL     1       8.686  -5.477   0.051  0.00  0.00    +0.041 A 
ATOM     27  C   UNL     1       8.100  -5.135  -1.155  0.00  0.00    +0.020 A 
ATOM     28  C   UNL     1       6.904  -4.442  -1.170  0.00  0.00    +0.006 A 
ATOM     29 CL   UNL     1      10.185  -6.353   0.070  0.00  0.00    -0.084 Cl
ENDBRANCH  22  23
ENDBRANCH  13  22
TORSDOF 3
