REMARK  Name = ZINC35544642
REMARK  8 active torsions:
REMARK  status: ('A' for Active; 'I' for Inactive)
REMARK    1  A    between atoms: C_1  and  O_2
REMARK    2  A    between atoms: O_2  and  C_3
REMARK    3  A    between atoms: C_8  and  C_9
REMARK    4  A    between atoms: C_9  and  C_10
REMARK    5  A    between atoms: C_10  and  N_11
REMARK    6  A    between atoms: C_12  and  C_14
REMARK    7  A    between atoms: C_19  and  N_37
REMARK    8  A    between atoms: N_27  and  C_30
REMARK                            x       y       z     vdW  Elec       q    Type
REMARK                         _______ _______ _______ _____ _____    ______ ____
ROOT
ATOM      1  C   UNL     1       3.660  -4.847   2.537  0.00  0.00    +0.101 C 
ATOM      2  C   UNL     1       3.391  -6.213   1.909  0.00  0.00    +0.051 C 
ATOM      3  C   UNL     1       2.427  -6.967   2.788  0.00  0.00    -0.023 A 
ATOM      4  C   UNL     1       1.573  -7.898   2.223  0.00  0.00    +0.038 A 
ATOM      5  C   UNL     1       0.678  -8.587   3.019  0.00  0.00    +0.127 A 
ATOM      6  C   UNL     1       0.634  -8.348   4.381  0.00  0.00    +0.034 A 
ATOM      7  C   UNL     1       1.486  -7.423   4.949  0.00  0.00    +0.025 A 
ATOM      8  C   UNL     1       2.393  -6.731   4.150  0.00  0.00    +0.033 A 
ATOM      9  N   UNL     1       3.265  -5.815   4.762  0.00  0.00    -0.323 N 
ATOM     10  C   UNL     1       4.184  -5.024   3.966  0.00  0.00    +0.103 C 
ATOM     11  C   UNL     1       4.455  -3.648   4.551  0.00  0.00    +0.128 C 
ATOM     12  N   UNL     1       4.418  -3.630   5.999  0.00  0.00    -0.327 N 
ATOM     13  C   UNL     1       3.424  -4.362   6.765  0.00  0.00    +0.124 C 
ATOM     14  C   UNL     1       3.228  -5.756   6.222  0.00  0.00    +0.124 C 
ENDROOT
BRANCH  12  15
ATOM     15  C   UNL     1       5.376  -2.878   6.687  0.00  0.00    +0.030 A 
ATOM     16  C   UNL     1       5.299  -2.749   8.067  0.00  0.00    +0.026 A 
ATOM     17  C   UNL     1       6.247  -2.007   8.745  0.00  0.00    +0.040 A 
ATOM     18  C   UNL     1       7.273  -1.392   8.048  0.00  0.00    +0.124 A 
ATOM     19  C   UNL     1       7.352  -1.519   6.671  0.00  0.00    +0.040 A 
ATOM     20  C   UNL     1       6.409  -2.265   5.991  0.00  0.00    +0.026 A 
ATOM     21  F   UNL     1       8.199  -0.666   8.712  0.00  0.00    -0.205 F 
ENDBRANCH  12  15
BRANCH   1  23
ATOM     22  N   UNL     1       1.738  -3.763   1.420  0.00  0.00    -0.315 N 
ATOM     23  C   UNL     1       2.382  -4.049   2.568  0.00  0.00    +0.218 C 
ATOM     24  O   UNL     1       1.933  -3.665   3.627  0.00  0.00    -0.275 OA
ATOM     25  H   UNL     1       2.098  -4.070   0.573  0.00  0.00    +0.149 HD
BRANCH  22  26
ATOM     26  C   UNL     1       0.495  -2.988   1.450  0.00  0.00    +0.109 C 
BRANCH  26  27
ATOM     27  C   UNL     1      -0.026  -2.805   0.023  0.00  0.00    +0.057 C 
BRANCH  27  33
ATOM     28  C   UNL     1      -1.258  -0.621   0.073  0.00  0.00    +0.123 A 
ATOM     29  C   UNL     1      -2.437   0.110   0.096  0.00  0.00    +0.046 A 
ATOM     30  C   UNL     1      -3.654  -0.544   0.107  0.00  0.00    +0.004 A 
ATOM     31  C   UNL     1      -3.698  -1.926   0.094  0.00  0.00    +0.000 A 
ATOM     32  C   UNL     1      -2.525  -2.657   0.071  0.00  0.00    +0.007 A 
ATOM     33  C   UNL     1      -1.305  -2.007   0.055  0.00  0.00    -0.004 A 
BRANCH  28  35
ATOM     34  C   UNL     1      -0.088   1.448   0.083  0.00  0.00    +0.277 C 
ATOM     35  O   UNL     1      -0.060   0.019   0.062  0.00  0.00    -0.495 OA
ENDBRANCH  28  35
ENDBRANCH  27  33
ENDBRANCH  26  27
ENDBRANCH  22  26
ENDBRANCH   1  23
BRANCH   5  36
ATOM     36  N   UNL     1      -0.234  -9.584   2.414  0.00  0.00    +0.056 N 
ATOM     37  O   UNL     1      -0.196  -9.794   1.224  0.00  0.00    -0.126 OA
ATOM     38  O   UNL     1      -1.017 -10.187   3.110  0.00  0.00    -0.126 OA
ENDBRANCH   5  36
TORSDOF 7
