REMARK  Name = ZINC09360975
REMARK  9 active torsions:
REMARK  status: ('A' for Active; 'I' for Inactive)
REMARK    1  A    between atoms: C_1  and  C_2
REMARK    2  A    between atoms: C_2  and  C_3
REMARK    3  A    between atoms: C_3  and  C_4
REMARK    4  A    between atoms: C_4  and  O_5
REMARK    5  A    between atoms: O_5  and  C_6
REMARK    6  A    between atoms: C_6  and  C_8
REMARK    7  A    between atoms: C_11  and  N_14
REMARK    8  A    between atoms: C_29  and  C_35
REMARK    9  A    between atoms: C_35  and  C_37
REMARK                            x       y       z     vdW  Elec       q    Type
REMARK                         _______ _______ _______ _____ _____    ______ ____
ROOT
ATOM      1  N   UNL     1       2.401   1.102  -0.014  0.00  0.00    -0.210 N 
ATOM      2  C   UNL     1       3.621   1.720  -0.028  0.00  0.00    +0.232 C 
ATOM      3  O   UNL     1       3.858   2.880   0.230  0.00  0.00    -0.274 OA
ATOM      4  C   UNL     1       4.609   0.657  -0.428  0.00  0.00    +0.113 C 
ATOM      5  C   UNL     1       5.972   0.540   0.188  0.00  0.00    +0.100 C 
ATOM      6  C   UNL     1       6.406   1.539   1.195  0.00  0.00    -0.021 A 
ATOM      7  C   UNL     1       6.002   2.855   1.154  0.00  0.00    +0.006 A 
ATOM      8  C   UNL     1       6.435   3.762   2.102  0.00  0.00    +0.000 A 
ATOM      9  C   UNL     1       7.289   3.358   3.113  0.00  0.00    +0.001 A 
ATOM     10  C   UNL     1       7.711   2.047   3.173  0.00  0.00    +0.008 A 
ATOM     11  C   UNL     1       7.279   1.125   2.218  0.00  0.00    -0.019 A 
ATOM     12  C   UNL     1       7.743  -0.274   2.291  0.00  0.00    +0.022 C 
ATOM     13  C   UNL     1       7.141  -1.227   1.554  0.00  0.00    +0.054 C 
ATOM     14  C   UNL     1       4.889  -1.589   0.335  0.00  0.00    +0.144 C 
ATOM     15  C   UNL     1       3.879  -0.507   0.371  0.00  0.00    +0.116 C 
ATOM     16  C   UNL     1       2.508  -0.272  -0.022  0.00  0.00    +0.232 C 
ATOM     17  O   UNL     1       1.654  -1.089  -0.294  0.00  0.00    -0.274 OA
ATOM     18  N   UNL     1       6.209  -0.857   0.405  0.00  0.00    -0.384 NA
ATOM     19  H   UNL     1       6.725  -1.161  -0.429  0.00  0.00    +0.127 HD
ENDROOT
BRANCH   1  23
ATOM     20  C   UNL     1      -1.233   3.145   0.030  0.00  0.00    +0.059 A 
ATOM     21  C   UNL     1      -1.215   1.747   0.017  0.00  0.00    +0.017 A 
ATOM     22  C   UNL     1      -0.013   1.076   0.008  0.00  0.00    +0.025 A 
ATOM     23  C   UNL     1       1.183   1.787   0.000  0.00  0.00    +0.044 A 
ATOM     24  C   UNL     1       1.169   3.177   0.007  0.00  0.00    +0.025 A 
ATOM     25  C   UNL     1      -0.029   3.856   0.022  0.00  0.00    +0.017 A 
BRANCH  20  26
ATOM     26  C   UNL     1      -2.518   3.868   0.045  0.00  0.00    +0.339 C 
ATOM     27  O   UNL     1      -2.532   5.082   0.051  0.00  0.00    -0.245 OA
BRANCH  26  28
ATOM     28  O   UNL     1      -3.677   3.181   0.052  0.00  0.00    -0.461 OA
BRANCH  28  29
ATOM     29  C   UNL     1      -4.904   3.958   0.067  0.00  0.00    +0.232 C 
BRANCH  29  30
ATOM     30  C   UNL     1      -6.107   3.012   0.074  0.00  0.00    +0.041 C 
BRANCH  30  32
ATOM     31  C   UNL     1      -8.602   2.885   0.096  0.00  0.00    +0.004 C 
ATOM     32  C   UNL     1      -7.399   3.830   0.089  0.00  0.00    -0.000 C 
ENDBRANCH  30  32
ENDBRANCH  29  30
ENDBRANCH  28  29
ENDBRANCH  26  28
ENDBRANCH  20  26
ENDBRANCH   1  23
BRANCH  14  33
ATOM     33  C   UNL     1       5.045  -2.146  -1.057  0.00  0.00    +0.217 C 
ATOM     34  O   UNL     1       6.022  -1.861  -1.719  0.00  0.00    -0.287 OA
BRANCH  33  35
ATOM     35  C   UNL     1       4.055  -3.001  -1.591  0.00  0.00    +0.172 A 
ATOM     36  C   UNL     1       4.069  -3.580  -2.844  0.00  0.00    +0.053 A 
ATOM     37  C   UNL     1       2.897  -4.342  -2.944  0.00  0.00    +0.042 A 
ATOM     38  C   UNL     1       2.228  -4.203  -1.777  0.00  0.00    +0.196 A 
ATOM     39  O   UNL     1       2.928  -3.402  -0.964  0.00  0.00    -0.460 OA
ENDBRANCH  33  35
ENDBRANCH  14  33
TORSDOF 8
