REMARK  Name = ZINC27558347
REMARK  13 active torsions:
REMARK  status: ('A' for Active; 'I' for Inactive)
REMARK    1  A    between atoms: C_1  and  C_2
REMARK    2  A    between atoms: C_2  and  C_4
REMARK    3  A    between atoms: C_2  and  N_11
REMARK    4  A    between atoms: N_11  and  C_12
REMARK    5  A    between atoms: N_11  and  C_13
REMARK    6  A    between atoms: C_13  and  C_14
REMARK    7  A    between atoms: N_16  and  C_17
REMARK    8  A    between atoms: C_19  and  S_27
REMARK    9  A    between atoms: C_22  and  O_23
REMARK   10  A    between atoms: O_23  and  C_24
REMARK   11  A    between atoms: C_24  and  C_25
REMARK   12  A    between atoms: C_24  and  C_26
REMARK   13  A    between atoms: S_27  and  N_30
REMARK                            x       y       z     vdW  Elec       q    Type
REMARK                         _______ _______ _______ _____ _____    ______ ____
ROOT
ATOM      1  C   UNL     1       4.724  -0.292   3.875  0.00  0.00    +0.077 A 
ATOM      2  C   UNL     1       4.101  -1.056   4.851  0.00  0.00    +0.055 A 
ATOM      3  C   UNL     1       4.764  -1.347   6.028  0.00  0.00    +0.107 A 
ATOM      4  C   UNL     1       6.048  -0.879   6.236  0.00  0.00    +0.032 A 
ATOM      5  C   UNL     1       6.676  -0.117   5.268  0.00  0.00    +0.049 A 
ATOM      6  C   UNL     1       6.020   0.174   4.083  0.00  0.00    +0.142 A 
ENDROOT
BRANCH   1   9
ATOM      7  C   UNL     1       2.721   0.200   2.687  0.00  0.00    +0.201 C 
ATOM      8  O   UNL     1       2.090   0.047   3.711  0.00  0.00    -0.278 OA
ATOM      9  N   UNL     1       4.054   0.004   2.680  0.00  0.00    -0.284 N 
ATOM     10  H   UNL     1       4.550   0.068   1.849  0.00  0.00    +0.155 HD
BRANCH   7  11
ATOM     11  C   UNL     1       2.013   0.608   1.420  0.00  0.00    +0.019 C 
BRANCH  11  12
ATOM     12  N   UNL     1       0.577   0.756   1.688  0.00  0.00    +0.388 N 
ATOM     13  C   UNL     1       0.008  -0.550   2.046  0.00  0.00    -0.095 C 
ATOM     14  H   UNL     1       0.441   1.403   2.450  0.00  0.00    -0.081 HD
BRANCH  12  16
ATOM     15  C   UNL     1       0.497   2.630   0.113  0.00  0.00    -0.008 C 
ATOM     16  C   UNL     1      -0.095   1.270   0.486  0.00  0.00    -0.041 C 
BRANCH  16  17
ATOM     17  C   UNL     1      -1.569   1.422   0.761  0.00  0.00    -0.061 A 
ATOM     18  C   UNL     1      -1.997   1.911   1.981  0.00  0.00    +0.005 A 
ATOM     19  C   UNL     1      -3.349   2.051   2.233  0.00  0.00    +0.038 A 
ATOM     20  C   UNL     1      -4.274   1.702   1.264  0.00  0.00    +0.123 A 
ATOM     21  C   UNL     1      -3.843   1.212   0.043  0.00  0.00    +0.038 A 
ATOM     22  C   UNL     1      -2.491   1.077  -0.210  0.00  0.00    +0.005 A 
ATOM     23  F   UNL     1      -5.595   1.838   1.510  0.00  0.00    -0.205 F 
ENDBRANCH  16  17
ENDBRANCH  12  16
ENDBRANCH  11  12
ENDBRANCH   7  11
ENDBRANCH   1   9
BRANCH   3  24
ATOM     24  S   UNL     1       3.970  -2.318   7.267  0.00  0.00    +0.061 S 
ATOM     25  O   UNL     1       4.596  -1.992   8.500  0.00  0.00    -0.153 OA
ATOM     26  O   UNL     1       2.572  -2.175   7.060  0.00  0.00    -0.153 OA
BRANCH  24  27
ATOM     27  N   UNL     1       4.335  -3.903   6.955  0.00  0.00    -0.177 NA
ATOM     28  C   UNL     1       3.477  -4.710   6.079  0.00  0.00    +0.109 C 
ATOM     29  C   UNL     1       4.341  -5.331   4.977  0.00  0.00    +0.017 C 
ATOM     30  C   UNL     1       5.495  -6.108   5.616  0.00  0.00    +0.003 C 
ATOM     31  C   UNL     1       6.366  -5.151   6.432  0.00  0.00    +0.017 C 
ATOM     32  C   UNL     1       5.528  -4.526   7.546  0.00  0.00    +0.109 C 
ENDBRANCH  24  27
ENDBRANCH   3  24
BRANCH   6  33
ATOM     33  O   UNL     1       6.638   0.918   3.128  0.00  0.00    -0.488 OA
BRANCH  33  34
ATOM     34  C   UNL     1       7.997   1.287   3.370  0.00  0.00    +0.167 C 
ATOM     35  C   UNL     1       8.920   0.144   2.941  0.00  0.00    +0.051 C 
ATOM     36  C   UNL     1       8.336   2.544   2.568  0.00  0.00    +0.051 C 
ENDBRANCH  33  34
ENDBRANCH   6  33
TORSDOF 9
