REMARK  Name = ZINC06641981
REMARK  4 active torsions:
REMARK  status: ('A' for Active; 'I' for Inactive)
REMARK    1  A    between atoms: C_1  and  C_2
REMARK    2  A    between atoms: C_8  and  N_10
REMARK    3  A    between atoms: C_14  and  C_16
REMARK    4  A    between atoms: C_16  and  N_17
REMARK                            x       y       z     vdW  Elec       q    Type
REMARK                         _______ _______ _______ _____ _____    ______ ____
ROOT
ATOM      1  N   UNL     1       0.010  -0.012  -2.444  0.00  0.00    -0.296 N 
ATOM      2  C   UNL     1       0.669   0.132  -3.610  0.00  0.00    +0.306 C 
ATOM      3  O   UNL     1       1.852  -0.141  -3.678  0.00  0.00    -0.252 OA
ATOM      4  N   UNL     1       0.017   0.578  -4.702  0.00  0.00    -0.239 N 
ATOM      5  C   UNL     1       0.677   0.723  -5.869  0.00  0.00    +0.240 C 
ATOM      6  O   UNL     1       1.856   0.451  -5.936  0.00  0.00    -0.274 OA
ATOM      7  H   UNL     1      -0.934   0.205  -2.390  0.00  0.00    +0.151 HD
ATOM      8  H   UNL     1      -0.926   0.796  -4.648  0.00  0.00    +0.159 HD
ENDROOT
BRANCH   1  15
ATOM      9  C   UNL     1      -0.019   1.526   0.010  0.00  0.00    +0.009 C 
ATOM     10  C   UNL     1       0.002  -0.004   0.002  0.00  0.00    +0.006 C 
ATOM     11  C   UNL     1       0.742  -0.511   1.242  0.00  0.00    +0.005 C 
ATOM     12  C   UNL     1       0.763  -2.041   1.233  0.00  0.00    +0.000 C 
ATOM     13  C   UNL     1       1.479  -2.534  -0.026  0.00  0.00    +0.002 C 
ATOM     14  C   UNL     1       0.739  -2.027  -1.265  0.00  0.00    +0.022 C 
ATOM     15  C   UNL     1       0.718  -0.497  -1.257  0.00  0.00    +0.077 C 
ENDBRANCH   1  15
BRANCH   5  16
ATOM     16  C   UNL     1      -0.052   1.222  -7.090  0.00  0.00    +0.227 C 
BRANCH  16  17
ATOM     17  N   UNL     1       0.878   1.290  -8.220  0.00  0.00    -0.194 N 
ATOM     18  C   UNL     1       1.232   0.248  -9.093  0.00  0.00    +0.061 A 
ATOM     19  C   UNL     1       0.781  -1.071  -9.078  0.00  0.00    +0.025 A 
ATOM     20  C   UNL     1       1.231  -1.987 -10.020  0.00  0.00    +0.002 A 
ATOM     21  C   UNL     1       2.124  -1.654 -10.996  0.00  0.00    +0.009 A 
ATOM     22  C   UNL     1       2.607  -0.336 -11.052  0.00  0.00    -0.014 A 
ATOM     23  C   UNL     1       2.144   0.587 -10.091  0.00  0.00    +0.031 A 
ATOM     24  C   UNL     1       2.603   1.909 -10.113  0.00  0.00    +0.118 A 
ATOM     25  C   UNL     1       3.485   2.311 -11.046  0.00  0.00    +0.029 A 
ATOM     26  C   UNL     1       3.950   1.402 -12.005  0.00  0.00    +0.003 A 
ATOM     27  C   UNL     1       3.527   0.106 -12.016  0.00  0.00    +0.009 A 
ATOM     28  S   UNL     1       1.738   2.629  -8.747  0.00  0.00    +0.076 S 
ATOM     29  O   UNL     1       0.805   3.566  -9.267  0.00  0.00    -0.150 OA
ATOM     30  O   UNL     1       2.697   2.949  -7.749  0.00  0.00    -0.150 OA
ENDBRANCH  16  17
ENDBRANCH   5  16
TORSDOF 3
