REMARK  Name = ZINC38621136
REMARK  7 active torsions:
REMARK  status: ('A' for Active; 'I' for Inactive)
REMARK    1  A    between atoms: C_5  and  N_7
REMARK    2  A    between atoms: N_10  and  C_13
REMARK    3  A    between atoms: C_13  and  C_15
REMARK    4  A    between atoms: C_13  and  C_29
REMARK    5  A    between atoms: C_15  and  N_16
REMARK    6  A    between atoms: C_17  and  C_19
REMARK    7  A    between atoms: N_21  and  C_22
REMARK                            x       y       z     vdW  Elec       q    Type
REMARK                         _______ _______ _______ _____ _____    ______ ____
ROOT
ATOM      1  C   UNL     1      -0.667  -5.814  -0.021  0.00  0.00    +0.104 C 
ENDROOT
BRANCH   1   2
ATOM      2  C   UNL     1      -0.475  -6.510  -1.344  0.00  0.00    -0.025 A 
ATOM      3  C   UNL     1       0.793  -6.638  -1.878  0.00  0.00    +0.009 A 
ATOM      4  C   UNL     1       0.974  -7.277  -3.091  0.00  0.00    +0.050 A 
ATOM      5  C   UNL     1      -0.117  -7.790  -3.774  0.00  0.00    +0.166 A 
ATOM      6  C   UNL     1      -1.395  -7.661  -3.235  0.00  0.00    +0.167 A 
ATOM      7  C   UNL     1      -1.568  -7.025  -2.017  0.00  0.00    +0.054 A 
ATOM      8  O   UNL     1      -2.288  -8.242  -4.088  0.00  0.00    -0.453 OA
ATOM      9  C   UNL     1      -1.596  -8.365  -5.345  0.00  0.00    +0.466 C 
ATOM     10  O   UNL     1      -0.210  -8.452  -4.964  0.00  0.00    -0.453 OA
ENDBRANCH   1   2
BRANCH   1  14
ATOM     11  N   UNL     1       1.012  -1.974   0.205  0.00  0.00    -0.325 N 
ATOM     12  C   UNL     1       1.079  -2.804   1.417  0.00  0.00    +0.120 C 
ATOM     13  C   UNL     1       0.024  -3.911   1.307  0.00  0.00    +0.104 C 
ATOM     14  N   UNL     1       0.211  -4.638   0.045  0.00  0.00    -0.291 NA
ATOM     15  C   UNL     1       0.002  -3.758  -1.113  0.00  0.00    +0.104 C 
ATOM     16  C   UNL     1       1.049  -2.646  -1.102  0.00  0.00    +0.120 C 
BRANCH  11  21
ATOM     17  C   UNL     1      -0.436   1.398   0.436  0.00  0.00    +0.002 A 
ATOM     18  C   UNL     1       0.708   2.174   0.469  0.00  0.00    +0.003 A 
ATOM     19  C   UNL     1       1.954   1.577   0.414  0.00  0.00    +0.040 A 
ATOM     20  C   UNL     1       2.059   0.201   0.327  0.00  0.00    +0.144 A 
ATOM     21  C   UNL     1       0.910  -0.582   0.294  0.00  0.00    +0.065 A 
ATOM     22  C   UNL     1      -0.339   0.022   0.349  0.00  0.00    +0.026 A 
ATOM     23  F   UNL     1       3.277  -0.383   0.273  0.00  0.00    -0.204 F 
ENDBRANCH  11  21
ENDBRANCH   1  14
BRANCH   1  24
ATOM     24  C   UNL     1      -0.319  -6.775   1.117  0.00  0.00    +0.128 C 
BRANCH  24  25
ATOM     25  N   UNL     1      -1.263  -7.895   1.117  0.00  0.00    -0.306 N 
ATOM     26  C   UNL     1      -1.210  -8.821   2.094  0.00  0.00    +0.299 C 
ATOM     27  O   UNL     1      -0.380  -8.728   2.974  0.00  0.00    -0.265 OA
ATOM     28  H   UNL     1      -1.927  -7.969   0.413  0.00  0.00    +0.149 HD
BRANCH  26  29
ATOM     29  C   UNL     1      -2.173  -9.963   2.093  0.00  0.00    +0.303 C 
ATOM     30  O   UNL     1      -3.004 -10.056   1.213  0.00  0.00    -0.265 OA
ATOM     31  N   UNL     1      -2.120 -10.889   3.071  0.00  0.00    -0.278 N 
ATOM     32  H   UNL     1      -1.414 -10.854   3.735  0.00  0.00    +0.155 HD
BRANCH  31  33
ATOM     33  C   UNL     1      -3.083 -11.901   3.128  0.00  0.00    +0.034 A 
ATOM     34  C   UNL     1      -3.533 -12.365   4.357  0.00  0.00    +0.025 A 
ATOM     35  C   UNL     1      -4.485 -13.364   4.411  0.00  0.00    +0.022 A 
ATOM     36  C   UNL     1      -4.990 -13.903   3.240  0.00  0.00    +0.041 A 
ATOM     37  C   UNL     1      -4.544 -13.443   2.014  0.00  0.00    +0.022 A 
ATOM     38  C   UNL     1      -3.597 -12.440   1.955  0.00  0.00    +0.025 A 
ATOM     39 CL   UNL     1      -6.186 -15.160   3.311  0.00  0.00    -0.084 Cl
ENDBRANCH  31  33
ENDBRANCH  26  29
ENDBRANCH  24  25
ENDBRANCH   1  24
TORSDOF 7
