REMARK  Name = ZINC49765421
REMARK  6 active torsions:
REMARK  status: ('A' for Active; 'I' for Inactive)
REMARK    1  A    between atoms: C_1  and  C_2
REMARK    2  A    between atoms: N_11  and  C_15
REMARK    3  A    between atoms: C_15  and  C_16
REMARK    4  A    between atoms: C_16  and  N_18
REMARK    5  A    between atoms: N_25  and  C_28
REMARK    6  A    between atoms: C_28  and  C_29
REMARK                            x       y       z     vdW  Elec       q    Type
REMARK                         _______ _______ _______ _____ _____    ______ ____
ROOT
ATOM      1  N   UNL     1       1.034   0.946   6.787  0.00  0.00    -0.155 NA
ATOM      2  C   UNL     1       1.368   0.139   7.796  0.00  0.00    +0.163 A 
ATOM      3  N   UNL     1       1.850  -1.131   7.737  0.00  0.00    -0.339 N 
ATOM      4  C   UNL     1       2.135  -1.799   8.896  0.00  0.00    +0.024 A 
ATOM      5  C   UNL     1       1.903  -1.112  10.026  0.00  0.00    -0.004 A 
ATOM      6  S   UNL     1       1.302   0.449   9.449  0.00  0.00    -0.059 S 
ATOM      7  C   UNL     1       2.117  -1.590  11.424  0.00  0.00    -0.033 C 
ATOM      8  N   UNL     1       2.269  -3.057  11.395  0.00  0.00    +0.386 N 
ATOM      9  C   UNL     1       3.262  -3.425  10.377  0.00  0.00    -0.072 C 
ATOM     10  C   UNL     1       2.683  -3.218   8.974  0.00  0.00    +0.035 C 
ATOM     11  H   UNL     1       1.991  -1.561   6.879  0.00  0.00    +0.167 HD
ATOM     12  H   UNL     1       1.383  -3.483  11.170  0.00  0.00    -0.081 HD
ENDROOT
BRANCH   1  13
ATOM     13  C   UNL     1       1.154   0.526   5.534  0.00  0.00    +0.256 C 
ATOM     14  O   UNL     1       1.569  -0.594   5.305  0.00  0.00    -0.272 OA
BRANCH  13  15
ATOM     15  C   UNL     1       0.777   1.438   4.394  0.00  0.00    +0.215 C 
BRANCH  15  25
ATOM     16  C   UNL     1      -0.019   1.526   0.010  0.00  0.00    +0.010 C 
ATOM     17  C   UNL     1       0.002  -0.004   0.002  0.00  0.00    +0.018 C 
ATOM     18  C   UNL     1       0.718  -0.498  -1.258  0.00  0.00    +0.006 C 
ATOM     19  C   UNL     1       0.756  -2.027  -1.255  0.00  0.00    +0.000 C 
ATOM     20  C   UNL     1       1.516  -2.519  -0.021  0.00  0.00    +0.003 C 
ATOM     21  C   UNL     1       0.803  -2.032   1.243  0.00  0.00    +0.035 C 
ATOM     22  C   UNL     1       0.739  -0.509   1.238  0.00  0.00    +0.115 C 
ATOM     23  C   UNL     1       0.069  -0.004   2.495  0.00  0.00    +0.247 C 
ATOM     24  O   UNL     1      -1.064  -0.228   2.863  0.00  0.00    -0.273 OA
ATOM     25  N   UNL     1       0.998   0.746   3.122  0.00  0.00    -0.215 N 
ATOM     26  C   UNL     1       2.148   0.781   2.437  0.00  0.00    +0.310 C 
ATOM     27  O   UNL     1       3.133   1.393   2.801  0.00  0.00    -0.252 OA
ATOM     28  N   UNL     1       2.091   0.063   1.300  0.00  0.00    -0.285 N 
ATOM     29  H   UNL     1       2.801  -0.054   0.650  0.00  0.00    +0.151 HD
ENDBRANCH  15  25
ENDBRANCH  13  15
ENDBRANCH   1  13
BRANCH   8  30
ATOM     30  C   UNL     1       2.720  -3.529  12.711  0.00  0.00    -0.043 C 
BRANCH  30  31
ATOM     31  C   UNL     1       1.647  -3.260  13.735  0.00  0.00    -0.064 A 
ATOM     32  C   UNL     1       1.632  -2.061  14.421  0.00  0.00    +0.002 A 
ATOM     33  C   UNL     1       0.648  -1.814  15.361  0.00  0.00    +0.000 A 
ATOM     34  C   UNL     1      -0.321  -2.767  15.613  0.00  0.00    +0.000 A 
ATOM     35  C   UNL     1      -0.306  -3.966  14.926  0.00  0.00    +0.000 A 
ATOM     36  C   UNL     1       0.675  -4.211  13.984  0.00  0.00    +0.002 A 
ENDBRANCH  30  31
ENDBRANCH   8  30
TORSDOF 5
