REMARK  Name = ZINC11063405
REMARK  7 active torsions:
REMARK  status: ('A' for Active; 'I' for Inactive)
REMARK    1  A    between atoms: C_1  and  C_2
REMARK    2  A    between atoms: C_16  and  C_17
REMARK    3  A    between atoms: C_17  and  O_19
REMARK    4  A    between atoms: O_19  and  C_20
REMARK    5  A    between atoms: C_20  and  C_22
REMARK    6  A    between atoms: C_20  and  C_23
REMARK    7  A    between atoms: N_25  and  C_26
REMARK                            x       y       z     vdW  Elec       q    Type
REMARK                         _______ _______ _______ _____ _____    ______ ____
ROOT
ATOM      1  C   UNL     1       3.098   5.712  -6.415  0.00  0.00    +0.347 C 
ATOM      2  O   UNL     1       2.895   6.871  -6.106  0.00  0.00    -0.244 OA
ENDROOT
BRANCH   1  18
ATOM      3  C   UNL     1       2.137   6.101  -3.559  0.00  0.00    +0.046 C 
ATOM      4  C   UNL     1       2.447   4.748  -4.146  0.00  0.00    -0.015 A 
ATOM      5  C   UNL     1       2.297   3.598  -3.369  0.00  0.00    +0.076 A 
ATOM      6  C   UNL     1       2.615   2.377  -4.008  0.00  0.00    +0.116 A 
ATOM      7  N   UNL     1       2.517   1.212  -3.382  0.00  0.00    -0.226 NA
ATOM      8  C   UNL     1       2.115   1.129  -2.145  0.00  0.00    +0.114 A 
ATOM      9  N   UNL     1       1.777   2.239  -1.427  0.00  0.00    -0.296 N 
ATOM     10  C   UNL     1       1.848   3.469  -1.964  0.00  0.00    +0.263 A 
ATOM     11  O   UNL     1       1.550   4.454  -1.311  0.00  0.00    -0.267 OA
ATOM     12  C   UNL     1       1.329   2.058  -0.039  0.00  0.00    +0.126 C 
ATOM     13  C   UNL     1      -0.085   1.483  -0.041  0.00  0.00    +0.022 C 
ATOM     14  C   UNL     1      -0.061  -0.036  -0.052  0.00  0.00    +0.002 C 
ATOM     15  C   UNL     1       0.532  -0.590  -1.335  0.00  0.00    +0.008 C 
ATOM     16  C   UNL     1       2.007  -0.217  -1.467  0.00  0.00    +0.074 C 
ATOM     17  S   UNL     1       3.098   2.885  -5.639  0.00  0.00    -0.062 S 
ATOM     18  C   UNL     1       2.875   4.645  -5.437  0.00  0.00    +0.102 A 
ENDBRANCH   1  18
BRANCH   1  19
ATOM     19  O   UNL     1       3.529   5.410  -7.657  0.00  0.00    -0.448 OA
BRANCH  19  20
ATOM     20  C   UNL     1       3.728   6.519  -8.573  0.00  0.00    +0.259 C 
ATOM     21  C   UNL     1       2.431   6.787  -9.339  0.00  0.00    +0.062 C 
BRANCH  20  22
ATOM     22  C   UNL     1       4.825   6.175  -9.547  0.00  0.00    +0.258 C 
ATOM     23  O   UNL     1       5.322   5.068  -9.535  0.00  0.00    -0.271 OA
ATOM     24  N   UNL     1       5.255   7.096 -10.432  0.00  0.00    -0.280 N 
ATOM     25  H   UNL     1       4.815   7.959 -10.486  0.00  0.00    +0.155 HD
BRANCH  24  26
ATOM     26  C   UNL     1       6.337   6.808 -11.275  0.00  0.00    +0.072 A 
ATOM     27  C   UNL     1       6.519   5.518 -11.755  0.00  0.00    +0.029 A 
ATOM     28  C   UNL     1       7.586   5.234 -12.586  0.00  0.00    +0.043 A 
ATOM     29  C   UNL     1       8.474   6.235 -12.941  0.00  0.00    +0.161 A 
ATOM     30  C   UNL     1       8.296   7.524 -12.465  0.00  0.00    +0.195 A 
ATOM     31  C   UNL     1       7.225   7.814 -11.636  0.00  0.00    +0.182 A 
ATOM     32  F   UNL     1       7.047   9.071 -11.175  0.00  0.00    -0.200 F 
ATOM     33  F   UNL     1       9.164   8.500 -12.813  0.00  0.00    -0.199 F 
ATOM     34  F   UNL     1       9.517   5.954 -13.754  0.00  0.00    -0.202 F 
ENDBRANCH  24  26
ENDBRANCH  20  22
ENDBRANCH  19  20
ENDBRANCH   1  19
TORSDOF 5
