REMARK  Name = ZINC09436553
REMARK  7 active torsions:
REMARK  status: ('A' for Active; 'I' for Inactive)
REMARK    1  A    between atoms: C_1  and  C_2
REMARK    2  A    between atoms: C_2  and  O_3
REMARK    3  A    between atoms: O_3  and  C_4
REMARK    4  A    between atoms: C_7  and  C_10
REMARK    5  A    between atoms: C_17  and  N_30
REMARK    6  A    between atoms: C_18  and  C_28
REMARK    7  A    between atoms: C_19  and  C_21
REMARK                            x       y       z     vdW  Elec       q    Type
REMARK                         _______ _______ _______ _____ _____    ______ ____
ROOT
ATOM      1  C   UNL     1       1.142  -6.040   1.762  0.00  0.00    +0.100 A 
ATOM      2  C   UNL     1       2.227  -6.722   2.322  0.00  0.00    +0.054 A 
ATOM      3  C   UNL     1       1.949  -8.058   2.288  0.00  0.00    +0.223 A 
ATOM      4  N   UNL     1       0.733  -8.210   1.724  0.00  0.00    -0.246 N 
ATOM      5  H   UNL     1       0.277  -9.052   1.569  0.00  0.00    +0.192 HD
ATOM      6  N   UNL     1       0.240  -6.935   1.406  0.00  0.00    -0.171 NA
ATOM      7  O   UNL     1       2.806  -8.996   2.762  0.00  0.00    -0.423 OA
ATOM      8  C   UNL     1       3.834  -8.574   3.526  0.00  0.00    +0.200 C 
ATOM      9  C   UNL     1       4.212  -7.281   3.630  0.00  0.00    +0.098 C 
ATOM     10  C   UNL     1       3.511  -6.171   2.886  0.00  0.00    +0.102 C 
ENDROOT
BRANCH  10  11
ATOM     11  C   UNL     1       4.388  -5.677   1.766  0.00  0.00    -0.033 A 
ATOM     12  C   UNL     1       4.804  -6.549   0.776  0.00  0.00    +0.004 A 
ATOM     13  C   UNL     1       5.608  -6.096  -0.252  0.00  0.00    +0.002 A 
ATOM     14  C   UNL     1       5.998  -4.771  -0.292  0.00  0.00    +0.020 A 
ATOM     15  C   UNL     1       5.583  -3.897   0.697  0.00  0.00    +0.041 A 
ATOM     16  C   UNL     1       4.773  -4.350   1.723  0.00  0.00    +0.024 A 
ATOM     17 CL   UNL     1       6.073  -2.232   0.647  0.00  0.00    -0.084 Cl
ENDBRANCH  10  11
BRANCH   1  21
ATOM     18  C   UNL     1       0.802  -1.824   1.306  0.00  0.00    +0.121 A 
ATOM     19  C   UNL     1       0.259  -2.671   0.349  0.00  0.00    +0.046 A 
ATOM     20  C   UNL     1       0.367  -4.038   0.495  0.00  0.00    +0.013 A 
ATOM     21  C   UNL     1       1.024  -4.569   1.603  0.00  0.00    +0.003 A 
ATOM     22  C   UNL     1       1.569  -3.717   2.561  0.00  0.00    +0.013 A 
ATOM     23  C   UNL     1       1.461  -2.350   2.408  0.00  0.00    +0.046 A 
BRANCH  18  24
ATOM     24  O   UNL     1       0.693  -0.477   1.160  0.00  0.00    -0.492 OA
BRANCH  24  26
ATOM     25  C   UNL     1      -0.019   1.526   0.010  0.00  0.00    +0.048 C 
ATOM     26  C   UNL     1       0.002  -0.004   0.002  0.00  0.00    +0.225 C 
ENDBRANCH  24  26
ENDBRANCH  18  24
ENDBRANCH   1  21
BRANCH   8  27
ATOM     27  N   UNL     1       4.538  -9.513   4.239  0.00  0.00    -0.328 N 
ATOM     28  H   UNL     1       4.290 -10.449   4.184  0.00  0.00    +0.145 HD
ATOM     29  H   UNL     1       5.283  -9.240   4.797  0.00  0.00    +0.145 HD
ENDBRANCH   8  27
BRANCH   9  30
ATOM     30  C   UNL     1       5.318  -6.952   4.478  0.00  0.00    +0.101 C 
ATOM     31  N   UNL     1       6.196  -6.690   5.151  0.00  0.00    -0.191 NA
ENDBRANCH   9  30
TORSDOF 6
