REMARK  Name = ZINC36529799
REMARK  8 active torsions:
REMARK  status: ('A' for Active; 'I' for Inactive)
REMARK    1  A    between atoms: C_1  and  C_2
REMARK    2  A    between atoms: C_2  and  C_3
REMARK    3  A    between atoms: C_2  and  C_4
REMARK    4  A    between atoms: C_2  and  N_5
REMARK    5  A    between atoms: C_6  and  C_8
REMARK    6  A    between atoms: C_8  and  C_10
REMARK    7  A    between atoms: C_8  and  N_24
REMARK    8  A    between atoms: N_24  and  C_25
REMARK                            x       y       z     vdW  Elec       q    Type
REMARK                         _______ _______ _______ _____ _____    ______ ____
ROOT
ATOM      1  C   UNL     1       3.168  -2.026  -2.456  0.00  0.00    -0.010 A 
ATOM      2  C   UNL     1       3.300  -2.499  -1.200  0.00  0.00    +0.015 A 
ATOM      3  C   UNL     1       3.757  -3.814  -0.951  0.00  0.00    -0.017 A 
ATOM      4  C   UNL     1       3.890  -4.296   0.359  0.00  0.00    +0.008 A 
ATOM      5  C   UNL     1       4.332  -5.569   0.570  0.00  0.00    +0.001 A 
ATOM      6  C   UNL     1       4.655  -6.399  -0.497  0.00  0.00    +0.001 A 
ATOM      7  C   UNL     1       4.536  -5.959  -1.784  0.00  0.00    +0.009 A 
ATOM      8  C   UNL     1       4.085  -4.661  -2.033  0.00  0.00    -0.010 A 
ATOM      9  C   UNL     1       3.942  -4.148  -3.398  0.00  0.00    -0.010 A 
ATOM     10  C   UNL     1       3.475  -2.826  -3.581  0.00  0.00    -0.012 A 
ATOM     11  C   UNL     1       3.329  -2.328  -4.883  0.00  0.00    +0.009 A 
ATOM     12  C   UNL     1       3.633  -3.121  -5.950  0.00  0.00    +0.001 A 
ATOM     13  C   UNL     1       4.087  -4.422  -5.766  0.00  0.00    +0.001 A 
ATOM     14  C   UNL     1       4.250  -4.934  -4.510  0.00  0.00    +0.009 A 
ENDROOT
BRANCH   1  15
ATOM     15  C   UNL     1       2.678  -0.617  -2.666  0.00  0.00    +0.192 C 
BRANCH  15  17
ATOM     16  N   UNL     1       0.819  -0.449  -1.042  0.00  0.00    -0.309 N 
ATOM     17  C   UNL     1       2.075  -0.099  -1.385  0.00  0.00    +0.238 C 
ATOM     18  O   UNL     1       2.719   0.632  -0.664  0.00  0.00    -0.273 OA
ATOM     19  H   UNL     1       0.304  -1.035  -1.619  0.00  0.00    +0.149 HD
BRANCH  16  21
ATOM     20  C   UNL     1       0.194   1.583   0.167  0.00  0.00    +0.031 C 
ATOM     21  C   UNL     1       0.233   0.054   0.203  0.00  0.00    +0.026 C 
ATOM     22  C   UNL     1       1.083  -0.406   1.389  0.00  0.00    +0.031 C 
ATOM     23  C   UNL     1      -1.189  -0.490   0.354  0.00  0.00    +0.031 C 
ENDBRANCH  16  21
ENDBRANCH  15  17
BRANCH  15  24
ATOM     24  N   UNL     1       3.801   0.238  -3.057  0.00  0.00    -0.292 N 
ATOM     25  C   UNL     1       3.725   1.028  -4.289  0.00  0.00    +0.133 C 
ATOM     26  C   UNL     1       4.904   0.298  -2.285  0.00  0.00    +0.328 C 
ATOM     27  O   UNL     1       5.005  -0.424  -1.316  0.00  0.00    -0.279 OA
ENDBRANCH  15  24
ENDBRANCH   1  15
TORSDOF 4
