REMARK  Name = ZINC35851698
REMARK  3 active torsions:
REMARK  status: ('A' for Active; 'I' for Inactive)
REMARK    1  A    between atoms: C_1  and  C_2
REMARK    2  A    between atoms: C_2  and  C_3
REMARK    3  A    between atoms: N_22  and  C_25
REMARK                            x       y       z     vdW  Elec       q    Type
REMARK                         _______ _______ _______ _____ _____    ______ ____
ROOT
ATOM      1  C   UNL     1      -1.412  -0.526   0.013  0.00  0.00    -0.047 A 
ATOM      2  C   UNL     1      -2.053  -0.767   1.214  0.00  0.00    +0.005 A 
ATOM      3  C   UNL     1      -3.346  -1.244   1.230  0.00  0.00    +0.024 A 
ATOM      4  C   UNL     1      -4.018  -1.488   0.035  0.00  0.00    +0.039 A 
ATOM      5  C   UNL     1      -3.364  -1.241  -1.169  0.00  0.00    +0.004 A 
ATOM      6  C   UNL     1      -2.074  -0.759  -1.179  0.00  0.00    +0.011 A 
ATOM      7  C   UNL     1      -4.344  -1.598  -2.249  0.00  0.00    +0.138 C 
ATOM      8  C   UNL     1      -3.801  -2.652  -3.199  0.00  0.00    +0.123 C 
ATOM      9  C   UNL     1      -4.860  -2.436  -4.347  0.00  0.00    +0.107 C 
ATOM     10  C   UNL     1      -4.938  -0.974  -4.510  0.00  0.00    +0.071 C 
ATOM     11  N   UNL     1      -4.615  -0.447  -3.134  0.00  0.00    -0.281 NA
ATOM     12  C   UNL     1      -5.679   0.433  -2.669  0.00  0.00    +0.086 C 
ATOM     13  C   UNL     1      -6.572   0.735  -3.893  0.00  0.00    +0.017 C 
ATOM     14  C   UNL     1      -6.392  -0.530  -4.794  0.00  0.00    +0.021 C 
ATOM     15  C   UNL     1      -4.694  -3.631  -5.138  0.00  0.00    +0.232 C 
ATOM     16  O   UNL     1      -4.801  -3.745  -6.340  0.00  0.00    -0.274 OA
ATOM     17  N   UNL     1      -4.388  -4.612  -4.226  0.00  0.00    -0.210 N 
ATOM     18  C   UNL     1      -4.058  -4.111  -2.983  0.00  0.00    +0.233 C 
ATOM     19  O   UNL     1      -3.993  -4.716  -1.934  0.00  0.00    -0.274 OA
ATOM     20  C   UNL     1      -5.579  -2.053  -1.525  0.00  0.00    +0.243 C 
ATOM     21  O   UNL     1      -6.616  -2.428  -2.028  0.00  0.00    -0.273 OA
ATOM     22  N   UNL     1      -5.309  -1.963  -0.207  0.00  0.00    -0.283 N 
ATOM     23  H   UNL     1      -5.939  -2.200   0.492  0.00  0.00    +0.155 HD
ENDROOT
BRANCH  17  24
ATOM     24  C   UNL     1      -4.398  -5.981  -4.526  0.00  0.00    +0.045 A 
ATOM     25  C   UNL     1      -4.081  -6.911  -3.545  0.00  0.00    +0.024 A 
ATOM     26  C   UNL     1      -4.092  -8.259  -3.843  0.00  0.00    +0.003 A 
ATOM     27  C   UNL     1      -4.416  -8.685  -5.118  0.00  0.00    +0.015 A 
ATOM     28  C   UNL     1      -4.731  -7.761  -6.099  0.00  0.00    +0.020 A 
ATOM     29  C   UNL     1      -4.728  -6.410  -5.804  0.00  0.00    +0.039 A 
ATOM     30 BR   UNL     1      -5.174  -8.347  -7.842  0.00  0.00    -0.050 Br
ENDBRANCH  17  24
BRANCH   1  32
ATOM     31  C   UNL     1      -0.019   1.526   0.010  0.00  0.00    +0.009 C 
ATOM     32  C   UNL     1       0.002  -0.004   0.002  0.00  0.00    +0.032 C 
ENDBRANCH   1  32
TORSDOF 2
