REMARK  Name = ZINC58465289
REMARK  6 active torsions:
REMARK  status: ('A' for Active; 'I' for Inactive)
REMARK    1  A    between atoms: C_1  and  C_2
REMARK    2  A    between atoms: C_9  and  C_11
REMARK    3  A    between atoms: C_11  and  O_12
REMARK    4  A    between atoms: O_12  and  C_13
REMARK    5  A    between atoms: C_13  and  C_15
REMARK    6  A    between atoms: C_20  and  N_21
REMARK                            x       y       z     vdW  Elec       q    Type
REMARK                         _______ _______ _______ _____ _____    ______ ____
ROOT
ATOM      1  O   UNL     1       0.139  -2.743   5.263  0.00  0.00    -0.455 OA
ENDROOT
BRANCH   1   2
ATOM      2  C   UNL     1       0.125  -2.907   6.600  0.00  0.00    +0.341 C 
ATOM      3  O   UNL     1       0.102  -1.936   7.332  0.00  0.00    -0.245 OA
BRANCH   2   4
ATOM      4  C   UNL     1       0.138  -4.262   7.176  0.00  0.00    +0.080 A 
ATOM      5  C   UNL     1       0.040  -5.381   6.343  0.00  0.00    +0.018 A 
ATOM      6  C   UNL     1       0.053  -6.646   6.887  0.00  0.00    +0.021 A 
ATOM      7  C   UNL     1       0.164  -6.817   8.259  0.00  0.00    +0.043 A 
ATOM      8  C   UNL     1       0.261  -5.722   9.095  0.00  0.00    +0.043 A 
ATOM      9  C   UNL     1       0.255  -4.439   8.564  0.00  0.00    +0.040 A 
ATOM     10 CL   UNL     1       0.178  -8.418   8.930  0.00  0.00    -0.083 Cl
BRANCH   9  11
ATOM     11  N   UNL     1       0.359  -3.337   9.402  0.00  0.00    -0.357 N 
ATOM     12  H   UNL     1       0.271  -2.442   9.039  0.00  0.00    +0.142 HD
ATOM     13  H   UNL     1       0.519  -3.462  10.350  0.00  0.00    +0.142 HD
ENDBRANCH   9  11
ENDBRANCH   2   4
ENDBRANCH   1   2
BRANCH   1  14
ATOM     14  C   UNL     1       0.125  -1.400   4.774  0.00  0.00    +0.289 C 
BRANCH  14  23
ATOM     15  C   UNL     1       0.141   1.499   0.005  0.00  0.00    +0.047 C 
ATOM     16  C   UNL     1       0.163  -0.008  -0.002  0.00  0.00    -0.008 A 
ATOM     17  C   UNL     1       0.192  -0.689  -1.179  0.00  0.00    +0.008 A 
ATOM     18  C   UNL     1       0.212  -2.093  -1.170  0.00  0.00    +0.018 A 
ATOM     19  C   UNL     1       0.202  -2.767  -0.001  0.00  0.00    +0.093 A 
ATOM     20  N   UNL     1       0.172  -2.096   1.188  0.00  0.00    -0.306 N 
ATOM     21  C   UNL     1       0.159  -0.725   1.211  0.00  0.00    +0.141 A 
ATOM     22  N   UNL     1       0.138  -0.337   2.478  0.00  0.00    -0.229 NA
ATOM     23  C   UNL     1       0.143  -1.414   3.267  0.00  0.00    +0.097 A 
ATOM     24  C   UNL     1       0.155  -2.518   2.489  0.00  0.00    +0.119 A 
ENDBRANCH  14  23
ENDBRANCH   1  14
TORSDOF 5
