REMARK  Name = ZINC36643344
REMARK  9 active torsions:
REMARK  status: ('A' for Active; 'I' for Inactive)
REMARK    1  A    between atoms: C_1  and  N_2
REMARK    2  A    between atoms: N_2  and  C_3
REMARK    3  A    between atoms: N_2  and  C_4
REMARK    4  A    between atoms: C_4  and  C_5
REMARK    5  A    between atoms: C_5  and  C_6
REMARK    6  A    between atoms: C_6  and  N_7
REMARK    7  A    between atoms: C_18  and  C_20
REMARK    8  A    between atoms: C_20  and  C_21
REMARK    9  A    between atoms: C_20  and  C_27
REMARK                            x       y       z     vdW  Elec       q    Type
REMARK                         _______ _______ _______ _____ _____    ______ ____
ROOT
ATOM      1  N   UNL     1      -0.290   0.215   3.975  0.00  0.00    -0.250 N 
ATOM      2  C   UNL     1      -1.498  -0.465   3.948  0.00  0.00    +0.168 A 
ATOM      3  N   UNL     1      -1.975  -1.258   3.018  0.00  0.00    -0.224 NA
ATOM      4  C   UNL     1      -3.179  -1.860   3.125  0.00  0.00    +0.080 A 
ATOM      5  C   UNL     1      -3.805  -2.731   2.203  0.00  0.00    +0.030 A 
ATOM      6  C   UNL     1      -5.041  -3.260   2.468  0.00  0.00    +0.017 A 
ATOM      7  C   UNL     1      -5.721  -2.965   3.642  0.00  0.00    +0.019 A 
ATOM      8  C   UNL     1      -5.137  -2.117   4.566  0.00  0.00    +0.032 A 
ATOM      9  C   UNL     1      -3.900  -1.582   4.309  0.00  0.00    +0.042 A 
ATOM     10  S   UNL     1      -2.797  -0.490   5.174  0.00  0.00    -0.052 S 
ATOM     11 BR   UNL     1      -7.425  -3.713   3.974  0.00  0.00    -0.050 Br
ATOM     12  C   UNL     1       0.026   0.985   5.035  0.00  0.00    +0.233 C 
ATOM     13  O   UNL     1      -0.697   1.003   6.008  0.00  0.00    -0.274 OA
ENDROOT
BRANCH   1  14
ATOM     14  C   UNL     1       0.642   0.096   2.851  0.00  0.00    +0.114 C 
BRANCH  14  15
ATOM     15  C   UNL     1       0.355   1.200   1.831  0.00  0.00    +0.001 C 
BRANCH  15  16
ATOM     16  C   UNL     1       1.329   1.075   0.658  0.00  0.00    -0.078 C 
BRANCH  16  18
ATOM     17  C   UNL     1       1.335   3.445   0.281  0.00  0.00    -0.097 C 
ATOM     18  N   UNL     1       1.053   2.135  -0.322  0.00  0.00    +0.376 N 
ATOM     19  C   UNL     1       1.906   1.945  -1.502  0.00  0.00    -0.097 C 
ATOM     20  H   UNL     1       0.083   2.093  -0.598  0.00  0.00    -0.083 HD
ENDBRANCH  16  18
ENDBRANCH  15  16
ENDBRANCH  14  15
ENDBRANCH   1  14
BRANCH  12  21
ATOM     21  C   UNL     1       1.278   1.824   5.010  0.00  0.00    +0.135 C 
BRANCH  21  22
ATOM     22  C   UNL     1       1.290   2.743   6.204  0.00  0.00    -0.031 A 
ATOM     23  C   UNL     1       1.402   2.219   7.478  0.00  0.00    +0.005 A 
ATOM     24  C   UNL     1       1.413   3.062   8.573  0.00  0.00    +0.000 A 
ATOM     25  C   UNL     1       1.313   4.430   8.394  0.00  0.00    +0.000 A 
ATOM     26  C   UNL     1       1.203   4.954   7.120  0.00  0.00    +0.000 A 
ATOM     27  C   UNL     1       1.195   4.111   6.024  0.00  0.00    +0.005 A 
ENDBRANCH  21  22
BRANCH  21  28
ATOM     28  C   UNL     1       2.486   0.924   5.056  0.00  0.00    -0.031 A 
ATOM     29  C   UNL     1       3.596   1.219   4.287  0.00  0.00    +0.005 A 
ATOM     30  C   UNL     1       4.705   0.394   4.329  0.00  0.00    +0.000 A 
ATOM     31  C   UNL     1       4.703  -0.725   5.140  0.00  0.00    +0.000 A 
ATOM     32  C   UNL     1       3.592  -1.020   5.909  0.00  0.00    +0.000 A 
ATOM     33  C   UNL     1       2.486  -0.192   5.870  0.00  0.00    +0.005 A 
ENDBRANCH  21  28
ENDBRANCH  12  21
TORSDOF 7
