REMARK  Name = ZINC11843375
REMARK  9 active torsions:
REMARK  status: ('A' for Active; 'I' for Inactive)
REMARK    1  A    between atoms: C_1  and  N_2
REMARK    2  A    between atoms: N_2  and  C_3
REMARK    3  A    between atoms: C_3  and  C_4
REMARK    4  A    between atoms: C_10  and  C_12
REMARK    5  A    between atoms: C_12  and  C_13
REMARK    6  A    between atoms: C_20  and  C_21
REMARK    7  A    between atoms: C_20  and  N_62
REMARK    8  A    between atoms: C_21  and  C_22
REMARK    9  A    between atoms: C_21  and  C_28
REMARK                            x       y       z     vdW  Elec       q    Type
REMARK                         _______ _______ _______ _____ _____    ______ ____
ROOT
ATOM      1  C   UNL     1      -0.357   1.669   0.169  0.00  0.00    +0.028 C 
ATOM      2  C   UNL     1      -0.641   0.220  -0.110  0.00  0.00    +0.200 C 
ATOM      3  O   UNL     1      -1.605  -0.295   0.414  0.00  0.00    -0.278 OA
ATOM      4  N   UNL     1       0.127  -0.525  -0.913  0.00  0.00    -0.318 N 
ATOM      5  C   UNL     1       1.329  -0.012  -1.562  0.00  0.00    +0.085 C 
ATOM      6  C   UNL     1       1.310   1.518  -1.566  0.00  0.00    -0.059 C 
ATOM      7  H   UNL     1      -0.127  -1.448  -1.070  0.00  0.00    +0.149 HD
ATOM      8  N   UNL     1       1.040   1.975  -0.188  0.00  0.00    +0.389 N 
ATOM      9  H   UNL     1       1.668   1.482   0.458  0.00  0.00    -0.081 HD
ENDROOT
BRANCH   1  10
ATOM     10  C   UNL     1      -0.563   1.948   1.659  0.00  0.00    +0.090 C 
BRANCH  10  13
ATOM     11  C   UNL     1      -0.641   1.970   4.492  0.00  0.00    +0.132 C 
ATOM     12  N   UNL     1       0.362   1.149   3.810  0.00  0.00    -0.299 N 
ATOM     13  C   UNL     1       0.413   1.128   2.463  0.00  0.00    +0.215 C 
ATOM     14  O   UNL     1       1.243   0.448   1.898  0.00  0.00    -0.276 OA
BRANCH  12  15
ATOM     15  C   UNL     1       1.310   0.351   4.591  0.00  0.00    +0.164 C 
BRANCH  15  16
ATOM     16  C   UNL     1       2.542   1.172   4.876  0.00  0.00    +0.077 A 
ATOM     17  C   UNL     1       2.649   1.870   6.066  0.00  0.00    +0.135 A 
ATOM     18  N   UNL     1       3.731   2.586   6.317  0.00  0.00    -0.260 NA
ATOM     19  C   UNL     1       4.706   2.643   5.428  0.00  0.00    +0.130 A 
ATOM     20  C   UNL     1       4.598   1.948   4.236  0.00  0.00    +0.131 A 
ATOM     21  N   UNL     1       3.518   1.229   3.987  0.00  0.00    -0.255 NA
ENDBRANCH  15  16
ENDBRANCH  12  15
ENDBRANCH  10  13
ENDBRANCH   1  10
BRANCH   8  22
ATOM     22  C   UNL     1       1.284   3.431  -0.079  0.00  0.00    -0.065 C 
BRANCH  22  23
ATOM     23  C   UNL     1       2.770   3.662   0.205  0.00  0.00    +0.032 C 
BRANCH  23  24
ATOM     24  C   UNL     1       3.574   3.334  -1.026  0.00  0.00    -0.042 A 
ATOM     25  C   UNL     1       4.669   2.496  -0.933  0.00  0.00    +0.004 A 
ATOM     26  C   UNL     1       5.404   2.191  -2.064  0.00  0.00    +0.000 A 
ATOM     27  C   UNL     1       5.049   2.731  -3.285  0.00  0.00    +0.000 A 
ATOM     28  C   UNL     1       3.956   3.572  -3.378  0.00  0.00    +0.000 A 
ATOM     29  C   UNL     1       3.219   3.874  -2.248  0.00  0.00    +0.004 A 
ENDBRANCH  23  24
BRANCH  23  30
ATOM     30  C   UNL     1       2.991   5.105   0.579  0.00  0.00    -0.042 A 
ATOM     31  C   UNL     1       2.510   6.112  -0.236  0.00  0.00    +0.004 A 
ATOM     32  C   UNL     1       2.710   7.436   0.109  0.00  0.00    +0.000 A 
ATOM     33  C   UNL     1       3.398   7.752   1.265  0.00  0.00    +0.000 A 
ATOM     34  C   UNL     1       3.883   6.745   2.079  0.00  0.00    +0.000 A 
ATOM     35  C   UNL     1       3.680   5.422   1.735  0.00  0.00    +0.004 A 
ENDBRANCH  23  30
ENDBRANCH  22  23
ENDBRANCH   8  22
TORSDOF 8
