REMARK  Name = ZINC40021129
REMARK  6 active torsions:
REMARK  status: ('A' for Active; 'I' for Inactive)
REMARK    1  A    between atoms: C_1  and  C_2
REMARK    2  A    between atoms: C_2  and  C_3
REMARK    3  A    between atoms: C_3  and  C_4
REMARK    4  A    between atoms: C_4  and  N_5
REMARK    5  A    between atoms: C_6  and  C_22
REMARK    6  A    between atoms: C_26  and  N_28
REMARK                            x       y       z     vdW  Elec       q    Type
REMARK                         _______ _______ _______ _____ _____    ______ ____
ROOT
ATOM      1  N   UNL     1       1.471  -2.526   2.420  0.00  0.00    -0.284 N 
ATOM      2  C   UNL     1       2.916  -2.790   2.517  0.00  0.00    +0.145 C 
ATOM      3  C   UNL     1       3.151  -3.267   3.913  0.00  0.00    +0.072 A 
ATOM      4  C   UNL     1       4.377  -3.690   4.596  0.00  0.00    +0.199 A 
ATOM      5  O   UNL     1       5.490  -3.543   4.122  0.00  0.00    -0.287 OA
ATOM      6  C   UNL     1       4.134  -4.313   5.922  0.00  0.00    +0.067 A 
ATOM      7  C   UNL     1       5.173  -4.945   6.606  0.00  0.00    +0.053 A 
ATOM      8  C   UNL     1       4.928  -5.523   7.833  0.00  0.00    +0.124 A 
ATOM      9  C   UNL     1       3.651  -5.476   8.382  0.00  0.00    +0.042 A 
ATOM     10  C   UNL     1       2.620  -4.854   7.716  0.00  0.00    +0.050 A 
ATOM     11  C   UNL     1       2.844  -4.259   6.474  0.00  0.00    +0.140 A 
ATOM     12  O   UNL     1       1.814  -3.645   5.847  0.00  0.00    -0.450 OA
ATOM     13  C   UNL     1       1.947  -3.270   4.559  0.00  0.00    +0.199 A 
ATOM     14  C   UNL     1       0.915  -2.804   3.617  0.00  0.00    +0.283 C 
ATOM     15  O   UNL     1      -0.266  -2.689   3.878  0.00  0.00    -0.267 OA
ATOM     16  F   UNL     1       5.928  -6.137   8.502  0.00  0.00    -0.205 F 
ENDROOT
BRANCH   2  17
ATOM     17  C   UNL     1       3.694  -1.525   2.261  0.00  0.00    -0.020 A 
ATOM     18  C   UNL     1       3.248  -0.322   2.778  0.00  0.00    +0.006 A 
ATOM     19  C   UNL     1       3.961   0.838   2.543  0.00  0.00    +0.003 A 
ATOM     20  C   UNL     1       5.121   0.796   1.792  0.00  0.00    +0.033 A 
ATOM     21  C   UNL     1       5.567  -0.406   1.276  0.00  0.00    +0.127 A 
ATOM     22  C   UNL     1       4.856  -1.567   1.514  0.00  0.00    +0.038 A 
BRANCH  21  23
ATOM     23  N   UNL     1       6.809  -0.450   0.470  0.00  0.00    +0.056 N 
ATOM     24  O   UNL     1       7.432   0.565   0.264  0.00  0.00    -0.126 OA
ATOM     25  O   UNL     1       7.199  -1.501   0.019  0.00  0.00    -0.126 OA
ENDBRANCH  21  23
ENDBRANCH   2  17
BRANCH   1  26
ATOM     26  C   UNL     1       0.763  -2.041   1.233  0.00  0.00    +0.109 C 
BRANCH  26  27
ATOM     27  C   UNL     1       0.742  -0.511   1.242  0.00  0.00    +0.019 C 
BRANCH  27  29
ATOM     28  C   UNL     1      -0.019   1.526   0.010  0.00  0.00    +0.004 C 
ATOM     29  C   UNL     1       0.002  -0.004   0.002  0.00  0.00    -0.002 C 
ENDBRANCH  27  29
ENDBRANCH  26  27
ENDBRANCH   1  26
TORSDOF 5
