REMARK  Name = ZINC36116627
REMARK  14 active torsions:
REMARK  status: ('A' for Active; 'I' for Inactive)
REMARK    1  A    between atoms: C_1  and  C_2
REMARK    2  A    between atoms: C_2  and  C_3
REMARK    3  A    between atoms: C_2  and  C_4
REMARK    4  A    between atoms: C_7  and  O_10
REMARK    5  A    between atoms: O_10  and  C_11
REMARK    6  A    between atoms: C_11  and  C_12
REMARK    7  A    between atoms: C_22  and  C_24
REMARK    8  A    between atoms: C_24  and  N_25
REMARK    9  A    between atoms: N_25  and  C_26
REMARK   10  A    between atoms: C_26  and  C_27
REMARK   11  A    between atoms: C_27  and  N_28
REMARK   12  A    between atoms: C_33  and  C_35
REMARK   13  A    between atoms: C_35  and  C_36
REMARK   14  A    between atoms: C_35  and  C_37
REMARK                            x       y       z     vdW  Elec       q    Type
REMARK                         _______ _______ _______ _____ _____    ______ ____
ROOT
ATOM      1  C   UNL     1       5.377  -3.617  -4.206  0.00  0.00    +0.144 C 
ATOM      2  C   UNL     1       4.337  -4.646  -4.647  0.00  0.00    -0.014 A 
ATOM      3  C   UNL     1       4.222  -5.910  -4.072  0.00  0.00    +0.013 A 
ATOM      4  C   UNL     1       3.274  -6.769  -4.511  0.00  0.00    +0.046 A 
ATOM      5  S   UNL     1       2.476  -5.814  -5.791  0.00  0.00    -0.101 S 
ATOM      6  C   UNL     1       3.464  -4.348  -5.647  0.00  0.00    -0.004 A 
ATOM      7  C   UNL     1       3.369  -3.083  -6.437  0.00  0.00    +0.061 C 
ATOM      8  C   UNL     1       4.144  -1.982  -5.698  0.00  0.00    +0.114 C 
ATOM      9  N   UNL     1       5.413  -2.551  -5.217  0.00  0.00    -0.289 N 
ATOM     10  C   UNL     1       6.590  -2.104  -5.696  0.00  0.00    +0.234 C 
ATOM     11  O   UNL     1       7.630  -2.581  -5.293  0.00  0.00    -0.274 OA
ENDROOT
BRANCH   1  12
ATOM     12  C   UNL     1       4.982  -3.031  -2.849  0.00  0.00    +0.256 C 
BRANCH  12  13
ATOM     13  O   UNL     1       3.651  -2.516  -2.921  0.00  0.00    -0.490 OA
BRANCH  13  17
ATOM     14  C   UNL     1       2.111  -0.817   0.508  0.00  0.00    -0.045 A 
ATOM     15  C   UNL     1       1.344  -0.868  -0.641  0.00  0.00    +0.007 A 
ATOM     16  C   UNL     1       1.858  -1.437  -1.791  0.00  0.00    +0.046 A 
ATOM     17  C   UNL     1       3.144  -1.956  -1.792  0.00  0.00    +0.121 A 
ATOM     18  C   UNL     1       3.912  -1.903  -0.637  0.00  0.00    +0.046 A 
ATOM     19  C   UNL     1       3.396  -1.329   0.508  0.00  0.00    +0.007 A 
BRANCH  14  21
ATOM     20  C   UNL     1       1.184   1.264   1.488  0.00  0.00    +0.012 C 
ATOM     21  C   UNL     1       1.548  -0.197   1.761  0.00  0.00    +0.013 C 
ATOM     22  C   UNL     1       0.296  -0.964   2.192  0.00  0.00    +0.012 C 
ENDBRANCH  14  21
ENDBRANCH  13  17
ENDBRANCH  12  13
ENDBRANCH   1  12
BRANCH  10  23
ATOM     23  C   UNL     1       6.614  -1.010  -6.733  0.00  0.00    +0.203 C 
BRANCH  23  24
ATOM     24  N   UNL     1       8.003  -0.704  -7.088  0.00  0.00    -0.294 N 
ATOM     25  C   UNL     1       8.647   0.310  -6.477  0.00  0.00    +0.218 C 
ATOM     26  O   UNL     1       9.764   0.621  -6.833  0.00  0.00    -0.275 OA
BRANCH  25  27
ATOM     27  C   UNL     1       7.979   1.058  -5.352  0.00  0.00    +0.069 C 
ATOM     28  C   UNL     1       9.017   1.910  -4.619  0.00  0.00    +0.017 C 
ATOM     29  C   UNL     1       6.885   1.964  -5.921  0.00  0.00    +0.017 C 
ENDBRANCH  25  27
BRANCH  24  30
ATOM     30  C   UNL     1       8.691  -1.502  -8.106  0.00  0.00    +0.090 C 
BRANCH  30  31
ATOM     31  C   UNL     1       8.470  -0.871  -9.482  0.00  0.00    -0.060 C 
BRANCH  31  32
ATOM     32  N   UNL     1       9.160  -1.670 -10.504  0.00  0.00    +0.381 N 
ATOM     33  C   UNL     1       8.495  -2.990 -10.658  0.00  0.00    -0.079 C 
ATOM     34  C   UNL     1       8.934  -3.445 -12.072  0.00  0.00    -0.020 C 
ATOM     35  C   UNL     1       8.929  -2.126 -12.877  0.00  0.00    -0.020 C 
ATOM     36  C   UNL     1       9.057  -1.010 -11.823  0.00  0.00    -0.079 C 
ATOM     37  H   UNL     1      10.129  -1.796 -10.252  0.00  0.00    -0.082 HD
ENDBRANCH  31  32
ENDBRANCH  30  31
ENDBRANCH  24  30
ENDBRANCH  23  24
ENDBRANCH  10  23
TORSDOF 10
