REMARK  Name = ZINC25298290
REMARK  10 active torsions:
REMARK  status: ('A' for Active; 'I' for Inactive)
REMARK    1  A    between atoms: C_1  and  C_2
REMARK    2  A    between atoms: C_2  and  C_4
REMARK    3  A    between atoms: C_2  and  N_30
REMARK    4  A    between atoms: N_6  and  C_7
REMARK    5  A    between atoms: C_10  and  N_13
REMARK    6  A    between atoms: C_14  and  C_16
REMARK    7  A    between atoms: C_19  and  C_21
REMARK    8  A    between atoms: C_24  and  C_27
REMARK    9  A    between atoms: C_27  and  C_28
REMARK   10  A    between atoms: C_27  and  C_29
REMARK                            x       y       z     vdW  Elec       q    Type
REMARK                         _______ _______ _______ _____ _____    ______ ____
ROOT
ATOM      1  N   UNL     1       2.604  -2.027   7.169  0.00  0.00    -0.280 N 
ATOM      2  C   UNL     1       1.987  -1.821   8.350  0.00  0.00    +0.267 C 
ATOM      3  O   UNL     1       0.970  -1.156   8.396  0.00  0.00    -0.268 OA
ATOM      4  H   UNL     1       3.450  -2.500   7.140  0.00  0.00    +0.155 HD
ENDROOT
BRANCH   1   8
ATOM      5  C   UNL     1       0.876  -0.630   3.641  0.00  0.00    +0.034 A 
ATOM      6  C   UNL     1       0.745   0.100   4.815  0.00  0.00    +0.025 A 
ATOM      7  C   UNL     1       1.317  -0.362   5.983  0.00  0.00    +0.025 A 
ATOM      8  C   UNL     1       2.023  -1.558   5.984  0.00  0.00    +0.034 A 
ATOM      9  C   UNL     1       2.154  -2.289   4.811  0.00  0.00    +0.025 A 
ATOM     10  C   UNL     1       1.577  -1.829   3.644  0.00  0.00    +0.025 A 
BRANCH   5  13
ATOM     11  C   UNL     1      -0.222  -1.033   1.568  0.00  0.00    +0.242 C 
ATOM     12  O   UNL     1      -0.110  -2.227   1.754  0.00  0.00    -0.273 OA
ATOM     13  N   UNL     1       0.295  -0.161   2.456  0.00  0.00    -0.284 N 
ATOM     14  H   UNL     1       0.264   0.791   2.275  0.00  0.00    +0.155 HD
BRANCH  11  16
ATOM     15  C   UNL     1       0.018   0.328  -0.491  0.00  0.00    +0.042 C 
ATOM     16  C   UNL     1      -0.939  -0.526   0.343  0.00  0.00    +0.191 C 
BRANCH  16  17
ATOM     17  N   UNL     1      -1.403  -1.662  -0.457  0.00  0.00    -0.240 N 
ATOM     18  C   UNL     1      -0.694  -2.346  -1.371  0.00  0.00    +0.219 A 
ATOM     19  N   UNL     1      -1.463  -3.284  -1.862  0.00  0.00    -0.223 NA
ATOM     20  C   UNL     1      -2.664  -3.230  -1.288  0.00  0.00    +0.245 A 
ATOM     21  N   UNL     1      -2.675  -2.256  -0.417  0.00  0.00    -0.158 NA
ENDBRANCH  16  17
ENDBRANCH  11  16
ENDBRANCH   5  13
ENDBRANCH   1   8
BRANCH   2  22
ATOM     22  C   UNL     1       2.545  -2.401   9.583  0.00  0.00    +0.133 A 
ATOM     23  C   UNL     1       1.923  -2.202  10.787  0.00  0.00    +0.080 A 
ATOM     24  S   UNL     1       2.918  -3.041  11.854  0.00  0.00    -0.075 S 
ATOM     25  C   UNL     1       4.121  -3.625  10.673  0.00  0.00    +0.109 A 
ATOM     26  N   UNL     1       3.653  -3.128   9.543  0.00  0.00    -0.234 NA
BRANCH  25  27
ATOM     27  C   UNL     1       5.325  -4.455  10.900  0.00  0.00    +0.007 A 
ATOM     28  C   UNL     1       6.148  -4.802   9.829  0.00  0.00    +0.011 A 
ATOM     29  C   UNL     1       7.270  -5.575  10.047  0.00  0.00    +0.004 A 
ATOM     30  C   UNL     1       7.578  -6.007  11.325  0.00  0.00    -0.045 A 
ATOM     31  C   UNL     1       6.765  -5.666  12.391  0.00  0.00    +0.004 A 
ATOM     32  C   UNL     1       5.644  -4.888  12.187  0.00  0.00    +0.011 A 
BRANCH  30  33
ATOM     33  C   UNL     1       8.804  -6.852  11.555  0.00  0.00    +0.013 C 
ATOM     34  C   UNL     1       9.745  -6.133  12.524  0.00  0.00    +0.012 C 
ATOM     35  C   UNL     1       8.390  -8.199  12.153  0.00  0.00    +0.012 C 
ENDBRANCH  30  33
ENDBRANCH  25  27
ENDBRANCH   2  22
TORSDOF 7
