REMARK  Name = ZINC36618840
REMARK  7 active torsions:
REMARK  status: ('A' for Active; 'I' for Inactive)
REMARK    1  A    between atoms: C_1  and  C_2
REMARK    2  A    between atoms: C_2  and  O_3
REMARK    3  A    between atoms: O_3  and  C_4
REMARK    4  A    between atoms: C_9  and  C_10
REMARK    5  A    between atoms: C_13  and  C_24
REMARK    6  A    between atoms: C_19  and  N_23
REMARK    7  A    between atoms: C_20  and  C_21
REMARK                            x       y       z     vdW  Elec       q    Type
REMARK                         _______ _______ _______ _____ _____    ______ ____
ROOT
ATOM      1  C   UNL     1       1.906  -1.325  -3.579  0.00  0.00    +0.105 C 
ATOM      2  C   UNL     1       1.343  -1.622  -4.945  0.00  0.00    +0.054 A 
ATOM      3  C   UNL     1       0.081  -1.324  -5.466  0.00  0.00    +0.102 A 
ATOM      4  N   UNL     1       0.034  -1.777  -6.704  0.00  0.00    -0.171 NA
ATOM      5  N   UNL     1       1.269  -2.375  -7.002  0.00  0.00    -0.246 N 
ATOM      6  H   UNL     1       1.512  -2.792  -7.844  0.00  0.00    +0.192 HD
ATOM      7  C   UNL     1       2.057  -2.269  -5.912  0.00  0.00    +0.223 A 
ATOM      8  O   UNL     1       3.331  -2.694  -5.721  0.00  0.00    -0.423 OA
ATOM      9  C   UNL     1       3.991  -2.226  -4.643  0.00  0.00    +0.200 C 
ATOM     10  C   UNL     1       3.392  -1.581  -3.615  0.00  0.00    +0.098 C 
ENDROOT
BRANCH   3  11
ATOM     11  C   UNL     1      -1.015  -0.622  -4.751  0.00  0.00    +0.021 A 
ATOM     12  C   UNL     1      -0.754   0.559  -4.060  0.00  0.00    +0.011 A 
ATOM     13  C   UNL     1      -1.776   1.208  -3.398  0.00  0.00    +0.001 A 
ATOM     14  C   UNL     1      -3.058   0.689  -3.420  0.00  0.00    +0.001 A 
ATOM     15  C   UNL     1      -3.324  -0.483  -4.104  0.00  0.00    +0.020 A 
ATOM     16  C   UNL     1      -2.309  -1.139  -4.775  0.00  0.00    +0.050 A 
ATOM     17 CL   UNL     1      -2.645  -2.606  -5.640  0.00  0.00    -0.083 Cl
ENDBRANCH   3  11
BRANCH   1  23
ATOM     18  C   UNL     1       0.666  -1.679  -1.429  0.00  0.00    +0.125 A 
ATOM     19  C   UNL     1       0.067  -2.510  -0.492  0.00  0.00    +0.046 A 
ATOM     20  C   UNL     1       0.070  -3.878  -0.682  0.00  0.00    +0.004 A 
ATOM     21  C   UNL     1       0.668  -4.420  -1.805  0.00  0.00    +0.001 A 
ATOM     22  C   UNL     1       1.265  -3.594  -2.740  0.00  0.00    +0.008 A 
ATOM     23  C   UNL     1       1.260  -2.225  -2.557  0.00  0.00    +0.007 A 
BRANCH  18  24
ATOM     24  O   UNL     1       0.664  -0.333  -1.244  0.00  0.00    -0.492 OA
BRANCH  24  26
ATOM     25  C   UNL     1       0.202   1.681   0.010  0.00  0.00    +0.048 C 
ATOM     26  C   UNL     1       0.137   0.152  -0.008  0.00  0.00    +0.225 C 
ENDBRANCH  24  26
ENDBRANCH  18  24
ENDBRANCH   1  23
BRANCH   9  27
ATOM     27  N   UNL     1       5.349  -2.415  -4.583  0.00  0.00    -0.328 N 
ATOM     28  H   UNL     1       5.807  -2.874  -5.304  0.00  0.00    +0.145 HD
ATOM     29  H   UNL     1       5.851  -2.089  -3.820  0.00  0.00    +0.145 HD
ENDBRANCH   9  27
BRANCH  10  30
ATOM     30  C   UNL     1       4.197  -1.123  -2.523  0.00  0.00    +0.101 C 
ATOM     31  N   UNL     1       4.837  -0.760  -1.657  0.00  0.00    -0.191 NA
ENDBRANCH  10  30
TORSDOF 6
