REMARK  Name = ZINC49237084
REMARK  2 active torsions:
REMARK  status: ('A' for Active; 'I' for Inactive)
REMARK    1  A    between atoms: C_2  and  C_21
REMARK    2  A    between atoms: C_7  and  C_9
REMARK                            x       y       z     vdW  Elec       q    Type
REMARK                         _______ _______ _______ _____ _____    ______ ____
ROOT
ATOM      1  C   UNL     1      -0.022   1.781   0.012  0.00  0.00    +0.072 A 
ATOM      2  C   UNL     1       1.306   2.052   0.001  0.00  0.00    +0.054 A 
ATOM      3  N   UNL     1       2.129   1.020  -0.013  0.00  0.00    -0.229 NA
ATOM      4  C   UNL     1       1.672  -0.214  -0.015  0.00  0.00    +0.165 A 
ATOM      5  S   UNL     1       0.002  -0.004   0.002  0.00  0.00    -0.060 S 
ATOM      6  N   UNL     1       2.393  -1.402  -0.029  0.00  0.00    -0.266 N 
ATOM      7  C   UNL     1       1.745  -2.584  -0.029  0.00  0.00    +0.205 C 
ATOM      8  O   UNL     1       0.532  -2.611  -0.017  0.00  0.00    -0.277 OA
ATOM      9  H   UNL     1       3.363  -1.381  -0.038  0.00  0.00    +0.157 HD
ENDROOT
BRANCH   7  10
ATOM     10  C   UNL     1       2.526  -3.872  -0.044  0.00  0.00    +0.017 C 
ATOM     11  C   UNL     1       3.403  -3.974   1.235  0.00  0.00    -0.005 C 
ATOM     12  C   UNL     1       3.297  -5.469   1.571  0.00  0.00    -0.026 C 
ATOM     13  C   UNL     1       3.506  -5.821   3.035  0.00  0.00    +0.002 C 
ATOM     14  C   UNL     1       3.236  -7.326   3.186  0.00  0.00    +0.000 C 
ATOM     15  C   UNL     1       1.827  -7.690   2.729  0.00  0.00    -0.002 C 
ATOM     16  C   UNL     1       1.563  -7.214   1.291  0.00  0.00    -0.015 C 
ATOM     17  C   UNL     1       1.801  -5.723   1.242  0.00  0.00    -0.068 C 
ATOM     18  N   UNL     1       1.595  -5.030  -0.030  0.00  0.00    +0.389 N 
ATOM     19  H   UNL     1       0.642  -4.706  -0.096  0.00  0.00    -0.084 HD
ATOM     20  H   UNL     1       1.804  -5.649  -0.799  0.00  0.00    -0.084 HD
ENDBRANCH   7  10
BRANCH   2  21
ATOM     21  C   UNL     1       1.821   3.468   0.003  0.00  0.00    +0.038 C 
ATOM     22  C   UNL     1       0.835   4.579  -0.365  0.00  0.00    +0.010 C 
ATOM     23  C   UNL     1       1.938   4.179  -1.347  0.00  0.00    +0.010 C 
ENDBRANCH   2  21
TORSDOF 2
