REMARK  Name = ZINC09033643
REMARK  11 active torsions:
REMARK  status: ('A' for Active; 'I' for Inactive)
REMARK    1  A    between atoms: C_1  and  C_2
REMARK    2  A    between atoms: N_6  and  O_7
REMARK    3  A    between atoms: O_7  and  C_8
REMARK    4  A    between atoms: C_8  and  C_9
REMARK    5  A    between atoms: N_11  and  CA_12
REMARK    6  A    between atoms: CA_12  and  CB_14
REMARK    7  A    between atoms: CA_12  and  C_17
REMARK    8  A    between atoms: CB_14  and  CG_15
REMARK    9  A    between atoms: C_29  and  C_38
REMARK   10  A    between atoms: C_34  and  C_35
REMARK   11  A    between atoms: C_34  and  O_37
REMARK                            x       y       z     vdW  Elec       q    Type
REMARK                         _______ _______ _______ _____ _____    ______ ____
ROOT
ATOM      1  C   UNK A   0       3.154   5.185  -2.060  0.00  0.00    +0.016 C 
ATOM      2  C   UNK A   0       1.642   5.043  -2.243  0.00  0.00    -0.007 C 
ATOM      3  C   UNK A   0       1.370   5.328  -3.699  0.00  0.00    +0.017 C 
ATOM      4  C   UNK A   0      -0.006   5.952  -3.925  0.00  0.00    +0.059 C 
ATOM      5  C   UNK A   0      -0.100   7.186  -3.047  0.00  0.00    +0.080 C 
ATOM      6  N   UNK A   0      -0.435   8.343  -3.522  0.00  0.00    -0.089 NA
ATOM      7  C   UNK A   0       0.214   6.987  -1.618  0.00  0.00    +0.026 C 
ATOM      8  C   UNK A   0       1.006   5.983  -1.268  0.00  0.00    -0.062 C 
ATOM      9  C   UNK A   0       1.292   5.754   0.207  0.00  0.00    +0.031 C 
ATOM     10  C   UNK A   0       0.940   4.296   0.524  0.00  0.00    +0.008 C 
ATOM     11  C   UNK A   0       1.704   3.356  -0.411  0.00  0.00    -0.003 C 
ATOM     12  C   UNK A   0       1.296   3.603  -1.864  0.00  0.00    +0.002 C 
ATOM     13  C   UNK A   0       2.094   2.649  -2.760  0.00  0.00    +0.005 C 
ATOM     14  C   UNK A   0       1.716   1.213  -2.410  0.00  0.00    +0.011 C 
ATOM     15  C   UNK A   0       2.097   0.893  -0.962  0.00  0.00    +0.011 C 
ATOM     16  C   UNK A   0       1.474   1.921  -0.002  0.00  0.00    +0.002 C 
ATOM     17  C   UNK A   0      -0.019   1.542   0.011  0.00  0.00    +0.008 C 
ATOM     18  C   UNK A   0       0.002  -0.004   0.002  0.00  0.00    +0.049 C 
ATOM     19  C   UNK A   0       1.361  -0.422  -0.591  0.00  0.00    +0.132 C 
ATOM     20  C   UNK A   0       3.612   0.774  -0.785  0.00  0.00    +0.015 C 
ENDROOT
BRANCH  19  21
ATOM     21  C   UNK A   0       2.139  -1.172   0.409  0.00  0.00    -0.070 C 
ATOM     22  C   UNK A   0       2.760  -1.770   1.206  0.00  0.00    +0.007 C 
ENDBRANCH  19  21
BRANCH  19  23
ATOM     23  O   UNK A   0       1.162  -1.220  -1.759  0.00  0.00    -0.376 OA
ATOM     24  H   UNK A   0       0.684  -2.045  -1.595  0.00  0.00    +0.211 HD
ENDBRANCH  19  23
BRANCH   6  25
ATOM     25  O   UNK A   0      -0.727   8.485  -4.901  0.00  0.00    -0.384 OA
BRANCH  25  26
ATOM     26  C   UNK A   0      -1.082   9.814  -5.286  0.00  0.00    +0.358 C 
BRANCH  26  27
ATOM     27  C   UNK A   0      -1.370   9.849  -6.765  0.00  0.00    +0.254 C 
ATOM     28  O   UNK A   0      -1.280   8.835  -7.424  0.00  0.00    -0.272 OA
ATOM     29  N   ASP A   1      -1.727  11.007  -7.355  0.00  0.00    -0.299 N 
ATOM     30  H   ASP A   1      -1.799  11.818  -6.828  0.00  0.00    +0.150 HD
BRANCH  29  31
ATOM     31  CA  ASP A   1      -2.007  11.040  -8.792  0.00  0.00    +0.197 C 
BRANCH  31  32
ATOM     32  C   ASP A   1      -0.718  11.219  -9.552  0.00  0.00    +0.376 C 
ATOM     33  O   ASP A   1       0.328  11.309  -8.953  0.00  0.00    -0.244 OA
ATOM     34  OXT ASP A   1      -0.731  11.278 -10.892  0.00  0.00    -0.244 OA
ENDBRANCH  31  32
BRANCH  31  35
ATOM     35  CB  ASP A   1      -2.947  12.208  -9.102  0.00  0.00    +0.159 C 
BRANCH  35  36
ATOM     36  CG  ASP A   1      -4.280  11.968  -8.441  0.00  0.00    +0.358 C 
ATOM     37  OD1 ASP A   1      -4.460  10.966  -7.790  0.00  0.00    -0.246 OA
ATOM     38  OD2 ASP A   1      -5.268  12.867  -8.576  0.00  0.00    -0.246 OA
ENDBRANCH  35  36
ENDBRANCH  31  35
ENDBRANCH  29  31
ENDBRANCH  26  27
ENDBRANCH  25  26
ENDBRANCH   6  25
TORSDOF 9
