REMARK  Name = ZINC19471550
REMARK  3 active torsions:
REMARK  status: ('A' for Active; 'I' for Inactive)
REMARK    1  A    between atoms: C_1  and  C_2
REMARK    2  A    between atoms: C_15  and  C_18
REMARK    3  A    between atoms: N_19  and  O_20
REMARK                            x       y       z     vdW  Elec       q    Type
REMARK                         _______ _______ _______ _____ _____    ______ ____
ROOT
ATOM      1  C   UNL     1       0.894   7.744   1.305  0.00  0.00    +0.029 C 
ATOM      2  C   UNL     1       0.069   8.040   0.051  0.00  0.00    +0.082 C 
ATOM      3  C   UNL     1      -0.410   9.501   0.057  0.00  0.00    +0.059 C 
ATOM      4  C   UNL     1      -1.919   9.406   0.063  0.00  0.00    -0.024 A 
ATOM      5  C   UNL     1      -2.889  10.390   0.074  0.00  0.00    +0.005 A 
ATOM      6  C   UNL     1      -4.228  10.046   0.079  0.00  0.00    +0.000 A 
ATOM      7  C   UNL     1      -4.596   8.713   0.072  0.00  0.00    +0.002 A 
ATOM      8  C   UNL     1      -3.632   7.727   0.061  0.00  0.00    +0.024 A 
ATOM      9  C   UNL     1      -2.277   8.067   0.057  0.00  0.00    +0.039 A 
ATOM     10  N   UNL     1      -1.156   7.234   0.047  0.00  0.00    -0.282 N 
ATOM     11  C   UNL     1      -1.195   5.847   0.039  0.00  0.00    +0.126 A 
ATOM     12  C   UNL     1      -1.112   5.163  -1.172  0.00  0.00    +0.045 A 
ATOM     13  C   UNL     1      -1.152   3.784  -1.171  0.00  0.00    +0.016 A 
ATOM     14  C   UNL     1      -1.275   3.122   0.058  0.00  0.00    +0.036 A 
ATOM     15  C   UNL     1      -1.358   3.874   1.228  0.00  0.00    +0.124 A 
ATOM     16  N   UNL     1      -1.310   5.190   1.185  0.00  0.00    -0.239 NA
ENDROOT
BRANCH  14  17
ATOM     17  C   UNL     1      -1.322   1.644   0.112  0.00  0.00    +0.164 C 
ATOM     18  N   UNL     1      -1.249   0.950  -0.987  0.00  0.00    -0.071 NA
ATOM     19  N   UNL     1      -1.444   1.000   1.331  0.00  0.00    -0.340 N 
ATOM     20  H   UNL     1      -1.479  -0.099   1.371  0.00  0.00    +0.144 HD
ATOM     21  H   UNL     1      -1.506   1.586   2.260  0.00  0.00    +0.144 HD
BRANCH  18  22
ATOM     22  O   UNL     1      -1.294  -0.464  -0.935  0.00  0.00    -0.408 OA
ATOM     23  H   UNL     1      -1.233  -1.051  -1.864  0.00  0.00    +0.328 HD
ENDBRANCH  18  22
ENDBRANCH  14  17
TORSDOF 2
