REMARK  Name = ZINC63588884
REMARK  12 active torsions:
REMARK  status: ('A' for Active; 'I' for Inactive)
REMARK    1  A    between atoms: C_1  and  C_2
REMARK    2  A    between atoms: C_2  and  O_3
REMARK    3  A    between atoms: O_3  and  C_4
REMARK    4  A    between atoms: C_7  and  N_10
REMARK    5  A    between atoms: N_12  and  C_13
REMARK    6  A    between atoms: C_13  and  C_14
REMARK    7  A    between atoms: C_14  and  C_15
REMARK    8  A    between atoms: N_24  and  C_25
REMARK    9  A    between atoms: C_25  and  C_27
REMARK   10  A    between atoms: C_27  and  C_29
REMARK   11  A    between atoms: C_27  and  O_30
REMARK   12  A    between atoms: O_30  and  C_31
REMARK                            x       y       z     vdW  Elec       q    Type
REMARK                         _______ _______ _______ _____ _____    ______ ____
ROOT
ATOM      1  N   UNL     1       1.514  -6.218  -1.632  0.00  0.00    -0.328 N 
ATOM      2  C   UNL     1       1.725  -6.477  -2.954  0.00  0.00    +0.194 C 
ATOM      3  N   UNL     1       1.940  -5.451  -3.825  0.00  0.00    -0.357 N 
ATOM      4  N   UNL     1       1.719  -7.729  -3.394  0.00  0.00    -0.144 NA
ATOM      5  H   UNL     1       2.039  -4.545  -3.491  0.00  0.00    +0.162 HD
ATOM      6  H   UNL     1       1.731  -6.888  -0.966  0.00  0.00    +0.169 HD
ENDROOT
BRANCH   1  10
ATOM      7  C   UNL     1      -0.059  -2.540  -0.455  0.00  0.00    +0.121 A 
ATOM      8  C   UNL     1       0.958  -3.127   0.283  0.00  0.00    +0.047 A 
ATOM      9  C   UNL     1       1.480  -4.345  -0.106  0.00  0.00    +0.029 A 
ATOM     10  C   UNL     1       0.985  -4.982  -1.237  0.00  0.00    +0.042 A 
ATOM     11  C   UNL     1      -0.033  -4.394  -1.975  0.00  0.00    +0.029 A 
ATOM     12  C   UNL     1      -0.557  -3.179  -1.581  0.00  0.00    +0.047 A 
BRANCH   7  13
ATOM     13  O   UNL     1      -0.573  -1.341  -0.071  0.00  0.00    -0.492 OA
BRANCH  13  15
ATOM     14  C   UNL     1      -0.713   0.593   1.372  0.00  0.00    +0.048 C 
ATOM     15  C   UNL     1      -0.013  -0.741   1.099  0.00  0.00    +0.225 C 
ENDBRANCH  13  15
ENDBRANCH   7  13
ENDBRANCH   1  10
BRANCH   4  16
ATOM     16  C   UNL     1       1.336  -8.716  -2.587  0.00  0.00    +0.280 C 
ATOM     17  O   UNL     1       0.818  -8.460  -1.517  0.00  0.00    -0.270 OA
BRANCH  16  18
ATOM     18  C   UNL     1       1.544 -10.151  -2.999  0.00  0.00    +0.258 C 
ATOM     19  C   UNL     1       3.043 -10.442  -3.093  0.00  0.00    +0.062 C 
BRANCH  18  20
ATOM     20  O   UNL     1       0.951 -11.016  -2.029  0.00  0.00    -0.480 OA
BRANCH  20  21
ATOM     21  C   UNL     1       0.582 -12.254  -2.450  0.00  0.00    +0.122 A 
ATOM     22  C   UNL     1      -0.120 -13.097  -1.600  0.00  0.00    +0.045 A 
ATOM     23  C   UNL     1      -0.495 -14.355  -2.031  0.00  0.00    +0.004 A 
ATOM     24  C   UNL     1      -0.170 -14.775  -3.308  0.00  0.00    +0.000 A 
ATOM     25  C   UNL     1       0.531 -13.938  -4.156  0.00  0.00    +0.004 A 
ATOM     26  C   UNL     1       0.902 -12.676  -3.732  0.00  0.00    +0.045 A 
ENDBRANCH  20  21
ENDBRANCH  18  20
ENDBRANCH  16  18
ENDBRANCH   4  16
BRANCH   3  27
ATOM     27  C   UNL     1       2.023  -5.715  -5.263  0.00  0.00    +0.120 C 
BRANCH  27  28
ATOM     28  C   UNL     1       2.268  -4.402  -6.010  0.00  0.00    +0.054 C 
BRANCH  28  29
ATOM     29  C   UNL     1       2.353  -4.674  -7.489  0.00  0.00    -0.040 C 
ATOM     30  C   UNL     1       1.352  -4.575  -8.393  0.00  0.00    -0.001 A 
ATOM     31  C   UNL     1      -0.062  -4.200  -8.273  0.00  0.00    +0.010 A 
ATOM     32  C   UNL     1      -0.836  -4.194  -9.383  0.00  0.00    +0.001 A 
ATOM     33  C   UNL     1      -0.322  -4.536 -10.641  0.00  0.00    +0.002 A 
ATOM     34  C   UNL     1       0.967  -4.891 -10.831  0.00  0.00    +0.026 A 
ATOM     35  C   UNL     1       1.870  -4.932  -9.733  0.00  0.00    +0.043 A 
ATOM     36  N   UNL     1       3.142  -5.239  -9.661  0.00  0.00    -0.380 N 
ATOM     37  C   UNL     1       3.577  -5.106  -8.266  0.00  0.00    +0.144 C 
ATOM     38  H   UNL     1       3.704  -5.506 -10.406  0.00  0.00    +0.160 HD
ENDBRANCH  28  29
ENDBRANCH  27  28
ENDBRANCH   3  27
TORSDOF 10
