REMARK  Name = ZINC40739812
REMARK  11 active torsions:
REMARK  status: ('A' for Active; 'I' for Inactive)
REMARK    1  A    between atoms: C_6  and  C_7
REMARK    2  A    between atoms: C_7  and  O_8
REMARK    3  A    between atoms: O_8  and  C_9
REMARK    4  A    between atoms: C_14  and  C_15
REMARK    5  A    between atoms: C_15  and  N_16
REMARK    6  A    between atoms: N_16  and  C_17
REMARK    7  A    between atoms: C_17  and  C_18
REMARK    8  A    between atoms: C_18  and  O_19
REMARK    9  A    between atoms: O_19  and  C_20
REMARK   10  A    between atoms: C_20  and  C_21
REMARK   11  A    between atoms: C_21  and  O_22
REMARK                            x       y       z     vdW  Elec       q    Type
REMARK                         _______ _______ _______ _____ _____    ______ ____
ROOT
ATOM      1  C   UNL     1      -2.875  -1.699  -1.504  0.00  0.00    +0.122 A 
ATOM      2  C   UNL     1      -3.594  -2.133  -0.400  0.00  0.00    +0.047 A 
ATOM      3  C   UNL     1      -4.772  -2.832  -0.575  0.00  0.00    +0.019 A 
ATOM      4  C   UNL     1      -5.236  -3.100  -1.851  0.00  0.00    +0.018 A 
ATOM      5  C   UNL     1      -4.520  -2.669  -2.953  0.00  0.00    +0.020 A 
ATOM      6  C   UNL     1      -3.344  -1.964  -2.782  0.00  0.00    -0.022 A 
ATOM      7 BR   UNL     1      -6.849  -4.058  -2.088  0.00  0.00    -0.050 Br
ENDROOT
BRANCH   1   8
ATOM      8  O   UNL     1      -1.716  -1.011  -1.334  0.00  0.00    -0.487 OA
BRANCH   8   9
ATOM      9  C   UNL     1      -1.293  -0.775   0.011  0.00  0.00    +0.264 C 
BRANCH   9  15
ATOM     10  C   UNL     1      -0.017   1.378   0.010  0.00  0.00    +0.008 A 
ATOM     11  C   UNL     1       1.171   2.086   0.002  0.00  0.00    +0.022 A 
ATOM     12  C   UNL     1       2.378   1.412  -0.013  0.00  0.00    +0.059 A 
ATOM     13  C   UNL     1       2.397   0.027  -0.021  0.00  0.00    +0.060 A 
ATOM     14  C   UNL     1       1.208  -0.680  -0.013  0.00  0.00    +0.028 A 
ATOM     15  C   UNL     1       0.002  -0.004   0.002  0.00  0.00    -0.009 A 
ATOM     16 CL   UNL     1       3.912  -0.821  -0.040  0.00  0.00    -0.082 Cl
ATOM     17 CL   UNL     1       3.869   2.301  -0.023  0.00  0.00    -0.082 Cl
ENDBRANCH   9  15
ENDBRANCH   8   9
ENDBRANCH   1   8
BRANCH   6  18
ATOM     18  C   UNL     1      -2.569  -1.488  -3.984  0.00  0.00    -0.043 C 
BRANCH  18  19
ATOM     19  N   UNL     1      -1.453  -2.409  -4.242  0.00  0.00    +0.383 N 
ATOM     20  H   UNL     1      -0.845  -2.434  -3.438  0.00  0.00    -0.085 HD
ATOM     21  H   UNL     1      -1.815  -3.334  -4.420  0.00  0.00    -0.085 HD
BRANCH  19  22
ATOM     22  C   UNL     1      -0.697  -1.945  -5.413  0.00  0.00    -0.054 C 
BRANCH  22  23
ATOM     23  C   UNL     1       0.464  -2.904  -5.683  0.00  0.00    +0.141 C 
BRANCH  23  24
ATOM     24  O   UNL     1      -0.051  -4.185  -6.049  0.00  0.00    -0.379 OA
BRANCH  24  25
ATOM     25  C   UNL     1       0.958  -5.160  -6.323  0.00  0.00    +0.187 C 
BRANCH  25  26
ATOM     26  C   UNL     1       0.295  -6.486  -6.702  0.00  0.00    +0.184 C 
BRANCH  26  27
ATOM     27  O   UNL     1      -0.421  -6.328  -7.928  0.00  0.00    -0.393 OA
ATOM     28  H   UNL     1      -0.868  -7.131  -8.229  0.00  0.00    +0.209 HD
ENDBRANCH  26  27
ENDBRANCH  25  26
ENDBRANCH  24  25
ENDBRANCH  23  24
ENDBRANCH  22  23
ENDBRANCH  19  22
ENDBRANCH  18  19
ENDBRANCH   6  18
TORSDOF 11
