REMARK  Name = ZINC32655286
REMARK  11 active torsions:
REMARK  status: ('A' for Active; 'I' for Inactive)
REMARK    1  A    between atoms: C_1  and  C_2
REMARK    2  A    between atoms: C_3  and  C_33
REMARK    3  A    between atoms: C_4  and  C_24
REMARK    4  A    between atoms: C_11  and  S_15
REMARK    5  A    between atoms: S_15  and  C_16
REMARK    6  A    between atoms: C_16  and  C_17
REMARK    7  A    between atoms: C_27  and  N_30
REMARK    8  A    between atoms: N_30  and  C_31
REMARK    9  A    between atoms: N_30  and  C_32
REMARK   10  A    between atoms: C_33  and  O_35
REMARK   11  A    between atoms: O_35  and  C_36
REMARK                            x       y       z     vdW  Elec       q    Type
REMARK                         _______ _______ _______ _____ _____    ______ ____
ROOT
ATOM      1  C   UNL     1      -2.468   4.024  -0.958  0.00  0.00    +0.061 C 
ATOM      2  C   UNL     1      -1.209   3.368  -0.452  0.00  0.00    +0.017 C 
ATOM      3  C   UNL     1      -0.075   4.083  -0.386  0.00  0.00    +0.065 C 
ATOM      4  C   UNL     1       1.211   3.494   0.117  0.00  0.00    +0.096 C 
ATOM      5  C   UNL     1       1.143   1.993   0.133  0.00  0.00    +0.069 A 
ATOM      6  C   UNL     1       2.316   1.237   0.239  0.00  0.00    +0.258 A 
ATOM      7  O   UNL     1       3.404   1.786   0.314  0.00  0.00    -0.267 OA
ATOM      8  N   UNL     1       2.221  -0.109   0.258  0.00  0.00    -0.302 N 
ATOM      9  H   UNL     1       3.131  -0.723   0.338  0.00  0.00    +0.171 HD
ATOM     10  C   UNL     1       1.002  -0.710   0.176  0.00  0.00    +0.171 A 
ATOM     11  N   UNL     1      -0.105  -0.003   0.076  0.00  0.00    -0.208 NA
ATOM     12  C   UNL     1      -0.072   1.334   0.049  0.00  0.00    +0.135 A 
ATOM     13  N   UNL     1      -1.245   2.056  -0.069  0.00  0.00    -0.302 N 
ATOM     14  H   UNL     1      -2.209   1.572   0.145  0.00  0.00    +0.153 HD
ENDROOT
BRANCH   4  15
ATOM     15  C   UNL     1       1.471   3.993   1.515  0.00  0.00    -0.035 A 
ATOM     16  C   UNL     1       0.573   3.710   2.527  0.00  0.00    +0.006 A 
ATOM     17  C   UNL     1       0.812   4.161   3.810  0.00  0.00    +0.023 A 
ATOM     18  C   UNL     1       1.950   4.909   4.081  0.00  0.00    +0.029 A 
ATOM     19  C   UNL     1       2.848   5.197   3.061  0.00  0.00    +0.023 A 
ATOM     20  C   UNL     1       2.606   4.738   1.781  0.00  0.00    +0.006 A 
BRANCH  18  21
ATOM     21  N   UNL     1       2.191   5.372   5.377  0.00  0.00    -0.336 N 
ATOM     22  C   UNL     1       3.392   6.162   5.660  0.00  0.00    +0.129 C 
ATOM     23  C   UNL     1       1.244   5.068   6.452  0.00  0.00    +0.129 C 
ENDBRANCH  18  21
ENDBRANCH   4  15
BRANCH   3  24
ATOM     24  C   UNL     1      -0.092   5.433  -0.803  0.00  0.00    +0.337 C 
ATOM     25  O   UNL     1       0.308   5.732  -1.913  0.00  0.00    -0.245 OA
BRANCH  24  26
ATOM     26  O   UNL     1      -0.552   6.391   0.029  0.00  0.00    -0.465 OA
ATOM     27  C   UNL     1      -0.540   7.734  -0.459  0.00  0.00    +0.280 C 
ENDBRANCH  24  26
ENDBRANCH   3  24
BRANCH  10  28
ATOM     28  S   UNL     1       0.903  -2.469   0.207  0.00  0.00    -0.083 S 
BRANCH  28  29
ATOM     29  C   UNL     1      -0.889  -2.685   0.073  0.00  0.00    +0.114 C 
BRANCH  29  30
ATOM     30  C   UNL     1      -1.220  -4.156   0.080  0.00  0.00    -0.019 A 
ATOM     31  C   UNL     1      -1.285  -4.855  -1.111  0.00  0.00    +0.006 A 
ATOM     32  C   UNL     1      -1.584  -6.204  -1.105  0.00  0.00    +0.000 A 
ATOM     33  C   UNL     1      -1.827  -6.854   0.091  0.00  0.00    +0.001 A 
ATOM     34  C   UNL     1      -1.767  -6.155   1.282  0.00  0.00    +0.020 A 
ATOM     35  C   UNL     1      -1.463  -4.805   1.277  0.00  0.00    +0.045 A 
ATOM     36 CL   UNL     1      -1.389  -3.926   2.772  0.00  0.00    -0.083 Cl
ENDBRANCH  29  30
ENDBRANCH  28  29
ENDBRANCH  10  28
TORSDOF 7
