REMARK  Name = ZINC38670963
REMARK  8 active torsions:
REMARK  status: ('A' for Active; 'I' for Inactive)
REMARK    1  A    between atoms: C_1  and  N_2
REMARK    2  A    between atoms: C_10  and  C_12
REMARK    3  A    between atoms: C_12  and  C_14
REMARK    4  A    between atoms: C_12  and  N_28
REMARK    5  A    between atoms: C_14  and  N_15
REMARK    6  A    between atoms: C_16  and  C_18
REMARK    7  A    between atoms: N_21  and  S_24
REMARK    8  A    between atoms: S_24  and  C_27
REMARK                            x       y       z     vdW  Elec       q    Type
REMARK                         _______ _______ _______ _____ _____    ______ ____
ROOT
ATOM      1  C   UNL     1       4.992  -2.839  -0.469  0.00  0.00    -0.020 C 
ENDROOT
BRANCH   1  11
ATOM      2  C   UNL     1      -0.097   0.924   1.119  0.00  0.00    +0.129 C 
ATOM      3  N   UNL     1      -0.020  -0.502   0.794  0.00  0.00    -0.333 N 
ATOM      4  C   UNL     1      -1.232  -1.332   0.784  0.00  0.00    +0.105 C 
ATOM      5  C   UNL     1      -0.907  -2.644   1.510  0.00  0.00    +0.024 C 
ATOM      6  C   UNL     1       0.177  -3.386   0.728  0.00  0.00    +0.038 C 
ATOM      7  C   UNL     1       1.343  -2.475   0.448  0.00  0.00    -0.026 A 
ATOM      8  C   UNL     1       1.209  -1.094   0.481  0.00  0.00    +0.033 A 
ATOM      9  C   UNL     1       2.303  -0.281   0.208  0.00  0.00    +0.023 A 
ATOM     10  C   UNL     1       3.525  -0.846  -0.099  0.00  0.00    +0.004 A 
ATOM     11  C   UNL     1       3.658  -2.222  -0.135  0.00  0.00    -0.059 A 
ATOM     12  C   UNL     1       2.573  -3.035   0.146  0.00  0.00    +0.007 A 
ENDBRANCH   1  11
BRANCH   1  13
ATOM     13  N   UNL     1       6.063  -2.073   0.183  0.00  0.00    +0.385 N 
ATOM     14  C   UNL     1       7.356  -2.711  -0.091  0.00  0.00    -0.078 C 
ATOM     15  C   UNL     1       8.482  -1.873   0.517  0.00  0.00    -0.019 C 
ATOM     16  C   UNL     1       8.273  -1.769   2.031  0.00  0.00    -0.004 C 
ATOM     17  C   UNL     1       6.891  -1.170   2.305  0.00  0.00    -0.019 C 
ATOM     18  C   UNL     1       5.823  -2.034   1.631  0.00  0.00    -0.078 C 
ATOM     19  H   UNL     1       6.071  -1.132  -0.181  0.00  0.00    -0.081 HD
ENDBRANCH   1  13
BRANCH   1  20
ATOM     20  C   UNL     1       5.199  -2.817  -1.985  0.00  0.00    +0.093 C 
BRANCH  20  21
ATOM     21  N   UNL     1       4.186  -3.656  -2.628  0.00  0.00    -0.316 N 
ATOM     22  C   UNL     1       4.163  -3.775  -3.970  0.00  0.00    +0.216 C 
ATOM     23  O   UNL     1       4.981  -3.188  -4.646  0.00  0.00    -0.276 OA
ATOM     24  H   UNL     1       3.531  -4.126  -2.088  0.00  0.00    +0.149 HD
BRANCH  22  25
ATOM     25  C   UNL     1       3.120  -4.639  -4.633  0.00  0.00    +0.077 C 
ATOM     26  C   UNL     1       3.260  -6.079  -4.135  0.00  0.00    +0.030 C 
ATOM     27  C   UNL     1       2.177  -6.947  -4.783  0.00  0.00    +0.110 C 
ATOM     28  N   UNL     1       2.266  -6.802  -6.242  0.00  0.00    -0.181 NA
ATOM     29  C   UNL     1       2.233  -5.452  -6.822  0.00  0.00    +0.110 C 
ATOM     30  C   UNL     1       3.316  -4.601  -6.150  0.00  0.00    +0.030 C 
BRANCH  28  31
ATOM     31  S   UNL     1       2.401  -8.134  -7.216  0.00  0.00    +0.029 S 
ATOM     32  O   UNL     1       3.058  -7.664  -8.385  0.00  0.00    -0.158 OA
ATOM     33  O   UNL     1       3.004  -9.124  -6.394  0.00  0.00    -0.158 OA
ATOM     34  C   UNL     1       0.692  -8.602  -7.606  0.00  0.00    +0.215 C 
ENDBRANCH  28  31
ENDBRANCH  22  25
ENDBRANCH  20  21
ENDBRANCH   1  20
TORSDOF 6
