REMARK  Name = ZINC41585972
REMARK  5 active torsions:
REMARK  status: ('A' for Active; 'I' for Inactive)
REMARK    1  A    between atoms: C_1  and  C_2
REMARK    2  A    between atoms: C_3  and  C_27
REMARK    3  A    between atoms: C_9  and  O_26
REMARK    4  A    between atoms: C_10  and  C_13
REMARK    5  A    between atoms: C_13  and  N_14
REMARK                            x       y       z     vdW  Elec       q    Type
REMARK                         _______ _______ _______ _____ _____    ______ ____
ROOT
ATOM      1  C   UNL     1       0.048   1.553   0.088  0.00  0.00    +0.087 C 
ATOM      2  C   UNL     1       0.049   0.046   0.071  0.00  0.00    +0.114 A 
ATOM      3  C   UNL     1      -1.143  -0.606   0.084  0.00  0.00    +0.067 A 
ATOM      4  C   UNL     1      -1.130  -2.082   0.084  0.00  0.00    +0.200 A 
ATOM      5  O   UNL     1      -2.135  -2.737  -0.130  0.00  0.00    -0.286 OA
ATOM      6  C   UNL     1       0.174  -2.716   0.359  0.00  0.00    +0.065 A 
ATOM      7  C   UNL     1       0.276  -4.078   0.640  0.00  0.00    +0.019 A 
ATOM      8  C   UNL     1       1.500  -4.626   0.895  0.00  0.00    +0.046 A 
ATOM      9  C   UNL     1       2.644  -3.831   0.877  0.00  0.00    +0.125 A 
ATOM     10  C   UNL     1       2.558  -2.478   0.598  0.00  0.00    +0.051 A 
ATOM     11  C   UNL     1       1.322  -1.904   0.331  0.00  0.00    +0.147 A 
ATOM     12  O   UNL     1       1.221  -0.592   0.039  0.00  0.00    -0.459 OA
ENDROOT
BRANCH   3  13
ATOM     13  C   UNL     1      -2.422   0.144   0.097  0.00  0.00    -0.011 A 
ATOM     14  C   UNL     1      -2.753   0.943   1.190  0.00  0.00    +0.010 A 
ATOM     15  C   UNL     1      -3.945   1.639   1.197  0.00  0.00    +0.016 A 
ATOM     16  C   UNL     1      -4.810   1.546   0.121  0.00  0.00    +0.018 A 
ATOM     17  C   UNL     1      -4.486   0.753  -0.967  0.00  0.00    +0.016 A 
ATOM     18  C   UNL     1      -3.294   0.058  -0.987  0.00  0.00    +0.010 A 
ATOM     19 BR   UNL     1      -6.441   2.502   0.137  0.00  0.00    -0.050 Br
ENDBRANCH   3  13
BRANCH   9  20
ATOM     20  O   UNL     1       3.854  -4.388   1.137  0.00  0.00    -0.506 OA
ATOM     21  H   UNL     1       4.311  -4.721   0.352  0.00  0.00    +0.292 HD
ENDBRANCH   9  20
BRANCH  10  22
ATOM     22  C   UNL     1       3.804  -1.629   0.583  0.00  0.00    +0.127 C 
BRANCH  22  23
ATOM     23  N   UNL     1       4.375  -1.621  -0.770  0.00  0.00    -0.295 NA
ATOM     24  C   UNL     1       3.475  -0.950  -1.718  0.00  0.00    +0.103 C 
ATOM     25  C   UNL     1       4.017  -1.121  -3.141  0.00  0.00    +0.122 C 
ATOM     26  N   UNL     1       5.411  -0.653  -3.169  0.00  0.00    -0.314 N 
ATOM     27  C   UNL     1       6.343  -1.179  -2.160  0.00  0.00    +0.122 C 
ATOM     28  C   UNL     1       5.709  -1.006  -0.775  0.00  0.00    +0.103 C 
ATOM     29  C   UNL     1       5.837   0.263  -4.124  0.00  0.00    +0.099 A 
ATOM     30  C   UNL     1       7.126   0.781  -4.056  0.00  0.00    +0.042 A 
ATOM     31  C   UNL     1       7.537   1.691  -5.013  0.00  0.00    +0.005 A 
ATOM     32  C   UNL     1       6.641   2.054  -6.010  0.00  0.00    +0.018 A 
ATOM     33  C   UNL     1       5.376   1.501  -6.017  0.00  0.00    +0.084 A 
ATOM     34  N   UNL     1       5.013   0.630  -5.094  0.00  0.00    -0.350 N 
ATOM     35  H   UNL     1       4.120   0.253  -5.124  0.00  0.00    +0.166 HD
ENDBRANCH  22  23
ENDBRANCH  10  22
TORSDOF 4
