REMARK  Name = ZINC03558046
REMARK  7 active torsions:
REMARK  status: ('A' for Active; 'I' for Inactive)
REMARK    1  A    between atoms: C_1  and  C_2
REMARK    2  A    between atoms: C_3  and  C_27
REMARK    3  A    between atoms: C_7  and  S_11
REMARK    4  A    between atoms: S_11  and  C_12
REMARK    5  A    between atoms: C_12  and  C_14
REMARK    6  A    between atoms: C_12  and  C_20
REMARK    7  A    between atoms: N_25  and  C_26
REMARK                            x       y       z     vdW  Elec       q    Type
REMARK                         _______ _______ _______ _____ _____    ______ ____
ROOT
ATOM      1  C   UNL     1      -1.093  -2.191  -0.103  0.00  0.00    +0.169 C 
ENDROOT
BRANCH   1   2
ATOM      2  C   UNL     1      -1.111  -0.684  -0.108  0.00  0.00    +0.238 C 
ATOM      3  O   UNL     1      -2.168  -0.090  -0.076  0.00  0.00    -0.274 OA
ATOM      4  N   UNL     1       0.047   0.004  -0.147  0.00  0.00    -0.239 N 
ATOM      5  C   UNL     1       0.030   1.352  -0.151  0.00  0.00    +0.306 C 
ATOM      6  O   UNL     1      -1.029   1.947  -0.124  0.00  0.00    -0.252 OA
ATOM      7  N   UNL     1       1.189   2.040  -0.190  0.00  0.00    -0.302 N 
ATOM      8  C   UNL     1       1.171   3.505  -0.194  0.00  0.00    +0.129 C 
ATOM      9  H   UNL     1       0.892  -0.470  -0.172  0.00  0.00    +0.159 HD
ATOM     10  H   UNL     1       2.034   1.565  -0.215  0.00  0.00    +0.150 HD
ENDBRANCH   1   2
BRANCH   1  11
ATOM     11  C   UNL     1      -0.918  -2.687   1.309  0.00  0.00    -0.025 A 
ATOM     12  C   UNL     1      -1.847  -2.357   2.277  0.00  0.00    +0.005 A 
ATOM     13  C   UNL     1      -1.689  -2.816   3.572  0.00  0.00    +0.000 A 
ATOM     14  C   UNL     1      -0.597  -3.596   3.900  0.00  0.00    +0.000 A 
ATOM     15  C   UNL     1       0.335  -3.923   2.932  0.00  0.00    +0.000 A 
ATOM     16  C   UNL     1       0.175  -3.467   1.637  0.00  0.00    +0.005 A 
ENDBRANCH   1  11
BRANCH   1  17
ATOM     17  S   UNL     1      -2.654  -2.815  -0.773  0.00  0.00    -0.088 S 
BRANCH  17  24
ATOM     18  C   UNL     1      -5.168  -3.822  -1.849  0.00  0.00    +0.045 C 
ATOM     19  C   UNL     1      -4.626  -5.226  -1.765  0.00  0.00    -0.029 A 
ATOM     20  C   UNL     1      -5.376  -6.268  -2.154  0.00  0.00    -0.008 A 
ATOM     21  S   UNL     1      -4.318  -7.673  -1.866  0.00  0.00    -0.074 S 
ATOM     22  C   UNL     1      -2.896  -6.824  -1.232  0.00  0.00    +0.113 A 
ATOM     23  C   UNL     1      -3.285  -5.466  -1.261  0.00  0.00    +0.043 A 
ATOM     24  C   UNL     1      -2.309  -4.543  -0.794  0.00  0.00    +0.110 A 
ATOM     25  N   UNL     1      -1.136  -4.997  -0.381  0.00  0.00    -0.228 NA
ATOM     26  C   UNL     1      -0.843  -6.285  -0.378  0.00  0.00    +0.223 A 
ATOM     27  N   UNL     1      -1.706  -7.189  -0.798  0.00  0.00    -0.228 NA
ATOM     28  C   UNL     1      -6.780  -6.253  -2.702  0.00  0.00    +0.052 C 
ENDBRANCH  17  24
ENDBRANCH   1  17
TORSDOF 4
