REMARK  Name = ZINC22582937
REMARK  8 active torsions:
REMARK  status: ('A' for Active; 'I' for Inactive)
REMARK    1  A    between atoms: C_1  and  C_2
REMARK    2  A    between atoms: C_2  and  C_3
REMARK    3  A    between atoms: C_2  and  C_4
REMARK    4  A    between atoms: C_4  and  C_6
REMARK    5  A    between atoms: C_4  and  S_12
REMARK    6  A    between atoms: S_12  and  C_13
REMARK    7  A    between atoms: N_26  and  C_27
REMARK    8  A    between atoms: C_27  and  C_28
REMARK                            x       y       z     vdW  Elec       q    Type
REMARK                         _______ _______ _______ _____ _____    ______ ____
ROOT
ATOM      1  C   UNL     1      -1.651   5.832  -4.209  0.00  0.00    +0.173 A 
ATOM      2  N   UNL     1      -1.261   6.310  -3.034  0.00  0.00    -0.216 NA
ATOM      3  C   UNL     1      -0.796   5.439  -2.147  0.00  0.00    +0.117 A 
ATOM      4  C   UNL     1      -0.696   4.049  -2.383  0.00  0.00    +0.076 A 
ATOM      5  C   UNL     1      -0.162   3.252  -1.291  0.00  0.00    -0.023 A 
ATOM      6  C   UNL     1       0.183   3.918  -0.166  0.00  0.00    -0.004 A 
ATOM      7  S   UNL     1      -0.183   5.622  -0.502  0.00  0.00    -0.073 S 
ATOM      8  C   UNL     1       0.752   3.339   1.093  0.00  0.00    +0.043 C 
ATOM      9  C   UNL     1       0.544   1.817   1.064  0.00  0.00    +0.005 C 
ATOM     10  C   UNL     1       0.996   1.288  -0.300  0.00  0.00    +0.005 C 
ATOM     11  C   UNL     1       0.013   1.738  -1.381  0.00  0.00    +0.037 C 
ATOM     12  C   UNL     1      -1.127   3.569  -3.663  0.00  0.00    +0.263 A 
ATOM     13  O   UNL     1      -1.080   2.388  -3.960  0.00  0.00    -0.267 OA
ATOM     14  N   UNL     1      -1.590   4.508  -4.521  0.00  0.00    -0.285 N 
ENDROOT
BRANCH   1  15
ATOM     15  S   UNL     1      -2.274   6.956  -5.414  0.00  0.00    -0.075 S 
BRANCH  15  16
ATOM     16  C   UNL     1      -2.279   8.485  -4.445  0.00  0.00    +0.143 C 
BRANCH  16  17
ATOM     17  C   UNL     1      -3.322   8.390  -3.361  0.00  0.00    +0.234 C 
ATOM     18  O   UNL     1      -4.224   7.586  -3.458  0.00  0.00    -0.274 OA
ATOM     19  N   UNL     1      -3.252   9.198  -2.285  0.00  0.00    -0.239 N 
ATOM     20  C   UNL     1      -4.184   9.113  -1.316  0.00  0.00    +0.303 C 
ATOM     21  O   UNL     1      -5.089   8.307  -1.413  0.00  0.00    -0.253 OA
ATOM     22  N   UNL     1      -4.114   9.921  -0.240  0.00  0.00    -0.313 N 
ATOM     23  H   UNL     1      -2.433   9.927  -2.197  0.00  0.00    +0.159 HD
ATOM     24  H   UNL     1      -4.876   9.851   0.551  0.00  0.00    +0.146 HD
ATOM     25  H   UNL     1      -3.295  10.650  -0.152  0.00  0.00    +0.146 HD
ENDBRANCH  16  17
BRANCH  16  27
ATOM     26  C   UNL     1      -2.637  10.956  -4.535  0.00  0.00    +0.009 C 
ATOM     27  C   UNL     1      -2.600   9.668  -5.360  0.00  0.00    +0.005 C 
ATOM     28  C   UNL     1      -1.523   9.785  -6.440  0.00  0.00    +0.009 C 
ENDBRANCH  16  27
ENDBRANCH  15  16
ENDBRANCH   1  15
BRANCH  14  29
ATOM     29  C   UNL     1      -2.045   4.080  -5.846  0.00  0.00    +0.159 C 
BRANCH  29  30
ATOM     30  C   UNL     1      -3.538   3.748  -5.790  0.00  0.00    +0.138 C 
ATOM     31  C   UNL     1      -4.001   3.187  -7.151  0.00  0.00    +0.035 C 
ATOM     32  C   UNL     1      -5.402   3.836  -7.316  0.00  0.00    +0.031 C 
ATOM     33  C   UNL     1      -5.172   5.209  -6.635  0.00  0.00    +0.160 C 
ATOM     34  O   UNL     1      -4.292   4.938  -5.533  0.00  0.00    -0.375 OA
ENDBRANCH  29  30
ENDBRANCH  14  29
TORSDOF 6
