REMARK  Name = ZINC36155090
REMARK  12 active torsions:
REMARK  status: ('A' for Active; 'I' for Inactive)
REMARK    1  A    between atoms: C_4  and  C_7
REMARK    2  A    between atoms: C_7  and  C_8
REMARK    3  A    between atoms: C_8  and  C_10
REMARK    4  A    between atoms: C_8  and  N_24
REMARK    5  A    between atoms: C_12  and  C_15
REMARK    6  A    between atoms: C_18  and  N_21
REMARK    7  A    between atoms: N_24  and  C_25
REMARK    8  A    between atoms: C_25  and  C_26
REMARK    9  A    between atoms: C_26  and  C_28
REMARK   10  A    between atoms: C_26  and  O_36
REMARK   11  A    between atoms: C_28  and  O_29
REMARK   12  A    between atoms: O_29  and  C_30
REMARK                            x       y       z     vdW  Elec       q    Type
REMARK                         _______ _______ _______ _____ _____    ______ ____
ROOT
ATOM      1  C   UNL     1       4.293  -0.984   1.586  0.00  0.00    +0.023 C 
ENDROOT
BRANCH   1   2
ATOM      2  C   UNL     1       5.705  -1.512   1.592  0.00  0.00    +0.214 A 
ATOM      3  N   UNL     1       6.740  -0.910   2.105  0.00  0.00    -0.193 NA
ATOM      4  C   UNL     1       7.841  -1.663   1.935  0.00  0.00    +0.202 A 
ATOM      5  N   UNL     1       7.505  -2.761   1.305  0.00  0.00    -0.056 NA
ATOM      6  O   UNL     1       6.105  -2.681   1.077  0.00  0.00    -0.339 OA
BRANCH   4   7
ATOM      7  C   UNL     1       9.211  -1.308   2.385  0.00  0.00    +0.023 A 
ATOM      8  C   UNL     1       9.438  -0.107   3.052  0.00  0.00    +0.014 A 
ATOM      9  C   UNL     1      10.713   0.218   3.469  0.00  0.00    +0.033 A 
ATOM     10  C   UNL     1      11.764  -0.648   3.225  0.00  0.00    +0.126 A 
ATOM     11  C   UNL     1      11.544  -1.842   2.563  0.00  0.00    +0.033 A 
ATOM     12  C   UNL     1      10.272  -2.179   2.147  0.00  0.00    +0.014 A 
BRANCH  10  13
ATOM     13  N   UNL     1      13.130  -0.295   3.675  0.00  0.00    +0.056 N 
ATOM     14  O   UNL     1      13.325   0.749   4.254  0.00  0.00    -0.126 OA
ATOM     15  O   UNL     1      14.050  -1.050   3.463  0.00  0.00    -0.126 OA
ENDBRANCH  10  13
ENDBRANCH   4   7
ENDBRANCH   1   2
BRANCH   1  16
ATOM     16  N   UNL     1       3.368  -2.056   1.977  0.00  0.00    +0.389 N 
ATOM     17  H   UNL     1       3.379  -2.782   1.277  0.00  0.00    -0.085 HD
ATOM     18  H   UNL     1       3.655  -2.441   2.865  0.00  0.00    -0.085 HD
BRANCH  16  19
ATOM     19  C   UNL     1       2.009  -1.511   2.096  0.00  0.00    -0.046 C 
BRANCH  19  20
ATOM     20  C   UNL     1       1.070  -2.594   2.630  0.00  0.00    +0.135 C 
BRANCH  20  21
ATOM     21  O   UNL     1       1.061  -3.704   1.729  0.00  0.00    -0.390 OA
ATOM     22  H   UNL     1       0.764  -3.482   0.836  0.00  0.00    +0.210 HD
ENDBRANCH  20  21
BRANCH  20  23
ATOM     23  C   UNL     1      -0.345  -2.027   2.753  0.00  0.00    +0.258 C 
BRANCH  23  24
ATOM     24  O   UNL     1      -1.198  -3.000   3.360  0.00  0.00    -0.489 OA
BRANCH  24  25
ATOM     25  C   UNL     1      -2.499  -2.652   3.544  0.00  0.00    +0.121 A 
ATOM     26  C   UNL     1      -2.947  -1.402   3.143  0.00  0.00    +0.045 A 
ATOM     27  C   UNL     1      -4.270  -1.051   3.331  0.00  0.00    +0.004 A 
ATOM     28  C   UNL     1      -5.147  -1.944   3.918  0.00  0.00    +0.000 A 
ATOM     29  C   UNL     1      -4.702  -3.191   4.319  0.00  0.00    +0.004 A 
ATOM     30  C   UNL     1      -3.382  -3.549   4.128  0.00  0.00    +0.045 A 
ENDBRANCH  24  25
ENDBRANCH  23  24
ENDBRANCH  20  23
ENDBRANCH  19  20
ENDBRANCH  16  19
ENDBRANCH   1  16
BRANCH   1  31
ATOM     31  C   UNL     1       3.939  -0.492   0.182  0.00  0.00    +0.029 C 
BRANCH  31  35
ATOM     32  C   UNL     1       6.416   2.838  -0.830  0.00  0.00    +0.000 A 
ATOM     33  C   UNL     1       6.769   1.565  -1.237  0.00  0.00    +0.000 A 
ATOM     34  C   UNL     1       5.967   0.488  -0.910  0.00  0.00    +0.003 A 
ATOM     35  C   UNL     1       4.813   0.683  -0.174  0.00  0.00    -0.048 A 
ATOM     36  C   UNL     1       4.461   1.956   0.234  0.00  0.00    +0.003 A 
ATOM     37  C   UNL     1       5.262   3.034  -0.095  0.00  0.00    +0.000 A 
ENDBRANCH  31  35
ENDBRANCH   1  31
TORSDOF 12
