REMARK  Name = ZINC62541483
REMARK  3 active torsions:
REMARK  status: ('A' for Active; 'I' for Inactive)
REMARK    1  A    between atoms: C_1  and  C_2
REMARK    2  A    between atoms: C_2  and  C_3
REMARK    3  A    between atoms: C_12  and  N_15
REMARK                            x       y       z     vdW  Elec       q    Type
REMARK                         _______ _______ _______ _____ _____    ______ ____
ROOT
ATOM      1  C   UNL     1      -1.433  -0.534   0.013  0.00  0.00    +0.259 C 
ATOM      2  C   UNL     1      -1.415  -2.035  -0.121  0.00  0.00    +0.258 C 
ATOM      3  O   UNL     1      -1.502  -2.550  -1.216  0.00  0.00    -0.271 OA
ATOM      4  N   UNL     1      -1.302  -2.804   0.982  0.00  0.00    -0.279 N 
ATOM      5  C   UNL     1      -1.330  -2.197   2.246  0.00  0.00    +0.079 A 
ATOM      6  C   UNL     1      -0.990  -2.918   3.381  0.00  0.00    +0.042 A 
ATOM      7  C   UNL     1      -1.008  -2.304   4.620  0.00  0.00    +0.022 A 
ATOM      8  C   UNL     1      -1.364  -0.972   4.733  0.00  0.00    +0.041 A 
ATOM      9  C   UNL     1      -1.711  -0.245   3.602  0.00  0.00    +0.070 A 
ATOM     10  C   UNL     1      -1.699  -0.861   2.355  0.00  0.00    +0.163 A 
ATOM     11  O   UNL     1      -2.066  -0.169   1.242  0.00  0.00    -0.476 OA
ATOM     12 BR   UNL     1      -0.546  -3.290   6.167  0.00  0.00    -0.050 Br
ATOM     13  H   UNL     1      -1.203  -3.766   0.902  0.00  0.00    +0.155 HD
ENDROOT
BRANCH   9  14
ATOM     14  N   UNL     1      -2.071   1.102   3.716  0.00  0.00    -0.355 N 
ATOM     15  H   UNL     1      -2.079   1.530   4.587  0.00  0.00    +0.142 HD
ATOM     16  H   UNL     1      -2.313   1.609   2.925  0.00  0.00    +0.142 HD
ENDBRANCH   9  14
BRANCH   1  18
ATOM     17  C   UNL     1      -0.019   1.526   0.010  0.00  0.00    +0.008 C 
ATOM     18  C   UNL     1       0.002  -0.004   0.002  0.00  0.00    +0.051 C 
ENDBRANCH   1  18
TORSDOF 2
