REMARK  Name = ZINC36637465
REMARK  10 active torsions:
REMARK  status: ('A' for Active; 'I' for Inactive)
REMARK    1  A    between atoms: C_1  and  C_2
REMARK    2  A    between atoms: C_5  and  C_37
REMARK    3  A    between atoms: N_8  and  S_10
REMARK    4  A    between atoms: S_10  and  C_13
REMARK    5  A    between atoms: C_16  and  C_19
REMARK    6  A    between atoms: N_21  and  C_22
REMARK    7  A    between atoms: C_22  and  C_23
REMARK    8  A    between atoms: C_23  and  N_24
REMARK    9  A    between atoms: N_24  and  C_25
REMARK   10  A    between atoms: N_24  and  C_26
REMARK                            x       y       z     vdW  Elec       q    Type
REMARK                         _______ _______ _______ _____ _____    ______ ____
ROOT
ATOM      1  C   UNL     1       2.111   6.474   1.271  0.00  0.00    +0.252 C 
ATOM      2  O   UNL     1       2.985   7.115   0.721  0.00  0.00    -0.270 OA
ATOM      3  N   UNL     1       1.000   7.094   1.715  0.00  0.00    -0.248 N 
ATOM      4  C   UNL     1       0.790   8.432   1.426  0.00  0.00    +0.168 A 
ATOM      5  N   UNL     1      -0.216   9.201   1.772  0.00  0.00    -0.221 NA
ATOM      6  C   UNL     1      -0.290  10.502   1.416  0.00  0.00    +0.115 A 
ATOM      7  C   UNL     1      -1.311  11.435   1.720  0.00  0.00    +0.150 A 
ATOM      8  C   UNL     1      -1.231  12.731   1.276  0.00  0.00    +0.040 A 
ATOM      9  C   UNL     1      -0.156  13.172   0.518  0.00  0.00    +0.004 A 
ATOM     10  C   UNL     1       0.859  12.287   0.203  0.00  0.00    +0.017 A 
ATOM     11  C   UNL     1       0.788  10.989   0.643  0.00  0.00    +0.044 A 
ATOM     12  S   UNL     1       1.824   9.553   0.494  0.00  0.00    -0.052 S 
ATOM     13  F   UNL     1      -2.376  11.044   2.454  0.00  0.00    -0.203 F 
ENDROOT
BRANCH   1  17
ATOM     14  C   UNL     1       2.558   2.283   1.790  0.00  0.00    +0.106 A 
ATOM     15  C   UNL     1       3.104   2.901   0.680  0.00  0.00    +0.029 A 
ATOM     16  C   UNL     1       2.963   4.262   0.505  0.00  0.00    +0.015 A 
ATOM     17  C   UNL     1       2.266   5.016   1.451  0.00  0.00    +0.037 A 
ATOM     18  C   UNL     1       1.717   4.385   2.570  0.00  0.00    +0.015 A 
ATOM     19  C   UNL     1       1.862   3.023   2.730  0.00  0.00    +0.029 A 
BRANCH  14  20
ATOM     20  S   UNL     1       2.744   0.544   2.006  0.00  0.00    +0.061 S 
ATOM     21  O   UNL     1       2.607   0.290   3.397  0.00  0.00    -0.153 OA
ATOM     22  O   UNL     1       3.901   0.165   1.273  0.00  0.00    -0.153 OA
BRANCH  20  28
ATOM     23  C   UNL     1      -0.819   1.688   1.214  0.00  0.00    +0.009 C 
ATOM     24  C   UNL     1      -0.961   0.165   1.237  0.00  0.00    +0.002 C 
ATOM     25  C   UNL     1      -0.961  -0.369  -0.197  0.00  0.00    +0.009 C 
ATOM     26  C   UNL     1       0.338   0.040  -0.896  0.00  0.00    +0.002 C 
ATOM     27  C   UNL     1       1.528  -0.574  -0.151  0.00  0.00    +0.112 C 
ATOM     28  N   UNL     1       1.454  -0.182   1.263  0.00  0.00    -0.176 NA
ATOM     29  C   UNL     1       0.214  -0.447   2.006  0.00  0.00    +0.112 C 
ATOM     30  C   UNL     1       0.323  -0.466  -2.340  0.00  0.00    +0.009 C 
ENDBRANCH  20  28
ENDBRANCH  14  20
ENDBRANCH   1  17
BRANCH   3  31
ATOM     31  C   UNL     1       0.013   6.352   2.504  0.00  0.00    +0.097 C 
BRANCH  31  32
ATOM     32  C   UNL     1       0.160   6.721   3.982  0.00  0.00    -0.060 C 
BRANCH  32  33
ATOM     33  N   UNL     1      -0.909   6.076   4.756  0.00  0.00    +0.377 N 
ATOM     34  C   UNL     1      -0.739   4.618   4.705  0.00  0.00    -0.097 C 
ATOM     35  C   UNL     1      -0.843   6.528   6.152  0.00  0.00    -0.097 C 
ATOM     36  H   UNL     1      -1.805   6.324   4.364  0.00  0.00    -0.083 HD
ENDBRANCH  32  33
ENDBRANCH  31  32
ENDBRANCH   3  31
TORSDOF 6
