REMARK  Name = ZINC36764982
REMARK  4 active torsions:
REMARK  status: ('A' for Active; 'I' for Inactive)
REMARK    1  A    between atoms: C_6  and  C_11
REMARK    2  A    between atoms: C_11  and  C_13
REMARK    3  A    between atoms: C_11  and  N_22
REMARK    4  A    between atoms: C_15  and  C_18
REMARK                            x       y       z     vdW  Elec       q    Type
REMARK                         _______ _______ _______ _____ _____    ______ ____
ROOT
ATOM      1  C   UNL     1       5.008  -2.700  -0.060  0.00  0.00    +0.029 C 
ENDROOT
BRANCH   1   7
ATOM      2  C   UNL     1      -0.016   1.357   0.009  0.00  0.00    +0.001 A 
ATOM      3  C   UNL     1       1.169   2.091   0.002  0.00  0.00    +0.001 A 
ATOM      4  C   UNL     1       2.378   1.468  -0.013  0.00  0.00    +0.008 A 
ATOM      5  C   UNL     1       2.438   0.063  -0.021  0.00  0.00    -0.018 A 
ATOM      6  C   UNL     1       3.668  -0.615  -0.036  0.00  0.00    +0.011 A 
ATOM      7  C   UNL     1       3.687  -1.976  -0.043  0.00  0.00    -0.054 A 
ATOM      8  C   UNL     1       2.502  -2.710  -0.036  0.00  0.00    +0.003 A 
ATOM      9  C   UNL     1       1.292  -2.087  -0.021  0.00  0.00    +0.009 A 
ATOM     10  C   UNL     1       1.233  -0.683  -0.013  0.00  0.00    -0.018 A 
ATOM     11  C   UNL     1       0.002  -0.004   0.002  0.00  0.00    +0.008 A 
ENDBRANCH   1   7
BRANCH   1  12
ATOM     12  C   UNL     1       5.316  -3.151  -1.465  0.00  0.00    +0.162 A 
ATOM     13  N   UNL     1       6.216  -2.592  -2.281  0.00  0.00    -0.190 NA
ATOM     14  C   UNL     1       6.236  -3.221  -3.424  0.00  0.00    +0.332 A 
ATOM     15  O   UNL     1       5.338  -4.213  -3.372  0.00  0.00    -0.329 OA
ATOM     16  N   UNL     1       4.753  -4.152  -2.079  0.00  0.00    -0.062 NA
BRANCH  14  17
ATOM     17  C   UNL     1       7.117  -2.889  -4.600  0.00  0.00    +0.472 C 
ATOM     18  F   UNL     1       8.317  -3.600  -4.499  0.00  0.00    -0.162 F 
ATOM     19  F   UNL     1       6.465  -3.241  -5.786  0.00  0.00    -0.162 F 
ATOM     20  F   UNL     1       7.388  -1.516  -4.606  0.00  0.00    -0.162 F 
ENDBRANCH  14  17
ENDBRANCH   1  12
BRANCH   1  21
ATOM     21  N   UNL     1       4.936  -3.871   0.825  0.00  0.00    +0.387 N 
ATOM     22  H   UNL     1       4.208  -4.491   0.504  0.00  0.00    -0.089 HD
ATOM     23  H   UNL     1       5.821  -4.356   0.814  0.00  0.00    -0.089 HD
ATOM     24  H   UNL     1       4.730  -3.569   1.765  0.00  0.00    -0.089 HD
ENDBRANCH   1  21
TORSDOF 4
