REMARK  Name = ZINC64427677
REMARK  8 active torsions:
REMARK  status: ('A' for Active; 'I' for Inactive)
REMARK    1  A    between atoms: C_1  and  C_2
REMARK    2  A    between atoms: C_2  and  N_3
REMARK    3  A    between atoms: N_3  and  S_4
REMARK    4  A    between atoms: S_4  and  C_7
REMARK    5  A    between atoms: C_10  and  C_13
REMARK    6  A    between atoms: C_14  and  C_15
REMARK    7  A    between atoms: N_17  and  N_18
REMARK    8  A    between atoms: N_21  and  C_22
REMARK                            x       y       z     vdW  Elec       q    Type
REMARK                         _______ _______ _______ _____ _____    ______ ____
ROOT
ATOM      1  C   UNL     1       0.889  -5.453   3.903  0.00  0.00    +0.013 C 
ATOM      2  C   UNL     1       0.189  -5.796   5.002  0.00  0.00    +0.069 C 
ENDROOT
BRANCH   1   6
ATOM      3  C   UNL     1      -0.921  -3.081   0.888  0.00  0.00    +0.105 A 
ATOM      4  C   UNL     1       0.389  -3.501   0.739  0.00  0.00    +0.029 A 
ATOM      5  C   UNL     1       0.984  -4.272   1.714  0.00  0.00    +0.010 A 
ATOM      6  C   UNL     1       0.261  -4.630   2.857  0.00  0.00    -0.025 A 
ATOM      7  C   UNL     1      -1.062  -4.201   3.000  0.00  0.00    +0.010 A 
ATOM      8  C   UNL     1      -1.642  -3.425   2.018  0.00  0.00    +0.029 A 
BRANCH   3   9
ATOM      9  S   UNL     1      -1.673  -2.095  -0.364  0.00  0.00    +0.058 S 
ATOM     10  O   UNL     1      -3.076  -2.283  -0.241  0.00  0.00    -0.153 OA
ATOM     11  O   UNL     1      -0.972  -2.366  -1.570  0.00  0.00    -0.153 OA
BRANCH   9  12
ATOM     12  N   UNL     1      -1.372  -0.511   0.012  0.00  0.00    -0.190 NA
ATOM     13  H   UNL     1      -2.106   0.081   0.240  0.00  0.00    +0.148 HD
BRANCH  12  15
ATOM     14  C   UNL     1      -0.019   1.526   0.010  0.00  0.00    +0.022 C 
ATOM     15  C   UNL     1       0.002  -0.004   0.002  0.00  0.00    +0.102 C 
ENDBRANCH  12  15
ENDBRANCH   9  12
ENDBRANCH   3   9
ENDBRANCH   1   6
BRANCH   2  16
ATOM     16  C   UNL     1       0.813  -6.615   6.043  0.00  0.00    +0.253 C 
ATOM     17  O   UNL     1       1.965  -6.987   5.915  0.00  0.00    -0.269 OA
ATOM     18  N   UNL     1       0.113  -6.957   7.142  0.00  0.00    -0.230 N 
ATOM     19  H   UNL     1      -0.805  -6.661   7.244  0.00  0.00    +0.173 HD
BRANCH  18  20
ATOM     20  N   UNL     1       0.711  -7.741   8.138  0.00  0.00    -0.218 N 
ATOM     21  C   UNL     1       0.010  -8.083   9.237  0.00  0.00    +0.316 C 
ATOM     22  O   UNL     1       0.529  -8.764  10.101  0.00  0.00    -0.251 OA
ATOM     23  N   UNL     1      -1.265  -7.671   9.379  0.00  0.00    -0.295 N 
ATOM     24  H   UNL     1       1.629  -8.037   8.036  0.00  0.00    +0.174 HD
ATOM     25  H   UNL     1      -1.679  -7.129   8.690  0.00  0.00    +0.151 HD
BRANCH  23  26
ATOM     26  C   UNL     1      -2.026  -8.044  10.574  0.00  0.00    +0.075 C 
ATOM     27  C   UNL     1      -3.471  -8.508  10.375  0.00  0.00    +0.024 C 
ATOM     28  C   UNL     1      -3.186  -7.134  10.985  0.00  0.00    +0.024 C 
ENDBRANCH  23  26
ENDBRANCH  18  20
ENDBRANCH   2  16
TORSDOF 7
