REMARK  Name = ZINC06007235
REMARK  8 active torsions:
REMARK  status: ('A' for Active; 'I' for Inactive)
REMARK    1  A    between atoms: C_1  and  O_2
REMARK    2  A    between atoms: O_2  and  C_3
REMARK    3  A    between atoms: C_6  and  C_11
REMARK    4  A    between atoms: C_8  and  O_9
REMARK    5  A    between atoms: O_9  and  C_10
REMARK    6  A    between atoms: N_17  and  N_18
REMARK    7  A    between atoms: C_19  and  C_20
REMARK    8  A    between atoms: C_29  and  O_30
REMARK                            x       y       z     vdW  Elec       q    Type
REMARK                         _______ _______ _______ _____ _____    ______ ____
ROOT
ATOM      1  C   UNL     1      -3.277   8.478  -1.045  0.00  0.00    +0.184 A 
ATOM      2  N   UNL     1      -4.350   9.101  -0.643  0.00  0.00    -0.152 NA
ATOM      3  N   UNL     1      -4.352   9.103   0.759  0.00  0.00    -0.253 N 
ATOM      4  H   UNL     1      -5.027   9.499   1.331  0.00  0.00    +0.191 HD
ATOM      5  C   UNL     1      -3.243   8.453   1.167  0.00  0.00    +0.197 A 
ATOM      6  S   UNL     1      -2.772   8.178   2.790  0.00  0.00    -0.010 S 
ATOM      7  N   UNL     1      -2.572   8.058   0.066  0.00  0.00    -0.188 N 
ENDROOT
BRANCH   1  11
ATOM      8  C   UNL     1      -2.143   7.831  -5.093  0.00  0.00    +0.162 A 
ATOM      9  C   UNL     1      -1.534   7.109  -4.078  0.00  0.00    +0.050 A 
ATOM     10  C   UNL     1      -1.899   7.316  -2.764  0.00  0.00    +0.015 A 
ATOM     11  C   UNL     1      -2.884   8.255  -2.453  0.00  0.00    +0.025 A 
ATOM     12  C   UNL     1      -3.501   8.978  -3.475  0.00  0.00    +0.061 A 
ATOM     13  C   UNL     1      -3.127   8.769  -4.789  0.00  0.00    +0.162 A 
BRANCH   8  15
ATOM     14  C   UNL     1      -0.765   6.646  -6.626  0.00  0.00    +0.277 C 
ATOM     15  O   UNL     1      -1.780   7.623  -6.386  0.00  0.00    -0.491 OA
ENDBRANCH   8  15
BRANCH  13  16
ATOM     16  O   UNL     1      -3.724   9.476  -5.787  0.00  0.00    -0.491 OA
ATOM     17  C   UNL     1      -4.725  10.421  -5.403  0.00  0.00    +0.277 C 
ENDBRANCH  13  16
ENDBRANCH   1  11
BRANCH   7  18
ATOM     18  N   UNL     1      -1.363   7.350   0.052  0.00  0.00    -0.170 NA
ATOM     19  C   UNL     1      -1.372   6.050   0.045  0.00  0.00    +0.145 C 
BRANCH  19  20
ATOM     20  C   UNL     1      -0.104   5.307   0.030  0.00  0.00    +0.044 A 
ATOM     21  C   UNL     1      -0.096   3.845   0.023  0.00  0.00    -0.006 A 
ATOM     22  C   UNL     1      -1.286   3.107   0.030  0.00  0.00    +0.009 A 
ATOM     23  C   UNL     1      -1.234   1.745   0.017  0.00  0.00    +0.001 A 
ATOM     24  C   UNL     1      -0.013   1.076   0.008  0.00  0.00    +0.001 A 
ATOM     25  C   UNL     1       1.163   1.762   0.000  0.00  0.00    +0.008 A 
ATOM     26  C   UNL     1       1.148   3.168   0.008  0.00  0.00    -0.017 A 
ATOM     27  C   UNL     1       2.342   3.910   0.001  0.00  0.00    +0.012 A 
ATOM     28  C   UNL     1       2.316   5.269   0.007  0.00  0.00    +0.046 A 
ATOM     29  C   UNL     1       1.117   5.981   0.022  0.00  0.00    +0.126 A 
BRANCH  29  30
ATOM     30  O   UNL     1       1.138   7.338   0.029  0.00  0.00    -0.506 OA
ATOM     31  H   UNL     1       1.153   7.727   0.915  0.00  0.00    +0.292 HD
ENDBRANCH  29  30
ENDBRANCH  19  20
ENDBRANCH   7  18
TORSDOF 6
