REMARK  Name = ZINC24952562
REMARK  5 active torsions:
REMARK  status: ('A' for Active; 'I' for Inactive)
REMARK    1  A    between atoms: C_6  and  C_7
REMARK    2  A    between atoms: N_12  and  C_13
REMARK    3  A    between atoms: C_13  and  C_15
REMARK    4  A    between atoms: C_15  and  N_16
REMARK    5  A    between atoms: C_22  and  C_24
REMARK                            x       y       z     vdW  Elec       q    Type
REMARK                         _______ _______ _______ _____ _____    ______ ____
ROOT
ATOM      1  C   UNL     1      -3.965  -4.537   0.025  0.00  0.00    +0.252 C 
ATOM      2  O   UNL     1      -4.895  -3.753   0.032  0.00  0.00    -0.272 OA
ENDROOT
BRANCH   1   8
ATOM      3  C   UNL     1      -1.267  -0.764   0.011  0.00  0.00    +0.055 A 
ATOM      4  C   UNL     1      -2.466  -0.139   0.020  0.00  0.00    +0.074 A 
ATOM      5  S   UNL     1      -3.600  -1.515   0.026  0.00  0.00    -0.060 S 
ATOM      6  C   UNL     1      -2.483  -2.771   0.016  0.00  0.00    +0.163 A 
ATOM      7  N   UNL     1      -1.284  -2.130   0.003  0.00  0.00    -0.335 N 
ATOM      8  N   UNL     1      -2.717  -4.085   0.017  0.00  0.00    -0.155 NA
ATOM      9  H   UNL     1      -0.455  -2.634  -0.007  0.00  0.00    +0.168 HD
BRANCH   3  15
ATOM     10  C   UNL     1      -0.017   1.391   0.010  0.00  0.00    +0.013 A 
ATOM     11  C   UNL     1       1.170   2.095   0.002  0.00  0.00    +0.039 A 
ATOM     12  C   UNL     1       2.379   1.418  -0.013  0.00  0.00    +0.123 A 
ATOM     13  C   UNL     1       2.403   0.033  -0.021  0.00  0.00    +0.039 A 
ATOM     14  C   UNL     1       1.222  -0.680  -0.014  0.00  0.00    +0.013 A 
ATOM     15  C   UNL     1       0.002  -0.004   0.002  0.00  0.00    -0.001 A 
ATOM     16  F   UNL     1       3.538   2.112  -0.022  0.00  0.00    -0.205 F 
ENDBRANCH   3  15
ENDBRANCH   1   8
BRANCH   1  17
ATOM     17  C   UNL     1      -4.229  -6.020   0.025  0.00  0.00    +0.182 C 
BRANCH  17  18
ATOM     18  N   UNL     1      -5.679  -6.259   0.035  0.00  0.00    -0.291 NA
ATOM     19  C   UNL     1      -6.281  -5.790   1.290  0.00  0.00    +0.104 C 
ATOM     20  C   UNL     1      -7.807  -5.889   1.188  0.00  0.00    +0.123 C 
ATOM     21  N   UNL     1      -8.161  -7.264   0.805  0.00  0.00    -0.297 N 
ATOM     22  C   UNL     1      -7.493  -7.854  -0.365  0.00  0.00    +0.123 C 
ATOM     23  C   UNL     1      -5.980  -7.677  -0.203  0.00  0.00    +0.104 C 
ATOM     24  C   UNL     1      -9.073  -7.965   1.507  0.00  0.00    +0.245 C 
ATOM     25  O   UNL     1      -9.614  -7.463   2.469  0.00  0.00    -0.273 OA
BRANCH  24  26
ATOM     26  C   UNL     1      -9.421  -9.373   1.097  0.00  0.00    +0.204 C 
ATOM     27  C   UNL     1     -10.103  -9.361  -0.288  0.00  0.00    +0.043 C 
ATOM     28  C   UNL     1     -11.205 -10.443  -0.122  0.00  0.00    +0.031 C 
ATOM     29  C   UNL     1     -11.584 -10.250   1.368  0.00  0.00    +0.161 C 
ATOM     30  O   UNL     1     -10.347  -9.937   2.033  0.00  0.00    -0.367 OA
ENDBRANCH  24  26
ENDBRANCH  17  18
ENDBRANCH   1  17
TORSDOF 5
