REMARK  Name = ZINC13647406
REMARK  2 active torsions:
REMARK  status: ('A' for Active; 'I' for Inactive)
REMARK    1  A    between atoms: C_9  and  N_11
REMARK    2  A    between atoms: N_11  and  N_12
REMARK                            x       y       z     vdW  Elec       q    Type
REMARK                         _______ _______ _______ _____ _____    ______ ____
ROOT
ATOM      1  N   UNL     1       4.918  -2.515  -0.058  0.00  0.00    -0.220 N 
ATOM      2  H   UNL     1       4.977  -3.483  -0.063  0.00  0.00    +0.176 HD
ENDROOT
BRANCH   1   3
ATOM      3  N   UNL     1       5.994  -1.803  -0.064  0.00  0.00    -0.176 NA
ATOM      4  C   UNL     1       7.169  -2.389  -0.078  0.00  0.00    +0.152 C 
ATOM      5  C   UNL     1       8.501  -1.740  -0.082  0.00  0.00    +0.028 A 
ATOM      6  C   UNL     1       8.913  -0.413  -0.072  0.00  0.00    +0.012 A 
ATOM      7  C   UNL     1      10.261  -0.115  -0.078  0.00  0.00    +0.001 A 
ATOM      8  C   UNL     1      11.197  -1.135  -0.095  0.00  0.00    +0.002 A 
ATOM      9  C   UNL     1      10.798  -2.455  -0.105  0.00  0.00    +0.024 A 
ATOM     10  C   UNL     1       9.444  -2.775  -0.098  0.00  0.00    +0.043 A 
ATOM     11  N   UNL     1       8.784  -3.999  -0.105  0.00  0.00    -0.280 N 
ATOM     12  C   UNL     1       7.450  -3.836  -0.088  0.00  0.00    +0.269 C 
ATOM     13  O   UNL     1       6.620  -4.727  -0.084  0.00  0.00    -0.268 OA
ATOM     14  H   UNL     1       9.229  -4.860  -0.117  0.00  0.00    +0.155 HD
ENDBRANCH   1   3
BRANCH   1  23
ATOM     15  C   UNL     1      -0.016   1.358   0.009  0.00  0.00    +0.001 A 
ATOM     16  C   UNL     1       1.170   2.089   0.002  0.00  0.00    +0.002 A 
ATOM     17  C   UNL     1       2.379   1.464  -0.013  0.00  0.00    +0.028 A 
ATOM     18  C   UNL     1       2.439   0.060  -0.021  0.00  0.00    +0.073 A 
ATOM     19  C   UNL     1       1.231  -0.682  -0.013  0.00  0.00    +0.001 A 
ATOM     20  C   UNL     1       0.002  -0.004   0.002  0.00  0.00    +0.010 A 
ATOM     21  C   UNL     1       1.290  -2.090  -0.021  0.00  0.00    +0.013 A 
ATOM     22  C   UNL     1       2.517  -2.684  -0.036  0.00  0.00    +0.046 A 
ATOM     23  C   UNL     1       3.675  -1.895  -0.043  0.00  0.00    +0.139 A 
ATOM     24  N   UNL     1       3.613  -0.579  -0.035  0.00  0.00    -0.231 NA
ENDBRANCH   1  23
TORSDOF 2
