REMARK  Name = ZINC17578099
REMARK  4 active torsions:
REMARK  status: ('A' for Active; 'I' for Inactive)
REMARK    1  A    between atoms: C_1  and  C_2
REMARK    2  A    between atoms: C_2  and  C_4
REMARK    3  A    between atoms: C_2  and  N_11
REMARK    4  A    between atoms: C_12  and  C_14
REMARK                            x       y       z     vdW  Elec       q    Type
REMARK                         _______ _______ _______ _____ _____    ______ ____
ROOT
ATOM      1  N   UNL     1       0.711  -0.489   1.189  0.00  0.00    -0.306 N 
ATOM      2  C   UNL     1       0.051  -0.633   2.355  0.00  0.00    +0.248 C 
ATOM      3  O   UNL     1      -1.129  -0.361   2.423  0.00  0.00    -0.272 OA
ATOM      4  H   UNL     1       1.654  -0.707   1.135  0.00  0.00    +0.149 HD
ENDROOT
BRANCH   2   5
ATOM      5  C   UNL     1       0.780  -1.133   3.576  0.00  0.00    +0.169 C 
ATOM      6  C   UNL     1       2.009  -0.284   3.935  0.00  0.00    +0.056 C 
ATOM      7  C   UNL     1       1.357   0.765   4.872  0.00  0.00    +0.100 C 
ATOM      8  C   UNL     1       0.154   0.053   5.449  0.00  0.00    +0.221 C 
ATOM      9  O   UNL     1      -0.533   0.476   6.355  0.00  0.00    -0.275 OA
ATOM     10  N   UNL     1      -0.048  -1.127   4.807  0.00  0.00    -0.246 N 
ATOM     11  C   UNL     1      -0.732  -2.339   5.030  0.00  0.00    +0.052 A 
ATOM     12  C   UNL     1      -1.885  -2.501   5.813  0.00  0.00    +0.025 A 
ATOM     13  C   UNL     1      -2.465  -3.739   5.971  0.00  0.00    +0.002 A 
ATOM     14  C   UNL     1      -1.932  -4.862   5.366  0.00  0.00    +0.001 A 
ATOM     15  C   UNL     1      -0.797  -4.730   4.582  0.00  0.00    +0.016 A 
ATOM     16  C   UNL     1      -0.222  -3.492   4.421  0.00  0.00    +0.032 A 
ATOM     17  S   UNL     1       1.191  -2.920   3.497  0.00  0.00    -0.088 S 
ENDBRANCH   2   5
BRANCH   1  19
ATOM     18  C   UNL     1      -0.019   1.526   0.010  0.00  0.00    +0.033 C 
ATOM     19  C   UNL     1       0.002  -0.004   0.002  0.00  0.00    +0.100 C 
BRANCH  19  20
ATOM     20  C   UNL     1       0.707  -0.490  -1.238  0.00  0.00    -0.027 A 
ATOM     21  C   UNL     1       2.089  -0.511  -1.284  0.00  0.00    +0.007 A 
ATOM     22  C   UNL     1       2.736  -0.956  -2.421  0.00  0.00    +0.020 A 
ATOM     23  C   UNL     1       2.002  -1.382  -3.513  0.00  0.00    +0.041 A 
ATOM     24  C   UNL     1       0.619  -1.361  -3.466  0.00  0.00    +0.020 A 
ATOM     25  C   UNL     1      -0.027  -0.920  -2.327  0.00  0.00    +0.007 A 
ATOM     26 CL   UNL     1       2.814  -1.941  -4.941  0.00  0.00    -0.084 Cl
ENDBRANCH  19  20
ENDBRANCH   1  19
TORSDOF 3
