REMARK  Name = ZINC09345429
REMARK  8 active torsions:
REMARK  status: ('A' for Active; 'I' for Inactive)
REMARK    1  A    between atoms: C_1  and  O_2
REMARK    2  A    between atoms: O_2  and  C_3
REMARK    3  A    between atoms: C_6  and  C_11
REMARK    4  A    between atoms: C_8  and  O_9
REMARK    5  A    between atoms: O_9  and  C_10
REMARK    6  A    between atoms: C_22  and  C_24
REMARK    7  A    between atoms: C_34  and  S_36
REMARK    8  A    between atoms: S_36  and  C_37
REMARK                            x       y       z     vdW  Elec       q    Type
REMARK                         _______ _______ _______ _____ _____    ______ ____
ROOT
ATOM      1  C   UNL     1      -4.987  -2.627   0.035  0.00  0.00    +0.159 C 
ATOM      2  C   UNL     1      -5.495  -2.691  -1.388  0.00  0.00    +0.025 C 
ATOM      3  C   UNL     1      -6.689  -2.127  -1.662  0.00  0.00    +0.058 C 
ATOM      4  C   UNL     1      -7.179  -2.207  -3.062  0.00  0.00    +0.040 A 
ATOM      5  C   UNL     1      -8.216  -1.402  -3.514  0.00  0.00    +0.013 A 
ATOM      6  C   UNL     1      -8.640  -1.508  -4.825  0.00  0.00    +0.001 A 
ATOM      7  C   UNL     1      -8.035  -2.412  -5.682  0.00  0.00    +0.004 A 
ATOM      8  C   UNL     1      -7.003  -3.218  -5.238  0.00  0.00    +0.046 A 
ATOM      9  C   UNL     1      -6.569  -3.123  -3.928  0.00  0.00    +0.131 A 
ATOM     10  O   UNL     1      -5.563  -3.907  -3.464  0.00  0.00    -0.479 OA
ATOM     11  C   UNL     1      -4.696  -3.354  -2.472  0.00  0.00    +0.234 C 
ATOM     12  N   UNL     1      -7.420  -1.511  -0.701  0.00  0.00    -0.326 N 
ATOM     13  C   UNL     1      -7.053  -1.409   0.559  0.00  0.00    +0.216 C 
ATOM     14  N   UNL     1      -5.858  -1.938   0.996  0.00  0.00    -0.209 N 
ATOM     15  N   UNL     1      -5.771  -1.663   2.362  0.00  0.00    -0.239 N 
ATOM     16  C   UNL     1      -6.911  -0.977   2.690  0.00  0.00    +0.174 C 
ATOM     17  N   UNL     1      -7.652  -0.840   1.621  0.00  0.00    -0.192 NA
ATOM     18  H   UNL     1      -8.268  -1.118  -0.959  0.00  0.00    +0.169 HD
ATOM     19  H   UNL     1      -5.048  -1.908   2.960  0.00  0.00    +0.172 HD
ENDROOT
BRANCH   1  23
ATOM     20  C   UNL     1      -1.201  -0.638   0.010  0.00  0.00    +0.162 A 
ATOM     21  C   UNL     1      -2.374   0.099   0.019  0.00  0.00    +0.050 A 
ATOM     22  C   UNL     1      -3.596  -0.546   0.027  0.00  0.00    +0.009 A 
ATOM     23  C   UNL     1      -3.652  -1.928   0.026  0.00  0.00    -0.017 A 
ATOM     24  C   UNL     1      -2.485  -2.669   0.017  0.00  0.00    +0.055 A 
ATOM     25  C   UNL     1      -1.257  -2.028   0.003  0.00  0.00    +0.162 A 
BRANCH  20  27
ATOM     26  C   UNL     1      -0.017   1.425   0.010  0.00  0.00    +0.277 C 
ATOM     27  O   UNL     1       0.002  -0.004   0.002  0.00  0.00    -0.491 OA
ENDBRANCH  20  27
BRANCH  25  28
ATOM     28  O   UNL     1      -0.108  -2.756  -0.012  0.00  0.00    -0.491 OA
ATOM     29  C   UNL     1      -0.242  -4.179  -0.018  0.00  0.00    +0.277 C 
ENDBRANCH  25  28
ENDBRANCH   1  23
BRANCH  11  30
ATOM     30  C   UNL     1      -3.789  -2.336  -3.115  0.00  0.00    -0.003 A 
ATOM     31  C   UNL     1      -4.292  -1.460  -4.058  0.00  0.00    +0.007 A 
ATOM     32  C   UNL     1      -3.460  -0.527  -4.648  0.00  0.00    +0.000 A 
ATOM     33  C   UNL     1      -2.125  -0.469  -4.293  0.00  0.00    +0.000 A 
ATOM     34  C   UNL     1      -1.622  -1.345  -3.349  0.00  0.00    +0.000 A 
ATOM     35  C   UNL     1      -2.455  -2.275  -2.756  0.00  0.00    +0.007 A 
ENDBRANCH  11  30
BRANCH  16  36
ATOM     36  S   UNL     1      -7.317  -0.379   4.297  0.00  0.00    -0.092 S 
ATOM     37  C   UNL     1      -8.927   0.427   4.072  0.00  0.00    +0.093 C 
ENDBRANCH  16  36
TORSDOF 5
