REMARK  Name = ZINC13639773
REMARK  5 active torsions:
REMARK  status: ('A' for Active; 'I' for Inactive)
REMARK    1  A    between atoms: C_1  and  C_2
REMARK    2  A    between atoms: C_3  and  N_26
REMARK    3  A    between atoms: C_9  and  C_18
REMARK    4  A    between atoms: C_21  and  O_25
REMARK    5  A    between atoms: C_23  and  O_24
REMARK                            x       y       z     vdW  Elec       q    Type
REMARK                         _______ _______ _______ _____ _____    ______ ____
ROOT
ATOM      1  C   UNL     1       0.323   1.947   4.734  0.00  0.00    +0.048 C 
ATOM      2  C   UNL     1      -0.470   2.019   3.454  0.00  0.00    +0.001 A 
ATOM      3  C   UNL     1      -1.707   2.626   3.454  0.00  0.00    +0.131 A 
ATOM      4  C   UNL     1      -2.446   2.699   2.288  0.00  0.00    +0.033 A 
ATOM      5  C   UNL     1      -1.941   2.154   1.123  0.00  0.00    +0.008 A 
ATOM      6  C   UNL     1      -0.706   1.536   1.117  0.00  0.00    -0.019 A 
ATOM      7  C   UNL     1       0.057   1.469   2.284  0.00  0.00    +0.037 A 
ATOM      8  N   UNL     1       1.320   0.886   2.359  0.00  0.00    -0.336 N 
ATOM      9  C   UNL     1       1.824   0.240   1.137  0.00  0.00    +0.108 C 
ATOM     10  C   UNL     1       1.402   1.107  -0.031  0.00  0.00    +0.029 C 
ATOM     11  C   UNL     1      -0.147   0.932  -0.112  0.00  0.00    +0.049 C 
ATOM     12  C   UNL     1      -0.473   1.452  -1.462  0.00  0.00    -0.023 C 
ATOM     13  C   UNL     1       0.581   1.272  -2.251  0.00  0.00    -0.030 C 
ATOM     14  C   UNL     1       1.725   0.639  -1.455  0.00  0.00    +0.033 C 
ATOM     15  H   UNL     1       1.997   1.536   2.730  0.00  0.00    +0.147 HD
ENDROOT
BRANCH   9  16
ATOM     16  C   UNL     1       3.327   0.144   1.189  0.00  0.00    +0.015 A 
ATOM     17  C   UNL     1       4.102   1.058   0.498  0.00  0.00    +0.012 A 
ATOM     18  C   UNL     1       5.480   0.972   0.544  0.00  0.00    +0.046 A 
ATOM     19  C   UNL     1       6.090  -0.031   1.284  0.00  0.00    +0.120 A 
ATOM     20  C   UNL     1       5.315  -0.948   1.977  0.00  0.00    +0.091 A 
ATOM     21  C   UNL     1       3.933  -0.857   1.934  0.00  0.00    +0.125 A 
BRANCH  21  22
ATOM     22  O   UNL     1       3.171  -1.751   2.617  0.00  0.00    -0.506 OA
ATOM     23  H   UNL     1       3.005  -2.574   2.137  0.00  0.00    +0.292 HD
ENDBRANCH  21  22
BRANCH  19  24
ATOM     24  O   UNL     1       7.446  -0.114   1.329  0.00  0.00    -0.507 OA
ATOM     25  H   UNL     1       7.846   0.390   2.051  0.00  0.00    +0.292 HD
ENDBRANCH  19  24
ENDBRANCH   9  16
BRANCH   3  26
ATOM     26  N   UNL     1      -2.246   3.201   4.706  0.00  0.00    +0.057 N 
ATOM     27  O   UNL     1      -3.434   3.106   4.958  0.00  0.00    -0.126 OA
ATOM     28  O   UNL     1      -1.502   3.769   5.485  0.00  0.00    -0.126 OA
ENDBRANCH   3  26
TORSDOF 4
