REMARK  Name = ZINC20288299
REMARK  7 active torsions:
REMARK  status: ('A' for Active; 'I' for Inactive)
REMARK    1  A    between atoms: C_1  and  C_2
REMARK    2  A    between atoms: C_2  and  N_24
REMARK    3  A    between atoms: C_4  and  C_18
REMARK    4  A    between atoms: N_6  and  C_9
REMARK    5  A    between atoms: C_12  and  N_15
REMARK    6  A    between atoms: N_24  and  C_25
REMARK    7  A    between atoms: C_30  and  C_31
REMARK                            x       y       z     vdW  Elec       q    Type
REMARK                         _______ _______ _______ _____ _____    ______ ____
ROOT
ATOM      1  C   UNL     1       0.670   1.575  -0.324  0.00  0.00    +0.061 C 
ATOM      2  C   UNL     1       0.234   0.142  -0.155  0.00  0.00    +0.019 C 
ATOM      3  C   UNL     1       0.167  -0.416   1.108  0.00  0.00    +0.083 C 
ATOM      4  C   UNL     1       0.351   0.274   2.400  0.00  0.00    +0.103 C 
ATOM      5  N   UNL     1       0.204  -0.623   3.341  0.00  0.00    -0.171 NA
ATOM      6  N   UNL     1      -0.068  -1.871   2.778  0.00  0.00    -0.156 N 
ATOM      7  C   UNL     1      -0.101  -1.774   1.435  0.00  0.00    +0.274 C 
ATOM      8  O   UNL     1      -0.317  -2.681   0.648  0.00  0.00    -0.268 OA
ENDROOT
BRANCH   6   9
ATOM      9  C   UNL     1      -0.280  -3.049   3.503  0.00  0.00    +0.060 A 
ATOM     10  C   UNL     1      -0.537  -4.240   2.837  0.00  0.00    +0.028 A 
ATOM     11  C   UNL     1      -0.745  -5.401   3.555  0.00  0.00    +0.034 A 
ATOM     12  C   UNL     1      -0.699  -5.378   4.937  0.00  0.00    +0.126 A 
ATOM     13  C   UNL     1      -0.443  -4.194   5.604  0.00  0.00    +0.034 A 
ATOM     14  C   UNL     1      -0.228  -3.031   4.891  0.00  0.00    +0.028 A 
BRANCH  12  15
ATOM     15  N   UNL     1      -0.923  -6.624   5.705  0.00  0.00    +0.056 N 
ATOM     16  O   UNL     1      -1.147  -7.660   5.123  0.00  0.00    -0.126 OA
ATOM     17  O   UNL     1      -0.882  -6.606   6.913  0.00  0.00    -0.126 OA
ENDBRANCH  12  15
ENDBRANCH   6   9
BRANCH   4  18
ATOM     18  C   UNL     1       0.648   1.713   2.595  0.00  0.00    +0.003 A 
ATOM     19  C   UNL     1      -0.391   2.643   2.635  0.00  0.00    +0.010 A 
ATOM     20  C   UNL     1      -0.108   3.981   2.817  0.00  0.00    +0.001 A 
ATOM     21  C   UNL     1       1.202   4.401   2.958  0.00  0.00    +0.000 A 
ATOM     22  C   UNL     1       2.237   3.483   2.919  0.00  0.00    +0.001 A 
ATOM     23  C   UNL     1       1.967   2.142   2.743  0.00  0.00    +0.010 A 
ENDBRANCH   4  18
BRANCH   2  24
ATOM     24  N   UNL     1      -0.091  -0.597  -1.238  0.00  0.00    -0.317 N 
ATOM     25  H   UNL     1       0.418  -1.395  -1.451  0.00  0.00    +0.152 HD
BRANCH  24  26
ATOM     26  C   UNL     1      -1.159  -0.213  -2.050  0.00  0.00    +0.039 A 
ATOM     27  C   UNL     1      -1.982   0.838  -1.668  0.00  0.00    +0.024 A 
ATOM     28  C   UNL     1      -3.038   1.217  -2.473  0.00  0.00    +0.002 A 
ATOM     29  C   UNL     1      -3.283   0.553  -3.663  0.00  0.00    +0.001 A 
ATOM     30  C   UNL     1      -2.474  -0.493  -4.056  0.00  0.00    +0.010 A 
ATOM     31  C   UNL     1      -1.402  -0.882  -3.255  0.00  0.00    +0.003 A 
BRANCH  31  32
ATOM     32  C   UNL     1      -0.525  -2.002  -3.675  0.00  0.00    -0.016 A 
ATOM     33  C   UNL     1       0.860  -1.848  -3.665  0.00  0.00    +0.008 A 
ATOM     34  C   UNL     1       1.671  -2.894  -4.057  0.00  0.00    +0.001 A 
ATOM     35  C   UNL     1       1.111  -4.093  -4.459  0.00  0.00    +0.000 A 
ATOM     36  C   UNL     1      -0.264  -4.251  -4.471  0.00  0.00    +0.001 A 
ATOM     37  C   UNL     1      -1.084  -3.214  -4.076  0.00  0.00    +0.008 A 
ENDBRANCH  31  32
ENDBRANCH  24  26
ENDBRANCH   2  24
TORSDOF 6
