REMARK  Name = ZINC35511561
REMARK  6 active torsions:
REMARK  status: ('A' for Active; 'I' for Inactive)
REMARK    1  A    between atoms: C_1  and  C_2
REMARK    2  A    between atoms: C_5  and  C_8
REMARK    3  A    between atoms: C_14  and  C_20
REMARK    4  A    between atoms: C_20  and  C_22
REMARK    5  A    between atoms: C_25  and  C_29
REMARK    6  A    between atoms: C_26  and  C_28
REMARK                            x       y       z     vdW  Elec       q    Type
REMARK                         _______ _______ _______ _____ _____    ______ ____
ROOT
ATOM      1  C   UNL     1       0.060  -4.245  -0.021  0.00  0.00    +0.082 C 
ATOM      2  N   UNL     1       0.072  -5.028  -1.069  0.00  0.00    -0.151 NA
ATOM      3  N   UNL     1       0.148  -6.377  -0.719  0.00  0.00    -0.138 NA
ATOM      4  C   UNL     1       0.286  -6.537   0.551  0.00  0.00    +0.134 C 
ATOM      5  C   UNL     1       0.079  -5.161   1.176  0.00  0.00    +0.116 C 
ATOM      6  C   UNL     1       1.300  -4.928   2.070  0.00  0.00    +0.085 C 
ATOM      7  C   UNL     1       1.344  -6.041   3.120  0.00  0.00    +0.108 C 
ATOM      8  C   UNL     1       1.157  -7.404   2.527  0.00  0.00    +0.219 C 
ATOM      9  O   UNL     1       1.526  -8.362   3.173  0.00  0.00    -0.275 OA
ATOM     10  N   UNL     1       0.594  -7.629   1.322  0.00  0.00    -0.272 N 
ATOM     11  H   UNL     1       0.424  -8.531   1.006  0.00  0.00    +0.156 HD
ENDROOT
BRANCH   1  16
ATOM     12  C   UNL     1      -0.018   1.503   0.010  0.00  0.00    +0.044 C 
ATOM     13  C   UNL     1       0.002  -0.004   0.002  0.00  0.00    -0.050 A 
ATOM     14  C   UNL     1       0.006  -0.686  -1.202  0.00  0.00    +0.004 A 
ATOM     15  C   UNL     1       0.025  -2.064  -1.218  0.00  0.00    +0.010 A 
ATOM     16  C   UNL     1       0.041  -2.774  -0.013  0.00  0.00    -0.001 A 
ATOM     17  C   UNL     1       0.037  -2.078   1.200  0.00  0.00    +0.010 A 
ATOM     18  C   UNL     1       0.023  -0.699   1.199  0.00  0.00    +0.004 A 
ENDBRANCH   1  16
BRANCH   6  19
ATOM     19  C   UNL     1       2.555  -4.964   1.237  0.00  0.00    +0.168 C 
ATOM     20  O   UNL     1       2.571  -5.577   0.191  0.00  0.00    -0.292 OA
BRANCH  19  21
ATOM     21  C   UNL     1       3.761  -4.254   1.692  0.00  0.00    +0.018 A 
ATOM     22  C   UNL     1       3.748  -3.550   2.901  0.00  0.00    +0.011 A 
ATOM     23  C   UNL     1       4.882  -2.889   3.321  0.00  0.00    +0.004 A 
ATOM     24  C   UNL     1       6.032  -2.920   2.550  0.00  0.00    -0.047 A 
ATOM     25  C   UNL     1       6.052  -3.614   1.353  0.00  0.00    -0.047 A 
ATOM     26  C   UNL     1       4.927  -4.285   0.922  0.00  0.00    +0.015 A 
ATOM     27  C   UNL     1       7.308  -3.640   0.521  0.00  0.00    +0.044 C 
ATOM     28  C   UNL     1       7.267  -2.194   3.017  0.00  0.00    +0.044 C 
ENDBRANCH  19  21
ENDBRANCH   6  19
TORSDOF 3
