REMARK  Name = ZINC19220453
REMARK  6 active torsions:
REMARK  status: ('A' for Active; 'I' for Inactive)
REMARK    1  A    between atoms: C_1  and  C_2
REMARK    2  A    between atoms: C_8  and  C_28
REMARK    3  A    between atoms: C_9  and  C_11
REMARK    4  A    between atoms: N_13  and  C_14
REMARK    5  A    between atoms: C_14  and  C_15
REMARK    6  A    between atoms: C_19  and  C_21
REMARK                            x       y       z     vdW  Elec       q    Type
REMARK                         _______ _______ _______ _____ _____    ______ ____
ROOT
ATOM      1  C   UNL     1      -3.316   6.752  -1.553  0.00  0.00    +0.280 C 
ATOM      2  O   UNL     1      -3.982   7.165  -0.623  0.00  0.00    -0.267 OA
ATOM      3  N   UNL     1      -2.113   6.189  -1.322  0.00  0.00    -0.303 N 
ATOM      4  H   UNL     1      -1.510   5.815  -2.163  0.00  0.00    +0.149 HD
ENDROOT
BRANCH   1  13
ATOM      5  C   UNL     1      -6.839   7.839  -8.039  0.00  0.00    +0.044 C 
ATOM      6  C   UNL     1      -5.812   7.439  -7.011  0.00  0.00    -0.050 A 
ATOM      7  C   UNL     1      -4.634   6.827  -7.416  0.00  0.00    +0.007 A 
ATOM      8  C   UNL     1      -3.682   6.452  -6.493  0.00  0.00    +0.047 A 
ATOM      9  C   UNL     1      -3.898   6.688  -5.140  0.00  0.00    +0.136 A 
ATOM     10  C   UNL     1      -5.095   7.309  -4.735  0.00  0.00    +0.024 A 
ATOM     11  C   UNL     1      -6.047   7.681  -5.687  0.00  0.00    +0.015 A 
ATOM     12  C   UNL     1      -5.018   7.406  -3.278  0.00  0.00    +0.008 A 
ATOM     13  C   UNL     1      -3.822   6.865  -2.928  0.00  0.00    +0.193 A 
ATOM     14  O   UNL     1      -3.172   6.442  -4.032  0.00  0.00    -0.450 OA
ATOM     15  C   UNL     1      -6.054   7.991  -2.353  0.00  0.00    +0.048 C 
ENDBRANCH   1  13
BRANCH   3  16
ATOM     16  C   UNL     1      -1.608   6.077   0.049  0.00  0.00    +0.160 C 
BRANCH  16  17
ATOM     17  C   UNL     1      -0.253   5.417   0.032  0.00  0.00    +0.066 A 
ATOM     18  C   UNL     1       0.898   6.183   0.036  0.00  0.00    +0.095 A 
ATOM     19  C   UNL     1       2.131   5.532   0.021  0.00  0.00    +0.252 A 
ATOM     20  N   UNL     1       2.160   4.206   0.019  0.00  0.00    -0.306 N 
ATOM     21  C   UNL     1       1.034   3.506   0.020  0.00  0.00    +0.159 A 
ATOM     22  N   UNL     1      -0.152   4.097   0.024  0.00  0.00    -0.231 NA
ATOM     23  O   UNL     1       3.285   6.244   0.020  0.00  0.00    -0.268 OA
ATOM     24  H   UNL     1       3.130   3.687   0.016  0.00  0.00    +0.170 HD
BRANCH  21  25
ATOM     25  C   UNL     1       1.104   2.023   0.018  0.00  0.00    +0.106 A 
ATOM     26  C   UNL     1       2.345   1.391   0.008  0.00  0.00    +0.031 A 
ATOM     27  C   UNL     1       2.394   0.006   0.005  0.00  0.00    +0.004 A 
ATOM     28  C   UNL     1       1.199  -0.698   0.012  0.00  0.00    +0.020 A 
ATOM     29  C   UNL     1       0.002  -0.004   0.022  0.00  0.00    +0.111 A 
ATOM     30  N   UNL     1      -0.016   1.313   0.025  0.00  0.00    -0.252 NA
ENDBRANCH  21  25
ENDBRANCH  16  17
ENDBRANCH   3  16
TORSDOF 4
