REMARK  Name = ZINC35450984
REMARK  11 active torsions:
REMARK  status: ('A' for Active; 'I' for Inactive)
REMARK    1  A    between atoms: C_1  and  C_2
REMARK    2  A    between atoms: C_2  and  C_3
REMARK    3  A    between atoms: C_3  and  C_4
REMARK    4  A    between atoms: C_4  and  S_5
REMARK    5  A    between atoms: S_5  and  C_6
REMARK    6  A    between atoms: C_13  and  C_25
REMARK    7  A    between atoms: C_19  and  C_23
REMARK    8  A    between atoms: C_19  and  C_24
REMARK    9  A    between atoms: C_28  and  O_33
REMARK   10  A    between atoms: C_29  and  O_31
REMARK   11  A    between atoms: O_31  and  C_32
REMARK                            x       y       z     vdW  Elec       q    Type
REMARK                         _______ _______ _______ _____ _____    ______ ____
ROOT
ATOM      1  C   UNL     1      -2.923  -4.443   0.006  0.00  0.00    +0.171 A 
ATOM      2  N   UNL     1      -1.710  -4.959  -0.003  0.00  0.00    -0.208 NA
ATOM      3  C   UNL     1      -1.524  -6.284  -0.011  0.00  0.00    +0.135 A 
ATOM      4  C   UNL     1      -2.617  -7.133  -0.005  0.00  0.00    +0.069 A 
ATOM      5  C   UNL     1      -3.903  -6.579   0.002  0.00  0.00    +0.258 A 
ATOM      6  O   UNL     1      -4.889  -7.298   0.004  0.00  0.00    -0.267 OA
ATOM      7  N   UNL     1      -4.031  -5.235   0.012  0.00  0.00    -0.302 N 
ATOM      8  C   UNL     1      -2.433  -8.621  -0.003  0.00  0.00    +0.093 C 
ATOM      9  C   UNL     1      -1.040  -9.002  -0.435  0.00  0.00    +0.024 C 
ATOM     10  C   UNL     1      -0.034  -8.102  -0.428  0.00  0.00    +0.017 C 
ATOM     11  N   UNL     1      -0.248  -6.811  -0.027  0.00  0.00    -0.302 N 
ATOM     12  C   UNL     1       1.357  -8.489  -0.868  0.00  0.00    +0.058 C 
ATOM     13  C   UNL     1       1.606  -9.964  -0.548  0.00  0.00    -0.023 C 
ATOM     14  C   UNL     1       0.544 -10.801  -1.268  0.00  0.00    +0.086 C 
ATOM     15  C   UNL     1      -0.820 -10.330  -0.844  0.00  0.00    +0.162 C 
ATOM     16  O   UNL     1      -1.750 -11.111  -0.855  0.00  0.00    -0.292 OA
ATOM     17  C   UNL     1       2.999 -10.369  -1.035  0.00  0.00    +0.011 C 
ATOM     18  C   UNL     1       1.502 -10.189   0.962  0.00  0.00    +0.011 C 
ATOM     19  H   UNL     1       0.502  -6.263   0.248  0.00  0.00    +0.153 HD
ATOM     20  H   UNL     1      -4.913  -4.833   0.021  0.00  0.00    +0.171 HD
ENDROOT
BRANCH   8  21
ATOM     21  C   UNL     1      -2.677  -9.146   1.389  0.00  0.00    -0.032 A 
ATOM     22  C   UNL     1      -1.899  -8.699   2.441  0.00  0.00    +0.008 A 
ATOM     23  C   UNL     1      -2.119  -9.178   3.719  0.00  0.00    +0.049 A 
ATOM     24  C   UNL     1      -3.122 -10.106   3.948  0.00  0.00    +0.158 A 
ATOM     25  C   UNL     1      -3.906 -10.555   2.890  0.00  0.00    +0.162 A 
ATOM     26  C   UNL     1      -3.683 -10.068   1.612  0.00  0.00    +0.054 A 
BRANCH  25  27
ATOM     27  O   UNL     1      -4.891 -11.466   3.110  0.00  0.00    -0.491 OA
ATOM     28  C   UNL     1      -5.656 -11.881   1.976  0.00  0.00    +0.277 C 
ENDBRANCH  25  27
BRANCH  24  29
ATOM     29  O   UNL     1      -3.340 -10.578   5.205  0.00  0.00    -0.503 OA
ATOM     30  H   UNL     1      -3.976 -10.058   5.715  0.00  0.00    +0.292 HD
ENDBRANCH  24  29
ENDBRANCH   8  21
BRANCH   1  31
ATOM     31  S   UNL     1      -3.114  -2.691   0.017  0.00  0.00    -0.088 S 
BRANCH  31  32
ATOM     32  C   UNL     1      -1.413  -2.063   0.004  0.00  0.00    +0.077 C 
BRANCH  32  33
ATOM     33  C   UNL     1      -1.433  -0.534   0.013  0.00  0.00    +0.011 C 
BRANCH  33  35
ATOM     34  C   UNL     1      -0.019   1.526   0.010  0.00  0.00    +0.004 C 
ATOM     35  C   UNL     1       0.002  -0.004   0.002  0.00  0.00    -0.003 C 
ENDBRANCH  33  35
ENDBRANCH  32  33
ENDBRANCH  31  32
ENDBRANCH   1  31
TORSDOF 7
