REMARK  Name = ZINC64538911
REMARK  11 active torsions:
REMARK  status: ('A' for Active; 'I' for Inactive)
REMARK    1  A    between atoms: C_1  and  C_2
REMARK    2  A    between atoms: C_8  and  C_11
REMARK    3  A    between atoms: C_11  and  C_12
REMARK    4  A    between atoms: C_12  and  N_13
REMARK    5  A    between atoms: C_14  and  C_16
REMARK    6  A    between atoms: C_16  and  C_17
REMARK    7  A    between atoms: C_17  and  C_18
REMARK    8  A    between atoms: C_18  and  C_19
REMARK    9  A    between atoms: C_23  and  C_26
REMARK   10  A    between atoms: N_28  and  C_29
REMARK   11  A    between atoms: C_34  and  C_35
REMARK                            x       y       z     vdW  Elec       q    Type
REMARK                         _______ _______ _______ _____ _____    ______ ____
ROOT
ATOM      1  C   UNL     1      -2.511  -2.320   7.795  0.00  0.00    +0.096 C 
ENDROOT
BRANCH   1   3
ATOM      2  N   UNL     1      -1.353  -2.583   5.625  0.00  0.00    -0.315 N 
ATOM      3  C   UNL     1      -2.513  -2.587   6.312  0.00  0.00    +0.213 C 
ATOM      4  O   UNL     1      -3.558  -2.805   5.736  0.00  0.00    -0.276 OA
ATOM      5  H   UNL     1      -0.517  -2.408   6.085  0.00  0.00    +0.149 HD
BRANCH   2   6
ATOM      6  C   UNL     1      -1.355  -2.842   4.183  0.00  0.00    +0.108 C 
BRANCH   6   7
ATOM      7  C   UNL     1       0.078  -2.780   3.651  0.00  0.00    +0.052 C 
BRANCH   7  15
ATOM      8  C   UNL     1      -0.028   1.507   0.004  0.00  0.00    +0.044 C 
ATOM      9  C   UNL     1       0.003   0.001   0.002  0.00  0.00    -0.050 A 
ATOM     10  C   UNL     1       0.010  -0.680  -1.224  0.00  0.00    +0.005 A 
ATOM     11  C   UNL     1       0.037  -2.027  -1.309  0.00  0.00    +0.026 A 
ATOM     12  C   UNL     1       0.059  -2.822  -0.130  0.00  0.00    +0.043 A 
ATOM     13  N   UNL     1       0.086  -4.121   0.046  0.00  0.00    -0.380 N 
ATOM     14  C   UNL     1       0.100  -4.397   1.487  0.00  0.00    +0.144 C 
ATOM     15  C   UNL     1       0.076  -3.046   2.168  0.00  0.00    -0.040 C 
ATOM     16  C   UNL     1       0.053  -2.127   1.177  0.00  0.00    -0.001 A 
ATOM     17  C   UNL     1       0.029  -0.659   1.182  0.00  0.00    +0.013 A 
ATOM     18  H   UNL     1       0.096  -4.788  -0.658  0.00  0.00    +0.160 HD
ENDBRANCH   7  15
ENDBRANCH   6   7
ENDBRANCH   2   6
ENDBRANCH   1   3
BRANCH   1  19
ATOM     19  C   UNL     1      -3.944  -2.382   8.326  0.00  0.00    +0.012 C 
BRANCH  19  20
ATOM     20  C   UNL     1      -3.942  -2.111   9.832  0.00  0.00    +0.040 C 
BRANCH  20  21
ATOM     21  C   UNL     1      -5.376  -2.174  10.363  0.00  0.00    +0.187 C 
ATOM     22  N   UNL     1      -5.439  -1.788  11.792  0.00  0.00    -0.177 NA
ATOM     23  N   UNL     1      -6.258  -0.979  12.180  0.00  0.00    -0.167 NA
ATOM     24  C   UNL     1      -7.213  -0.357  11.235  0.00  0.00    +0.272 C 
ATOM     25  S   UNL     1      -6.423  -0.837   9.633  0.00  0.00    -0.095 S 
BRANCH  24  26
ATOM     26  C   UNL     1      -7.255   1.140  11.401  0.00  0.00    +0.254 C 
ATOM     27  O   UNL     1      -6.772   1.859  10.552  0.00  0.00    -0.272 OA
ATOM     28  N   UNL     1      -7.829   1.681  12.494  0.00  0.00    -0.283 N 
ATOM     29  H   UNL     1      -8.286   1.112  13.134  0.00  0.00    +0.155 HD
BRANCH  28  30
ATOM     30  C   UNL     1      -7.766   3.063  12.707  0.00  0.00    +0.036 A 
ATOM     31  C   UNL     1      -6.739   3.808  12.142  0.00  0.00    +0.023 A 
ATOM     32  C   UNL     1      -6.680   5.171  12.353  0.00  0.00    +0.002 A 
ATOM     33  C   UNL     1      -7.642   5.795  13.126  0.00  0.00    +0.000 A 
ATOM     34  C   UNL     1      -8.666   5.056  13.690  0.00  0.00    +0.005 A 
ATOM     35  C   UNL     1      -8.734   3.693  13.477  0.00  0.00    -0.029 A 
ATOM     36  C   UNL     1      -9.854   2.889  14.087  0.00  0.00    +0.045 C 
ENDBRANCH  28  30
ENDBRANCH  24  26
ENDBRANCH  20  21
ENDBRANCH  19  20
ENDBRANCH   1  19
TORSDOF 9
