REMARK  Name = ZINC12036583
REMARK  7 active torsions:
REMARK  status: ('A' for Active; 'I' for Inactive)
REMARK    1  A    between atoms: C_4  and  C_7
REMARK    2  A    between atoms: C_7  and  C_8
REMARK    3  A    between atoms: C_8  and  C_9
REMARK    4  A    between atoms: C_9  and  C_16
REMARK    5  A    between atoms: C_21  and  C_22
REMARK    6  A    between atoms: C_21  and  N_62
REMARK    7  A    between atoms: C_26  and  C_28
REMARK                            x       y       z     vdW  Elec       q    Type
REMARK                         _______ _______ _______ _____ _____    ______ ____
ROOT
ATOM      1  C   UNL     1      -3.480   3.511   2.902  0.00  0.00    +0.018 C 
ATOM      2  C   UNL     1      -3.485   2.275   3.805  0.00  0.00    -0.013 C 
ATOM      3  C   UNL     1      -3.921   2.680   5.215  0.00  0.00    -0.078 C 
ATOM      4  C   UNL     1      -5.270   4.493   4.339  0.00  0.00    -0.078 C 
ATOM      5  C   UNL     1      -4.876   4.142   2.903  0.00  0.00    -0.013 C 
ATOM      6  N   UNL     1      -5.281   3.257   5.150  0.00  0.00    +0.382 N 
ATOM      7  H   UNL     1      -5.911   2.576   4.711  0.00  0.00    -0.081 HD
ENDROOT
BRANCH   1   8
ATOM      8  C   UNL     1      -3.105   3.102   1.476  0.00  0.00    +0.115 C 
ATOM      9  C   UNL     1      -4.198   2.250   0.861  0.00  0.00    +0.244 C 
ATOM     10  O   UNL     1      -4.597   1.175   1.255  0.00  0.00    -0.273 OA
ATOM     11  N   UNL     1      -4.634   2.936  -0.213  0.00  0.00    -0.238 N 
ATOM     12  C   UNL     1      -3.975   4.091  -0.362  0.00  0.00    +0.307 C 
ATOM     13  O   UNL     1      -4.192   4.882  -1.259  0.00  0.00    -0.252 OA
ATOM     14  N   UNL     1      -3.047   4.280   0.594  0.00  0.00    -0.285 N 
ATOM     15  H   UNL     1      -5.338   2.630  -0.806  0.00  0.00    +0.159 HD
ATOM     16  H   UNL     1      -2.455   5.043   0.684  0.00  0.00    +0.151 HD
BRANCH   8  17
ATOM     17  C   UNL     1      -1.770   2.355   1.466  0.00  0.00    +0.040 C 
BRANCH  17  18
ATOM     18  C   UNL     1      -1.332   2.114   0.020  0.00  0.00    +0.038 C 
BRANCH  18  22
ATOM     19  C   UNL     1       2.396   0.029  -0.022  0.00  0.00    +0.000 A 
ATOM     20  C   UNL     1       1.208  -0.679  -0.014  0.00  0.00    +0.000 A 
ATOM     21  C   UNL     1       0.002  -0.004   0.002  0.00  0.00    +0.003 A 
ATOM     22  C   UNL     1      -0.017   1.378   0.010  0.00  0.00    -0.047 A 
ATOM     23  C   UNL     1       1.171   2.086   0.002  0.00  0.00    +0.003 A 
ATOM     24  C   UNL     1       2.377   1.411  -0.014  0.00  0.00    +0.000 A 
ENDBRANCH  18  22
ENDBRANCH  17  18
ENDBRANCH   8  17
ENDBRANCH   1   8
BRANCH   6  25
ATOM     25  C   UNL     1      -5.769   3.552   6.513  0.00  0.00    -0.043 C 
BRANCH  25  26
ATOM     26  C   UNL     1      -5.978   2.252   7.246  0.00  0.00    -0.063 A 
ATOM     27  C   UNL     1      -7.200   1.608   7.175  0.00  0.00    +0.002 A 
ATOM     28  C   UNL     1      -7.399   0.412   7.840  0.00  0.00    +0.001 A 
ATOM     29  C   UNL     1      -6.381  -0.142   8.589  0.00  0.00    +0.011 A 
ATOM     30  C   UNL     1      -5.147   0.505   8.669  0.00  0.00    +0.017 A 
ATOM     31  C   UNL     1      -4.951   1.710   7.991  0.00  0.00    +0.013 A 
BRANCH  30  32
ATOM     32  C   UNL     1      -4.052  -0.082   9.470  0.00  0.00    +0.135 A 
ATOM     33  C   UNL     1      -4.114  -1.240  10.179  0.00  0.00    +0.050 A 
ATOM     34  C   UNL     1      -2.852  -1.417  10.780  0.00  0.00    +0.042 A 
ATOM     35  C   UNL     1      -2.093  -0.364  10.420  0.00  0.00    +0.196 A 
ATOM     36  O   UNL     1      -2.821   0.441   9.629  0.00  0.00    -0.463 OA
ENDBRANCH  30  32
ENDBRANCH  25  26
ENDBRANCH   6  25
TORSDOF 7
