REMARK  Name = ZINC13865414
REMARK  4 active torsions:
REMARK  status: ('A' for Active; 'I' for Inactive)
REMARK    1  A    between atoms: C_5  and  N_7
REMARK    2  A    between atoms: N_9  and  N_10
REMARK    3  A    between atoms: C_11  and  C_12
REMARK    4  A    between atoms: C_16  and  N_18
REMARK                            x       y       z     vdW  Elec       q    Type
REMARK                         _______ _______ _______ _____ _____    ______ ____
ROOT
ATOM      1  N   UNL     1       1.237  -2.080  -0.021  0.00  0.00    -0.293 N 
ATOM      2  C   UNL     1       0.068  -2.784   0.089  0.00  0.00    +0.163 C 
ATOM      3  N   UNL     1       0.098  -4.148   0.184  0.00  0.00    -0.258 N 
ATOM      4  S   UNL     1      -1.385  -1.982   0.108  0.00  0.00    -0.014 SA
ATOM      5  H   UNL     1       1.887  -2.323  -0.699  0.00  0.00    +0.154 HD
ATOM      6  H   UNL     1       0.947  -4.617   0.173  0.00  0.00    +0.191 HD
ENDROOT
BRANCH   1  11
ATOM      7  C   UNL     1       0.998   0.204   2.850  0.00  0.00    +0.002 A 
ATOM      8  C   UNL     1       2.001   1.108   2.551  0.00  0.00    +0.002 A 
ATOM      9  C   UNL     1       2.751   0.957   1.399  0.00  0.00    +0.022 A 
ATOM     10  C   UNL     1       2.501  -0.099   0.544  0.00  0.00    +0.062 A 
ATOM     11  C   UNL     1       1.494  -1.009   0.843  0.00  0.00    +0.051 A 
ATOM     12  C   UNL     1       0.743  -0.854   2.000  0.00  0.00    +0.025 A 
ATOM     13 CL   UNL     1       3.442  -0.289  -0.902  0.00  0.00    -0.082 Cl
ENDBRANCH   1  11
BRANCH   3  14
ATOM     14  N   UNL     1      -1.099  -4.868   0.298  0.00  0.00    -0.180 NA
ATOM     15  C   UNL     1      -1.071  -6.162   0.388  0.00  0.00    +0.140 C 
BRANCH  15  16
ATOM     16  C   UNL     1      -2.330  -6.921   0.507  0.00  0.00    -0.003 A 
ATOM     17  C   UNL     1      -3.555  -6.249   0.517  0.00  0.00    +0.011 A 
ATOM     18  C   UNL     1      -4.729  -6.964   0.629  0.00  0.00    +0.023 A 
ATOM     19  C   UNL     1      -4.695  -8.345   0.730  0.00  0.00    +0.071 A 
ATOM     20  C   UNL     1      -3.485  -9.017   0.721  0.00  0.00    +0.145 A 
ATOM     21  C   UNL     1      -2.304  -8.314   0.604  0.00  0.00    +0.043 A 
ATOM     22 CL   UNL     1      -6.178  -9.238   0.870  0.00  0.00    -0.081 Cl
BRANCH  20  23
ATOM     23  N   UNL     1      -3.458 -10.493   0.830  0.00  0.00    +0.058 N 
ATOM     24  O   UNL     1      -2.401 -11.080   0.822  0.00  0.00    -0.126 OA
ATOM     25  O   UNL     1      -4.493 -11.110   0.928  0.00  0.00    -0.126 OA
ENDBRANCH  20  23
ENDBRANCH  15  16
ENDBRANCH   3  14
TORSDOF 4
