REMARK  Name = ZINC01376123
REMARK  10 active torsions:
REMARK  status: ('A' for Active; 'I' for Inactive)
REMARK    1  A    between atoms: C_1  and  C_2
REMARK    2  A    between atoms: C_2  and  O_3
REMARK    3  A    between atoms: O_3  and  C_4
REMARK    4  A    between atoms: C_11  and  C_16
REMARK    5  A    between atoms: C_17  and  N_26
REMARK    6  A    between atoms: C_21  and  C_25
REMARK    7  A    between atoms: N_26  and  C_27
REMARK    8  A    between atoms: C_27  and  C_28
REMARK    9  A    between atoms: C_27  and  C_29
REMARK   10  A    between atoms: C_27  and  C_30
REMARK                            x       y       z     vdW  Elec       q    Type
REMARK                         _______ _______ _______ _____ _____    ______ ____
ROOT
ATOM      1  C   UNL     1      -0.628   2.657  -0.231  0.00  0.00    +0.117 A 
ATOM      2  C   UNL     1      -1.183   1.398  -0.113  0.00  0.00    +0.132 A 
ATOM      3  N   UNL     1      -2.527   1.538  -0.316  0.00  0.00    -0.288 N 
ATOM      4  C   UNL     1      -3.558   0.636  -0.321  0.00  0.00    +0.095 A 
ATOM      5  C   UNL     1      -4.823   1.041  -0.552  0.00  0.00    +0.021 A 
ATOM      6  C   UNL     1      -5.102   2.398  -0.792  0.00  0.00    -0.046 A 
ATOM      7  C   UNL     1      -4.092   3.308  -0.782  0.00  0.00    +0.050 A 
ATOM      8  C   UNL     1      -2.771   2.873  -0.543  0.00  0.00    +0.140 A 
ATOM      9  N   UNL     1      -1.621   3.527  -0.492  0.00  0.00    -0.226 NA
ATOM     10  C   UNL     1      -6.518   2.844  -1.050  0.00  0.00    +0.044 C 
ENDROOT
BRANCH   1  18
ATOM     11  C   UNL     1       5.407   1.687   0.431  0.00  0.00    +0.121 A 
ATOM     12  C   UNL     1       5.786   3.028   0.421  0.00  0.00    +0.047 A 
ATOM     13  C   UNL     1       4.843   4.022   0.287  0.00  0.00    +0.030 A 
ATOM     14  C   UNL     1       3.496   3.694   0.159  0.00  0.00    +0.049 A 
ATOM     15  C   UNL     1       3.107   2.342   0.168  0.00  0.00    +0.003 A 
ATOM     16  C   UNL     1       4.078   1.340   0.305  0.00  0.00    +0.055 A 
ATOM     17  C   UNL     1       1.736   1.998   0.044  0.00  0.00    +0.025 A 
ATOM     18  C   UNL     1       0.807   2.991  -0.094  0.00  0.00    +0.069 A 
ATOM     19  C   UNL     1       1.244   4.391  -0.100  0.00  0.00    +0.259 A 
ATOM     20  O   UNL     1       0.423   5.284  -0.217  0.00  0.00    -0.267 OA
ATOM     21  N   UNL     1       2.550   4.693   0.024  0.00  0.00    -0.322 N 
ATOM     22  H   UNL     1       2.840   5.651   0.019  0.00  0.00    +0.169 HD
BRANCH  11  23
ATOM     23  O   UNL     1       6.350   0.718   0.565  0.00  0.00    -0.492 OA
BRANCH  23  25
ATOM     24  C   UNL     1       8.617  -0.076   0.830  0.00  0.00    +0.048 C 
ATOM     25  C   UNL     1       7.707   1.146   0.690  0.00  0.00    +0.225 C 
ENDBRANCH  23  25
ENDBRANCH  11  23
ENDBRANCH   1  18
BRANCH   2  26
ATOM     26  N   UNL     1      -0.502   0.211   0.155  0.00  0.00    -0.324 N 
ATOM     27  H   UNL     1       0.067   0.300   0.985  0.00  0.00    +0.148 HD
BRANCH  26  28
ATOM     28  C   UNL     1      -1.436  -0.916   0.276  0.00  0.00    +0.025 C 
ATOM     29  C   UNL     1      -2.138  -1.143  -1.065  0.00  0.00    +0.031 C 
ATOM     30  C   UNL     1      -0.664  -2.179   0.667  0.00  0.00    +0.031 C 
ATOM     31  C   UNL     1      -2.478  -0.602   1.351  0.00  0.00    +0.031 C 
ENDBRANCH  26  28
ENDBRANCH   2  26
TORSDOF 5
