REMARK  Name = ZINC40544921
REMARK  7 active torsions:
REMARK  status: ('A' for Active; 'I' for Inactive)
REMARK    1  A    between atoms: C_1  and  C_2
REMARK    2  A    between atoms: C_2  and  C_3
REMARK    3  A    between atoms: C_3  and  C_5
REMARK    4  A    between atoms: C_3  and  N_6
REMARK    5  A    between atoms: N_6  and  C_7
REMARK    6  A    between atoms: C_7  and  C_8
REMARK    7  A    between atoms: N_13  and  C_14
REMARK                            x       y       z     vdW  Elec       q    Type
REMARK                         _______ _______ _______ _____ _____    ______ ____
ROOT
ATOM      1  N   UNL     1      -2.079   0.311   1.427  0.00  0.00    -0.272 N 
ATOM      2  C   UNL     1      -3.233   0.997   1.546  0.00  0.00    +0.307 C 
ATOM      3  O   UNL     1      -3.617   1.703   0.633  0.00  0.00    -0.252 OA
ATOM      4  N   UNL     1      -3.962   0.899   2.675  0.00  0.00    -0.267 N 
ATOM      5  H   UNL     1      -3.631   0.377   3.422  0.00  0.00    +0.156 HD
ENDROOT
BRANCH   4   6
ATOM      6  C   UNL     1      -5.198   1.551   2.769  0.00  0.00    +0.063 A 
ATOM      7  C   UNL     1      -6.115   1.459   1.729  0.00  0.00    +0.041 A 
ATOM      8  C   UNL     1      -7.333   2.104   1.825  0.00  0.00    +0.032 A 
ATOM      9  C   UNL     1      -7.641   2.841   2.955  0.00  0.00    +0.020 A 
ATOM     10  C   UNL     1      -6.729   2.935   3.992  0.00  0.00    +0.032 A 
ATOM     11  C   UNL     1      -5.512   2.287   3.905  0.00  0.00    +0.041 A 
ATOM     12 BR   UNL     1      -4.271   2.409   5.326  0.00  0.00    -0.048 Br
ATOM     13 BR   UNL     1      -9.309   3.722   3.082  0.00  0.00    -0.050 Br
ATOM     14 BR   UNL     1      -5.695   0.453   0.184  0.00  0.00    -0.048 Br
ENDBRANCH   4   6
BRANCH   1  15
ATOM     15  C   UNL     1      -1.286   0.418   0.200  0.00  0.00    +0.075 C 
ATOM     16  C   UNL     1      -0.892   1.878  -0.028  0.00  0.00    +0.028 C 
BRANCH  15  18
ATOM     17  C   UNL     1      -2.393  -1.574  -0.825  0.00  0.00    +0.006 C 
ATOM     18  C   UNL     1      -2.115  -0.078  -0.987  0.00  0.00    +0.019 C 
ENDBRANCH  15  18
ENDBRANCH   1  15
BRANCH   1  19
ATOM     19  C   UNL     1      -1.616  -0.540   2.527  0.00  0.00    +0.234 C 
BRANCH  19  20
ATOM     20  C   UNL     1      -0.858   0.296   3.525  0.00  0.00    +0.373 C 
ATOM     21  O   UNL     1      -0.772   1.503   3.369  0.00  0.00    -0.245 OA
ATOM     22  O   UNL     1      -0.332  -0.233   4.489  0.00  0.00    -0.245 OA
ENDBRANCH  19  20
ENDBRANCH   1  19
TORSDOF 5
