REMARK  Name = ZINC48166939
REMARK  7 active torsions:
REMARK  status: ('A' for Active; 'I' for Inactive)
REMARK    1  A    between atoms: C_1  and  C_2
REMARK    2  A    between atoms: C_2  and  C_4
REMARK    3  A    between atoms: C_2  and  S_17
REMARK    4  A    between atoms: C_4  and  N_6
REMARK    5  A    between atoms: S_17  and  C_18
REMARK    6  A    between atoms: C_21  and  O_24
REMARK    7  A    between atoms: O_24  and  C_25
REMARK                            x       y       z     vdW  Elec       q    Type
REMARK                         _______ _______ _______ _____ _____    ______ ____
ROOT
ATOM      1  C   UNL     1       0.559  -0.751   1.428  0.00  0.00    +0.252 C 
ATOM      2  O   UNL     1      -0.152  -0.929   2.398  0.00  0.00    -0.272 OA
ENDROOT
BRANCH   1   3
ATOM      3  N   UNL     1       1.869  -0.963   1.516  0.00  0.00    -0.146 NA
ATOM      4  C   UNL     1       2.388  -1.463   2.635  0.00  0.00    +0.198 A 
ATOM      5  N   UNL     1       1.702  -1.699   3.784  0.00  0.00    -0.326 N 
ATOM      6  H   UNL     1       0.757  -1.532   3.926  0.00  0.00    +0.169 HD
ATOM      7  C   UNL     1       2.587  -2.221   4.721  0.00  0.00    +0.065 A 
ATOM      8  C   UNL     1       2.438  -2.636   6.037  0.00  0.00    +0.028 A 
ATOM      9  C   UNL     1       3.527  -3.123   6.732  0.00  0.00    +0.002 A 
ATOM     10  C   UNL     1       4.768  -3.198   6.123  0.00  0.00    +0.002 A 
ATOM     11  C   UNL     1       4.927  -2.786   4.814  0.00  0.00    +0.028 A 
ATOM     12  C   UNL     1       3.839  -2.296   4.106  0.00  0.00    +0.065 A 
ATOM     13  N   UNL     1       3.686  -1.823   2.807  0.00  0.00    -0.326 N 
ATOM     14  H   UNL     1       4.387  -1.760   2.139  0.00  0.00    +0.169 HD
ENDBRANCH   1   3
BRANCH   1  16
ATOM     15  C   UNL     1       0.173   1.217  -0.031  0.00  0.00    +0.029 C 
ATOM     16  C   UNL     1      -0.043  -0.290   0.126  0.00  0.00    +0.136 C 
BRANCH  16  17
ATOM     17  S   UNL     1      -1.821  -0.650   0.121  0.00  0.00    -0.113 S 
BRANCH  17  18
ATOM     18  C   UNL     1      -1.901  -2.405  -0.011  0.00  0.00    +0.009 A 
ATOM     19  C   UNL     1      -0.731  -3.153  -0.043  0.00  0.00    +0.018 A 
ATOM     20  C   UNL     1      -0.795  -4.529  -0.147  0.00  0.00    +0.047 A 
ATOM     21  C   UNL     1      -2.026  -5.163  -0.218  0.00  0.00    +0.120 A 
ATOM     22  C   UNL     1      -3.195  -4.417  -0.185  0.00  0.00    +0.047 A 
ATOM     23  C   UNL     1      -3.134  -3.042  -0.076  0.00  0.00    +0.018 A 
BRANCH  21  24
ATOM     24  O   UNL     1      -2.087  -6.518  -0.320  0.00  0.00    -0.495 OA
ATOM     25  C   UNL     1      -3.388  -7.105  -0.389  0.00  0.00    +0.277 C 
ENDBRANCH  21  24
ENDBRANCH  17  18
ENDBRANCH  16  17
ENDBRANCH   1  16
TORSDOF 5
