REMARK  Name = ZINC57050639
REMARK  10 active torsions:
REMARK  status: ('A' for Active; 'I' for Inactive)
REMARK    1  A    between atoms: C_1  and  C_2
REMARK    2  A    between atoms: C_2  and  O_3
REMARK    3  A    between atoms: O_3  and  C_4
REMARK    4  A    between atoms: C_4  and  C_6
REMARK    5  A    between atoms: C_7  and  C_39
REMARK    6  A    between atoms: C_8  and  C_38
REMARK    7  A    between atoms: C_10  and  N_11
REMARK    8  A    between atoms: C_12  and  C_14
REMARK    9  A    between atoms: C_14  and  N_15
REMARK   10  A    between atoms: C_22  and  C_32
REMARK                            x       y       z     vdW  Elec       q    Type
REMARK                         _______ _______ _______ _____ _____    ______ ____
ROOT
ATOM      1  N   UNL     1      -2.876  -3.038  -6.785  0.00  0.00    -0.284 NA
ATOM      2  C   UNL     1      -2.674  -4.486  -6.942  0.00  0.00    +0.107 C 
ATOM      3  C   UNL     1      -2.607  -4.883  -8.422  0.00  0.00    +0.137 C 
ATOM      4  N   UNL     1      -3.755  -4.275  -9.112  0.00  0.00    -0.341 N 
ATOM      5  C   UNL     1      -4.284  -4.541 -10.339  0.00  0.00    +0.050 A 
ATOM      6  C   UNL     1      -3.947  -5.475 -11.316  0.00  0.00    +0.027 A 
ATOM      7  C   UNL     1      -4.702  -5.478 -12.476  0.00  0.00    +0.006 A 
ATOM      8  C   UNL     1      -5.752  -4.597 -12.675  0.00  0.00    -0.044 A 
ATOM      9  C   UNL     1      -6.111  -3.667 -11.733  0.00  0.00    +0.014 A 
ATOM     10  C   UNL     1      -5.369  -3.637 -10.547  0.00  0.00    +0.004 A 
ATOM     11  C   UNL     1      -5.450  -2.832  -9.359  0.00  0.00    -0.017 A 
ATOM     12  C   UNL     1      -4.475  -3.266  -8.536  0.00  0.00    +0.040 A 
ATOM     13  C   UNL     1      -4.250  -2.658  -7.170  0.00  0.00    +0.104 C 
ATOM     14  C   UNL     1      -4.378  -1.149  -7.298  0.00  0.00    +0.025 C 
ATOM     15  C   UNL     1      -5.465  -0.646  -8.215  0.00  0.00    +0.007 C 
ATOM     16  C   UNL     1      -6.323  -1.693  -8.911  0.00  0.00    +0.037 C 
ENDROOT
BRANCH   8  17
ATOM     17  C   UNL     1      -6.525  -4.663 -13.967  0.00  0.00    +0.019 C 
ATOM     18  C   UNL     1      -7.153  -6.050 -14.116  0.00  0.00    +0.008 C 
ATOM     19  C   UNL     1      -7.938  -6.116 -15.427  0.00  0.00    +0.001 C 
ATOM     20  C   UNL     1      -6.991  -5.857 -16.601  0.00  0.00    +0.000 C 
ATOM     21  C   UNL     1      -6.363  -4.470 -16.453  0.00  0.00    +0.001 C 
ATOM     22  C   UNL     1      -5.578  -4.403 -15.141  0.00  0.00    +0.008 C 
ENDBRANCH   8  17
BRANCH   1  23
ATOM     23  C   UNL     1      -2.576  -2.610  -5.413  0.00  0.00    +0.181 C 
BRANCH  23  25
ATOM     24  N   UNL     1      -0.597  -2.461  -3.936  0.00  0.00    -0.278 N 
ATOM     25  C   UNL     1      -1.105  -2.790  -5.140  0.00  0.00    +0.232 C 
ATOM     26  O   UNL     1      -0.378  -3.232  -6.005  0.00  0.00    -0.274 OA
ATOM     27  H   UNL     1      -1.178  -2.108  -3.245  0.00  0.00    +0.155 HD
BRANCH  24  32
ATOM     28  C   UNL     1       1.449  -2.344  -2.516  0.00  0.00    +0.091 A 
ATOM     29  C   UNL     1       2.868  -2.621  -2.523  0.00  0.00    -0.025 A 
ATOM     30  C   UNL     1       3.363  -3.119  -3.671  0.00  0.00    -0.008 A 
ATOM     31  S   UNL     1       1.934  -3.213  -4.727  0.00  0.00    -0.078 S 
ATOM     32  C   UNL     1       0.756  -2.627  -3.686  0.00  0.00    +0.086 A 
ATOM     33  C   UNL     1       4.785  -3.503  -3.986  0.00  0.00    +0.052 C 
ATOM     34  C   UNL     1       3.739  -2.366  -1.320  0.00  0.00    +0.045 C 
BRANCH  28  35
ATOM     35  C   UNL     1       0.776  -1.800  -1.335  0.00  0.00    +0.342 C 
ATOM     36  O   UNL     1       0.312  -2.552  -0.499  0.00  0.00    -0.245 OA
BRANCH  35  37
ATOM     37  O   UNL     1       0.671  -0.465  -1.174  0.00  0.00    -0.461 OA
BRANCH  37  39
ATOM     38  C   UNL     1      -0.019   1.526   0.010  0.00  0.00    +0.048 C 
ATOM     39  C   UNL     1       0.002  -0.004   0.002  0.00  0.00    +0.229 C 
ENDBRANCH  37  39
ENDBRANCH  35  37
ENDBRANCH  28  35
ENDBRANCH  24  32
ENDBRANCH  23  25
ENDBRANCH   1  23
TORSDOF 7
