REMARK  Name = ZINC39914298
REMARK  8 active torsions:
REMARK  status: ('A' for Active; 'I' for Inactive)
REMARK    1  A    between atoms: C_1  and  C_2
REMARK    2  A    between atoms: C_2  and  C_3
REMARK    3  A    between atoms: C_3  and  C_4
REMARK    4  A    between atoms: C_4  and  N_5
REMARK    5  A    between atoms: C_6  and  C_25
REMARK    6  A    between atoms: C_9  and  C_16
REMARK    7  A    between atoms: C_19  and  C_23
REMARK    8  A    between atoms: C_21  and  O_22
REMARK                            x       y       z     vdW  Elec       q    Type
REMARK                         _______ _______ _______ _____ _____    ______ ____
ROOT
ATOM      1  N   UNL     1       1.471  -2.526   2.420  0.00  0.00    -0.285 N 
ATOM      2  C   UNL     1       2.913  -2.788   2.514  0.00  0.00    +0.141 C 
ATOM      3  C   UNL     1       3.159  -3.267   3.919  0.00  0.00    +0.035 A 
ATOM      4  C   UNL     1       4.085  -3.713   4.867  0.00  0.00    +0.102 A 
ATOM      5  N   UNL     1       3.423  -3.954   5.982  0.00  0.00    -0.173 NA
ATOM      6  N   UNL     1       2.171  -3.705   5.831  0.00  0.00    -0.272 N 
ATOM      7  H   UNL     1       1.495  -3.810   6.518  0.00  0.00    +0.189 HD
ATOM      8  C   UNL     1       1.934  -3.269   4.558  0.00  0.00    +0.126 A 
ATOM      9  C   UNL     1       0.914  -2.802   3.613  0.00  0.00    +0.265 C 
ATOM     10  O   UNL     1      -0.269  -2.685   3.870  0.00  0.00    -0.268 OA
ENDROOT
BRANCH   4  11
ATOM     11  C   UNL     1       5.545  -3.884   4.658  0.00  0.00    +0.045 A 
ATOM     12  C   UNL     1       6.114  -3.584   3.423  0.00  0.00    +0.034 A 
ATOM     13  C   UNL     1       7.472  -3.744   3.233  0.00  0.00    +0.045 A 
ATOM     14  C   UNL     1       8.271  -4.202   4.268  0.00  0.00    -0.029 A 
ATOM     15  C   UNL     1       7.715  -4.502   5.497  0.00  0.00    +0.050 A 
ATOM     16  C   UNL     1       6.354  -4.340   5.702  0.00  0.00    +0.126 A 
ATOM     17  C   UNL     1       9.752  -4.375   4.052  0.00  0.00    +0.045 C 
ATOM     18 CL   UNL     1       8.181  -3.370   1.693  0.00  0.00    -0.083 Cl
BRANCH  16  19
ATOM     19  O   UNL     1       5.808  -4.630   6.912  0.00  0.00    -0.506 OA
ATOM     20  H   UNL     1       5.515  -5.547   7.002  0.00  0.00    +0.292 HD
ENDBRANCH  16  19
ENDBRANCH   4  11
BRANCH   2  21
ATOM     21  C   UNL     1       3.312  -3.853   1.524  0.00  0.00    -0.022 A 
ATOM     22  C   UNL     1       2.490  -4.943   1.313  0.00  0.00    +0.006 A 
ATOM     23  C   UNL     1       2.856  -5.920   0.406  0.00  0.00    +0.000 A 
ATOM     24  C   UNL     1       4.045  -5.805  -0.291  0.00  0.00    +0.000 A 
ATOM     25  C   UNL     1       4.867  -4.714  -0.080  0.00  0.00    +0.000 A 
ATOM     26  C   UNL     1       4.499  -3.736   0.824  0.00  0.00    +0.006 A 
ENDBRANCH   2  21
BRANCH   1  27
ATOM     27  C   UNL     1       0.763  -2.041   1.233  0.00  0.00    +0.109 C 
BRANCH  27  28
ATOM     28  C   UNL     1       0.742  -0.511   1.242  0.00  0.00    +0.019 C 
BRANCH  28  30
ATOM     29  C   UNL     1      -0.019   1.526   0.010  0.00  0.00    +0.004 C 
ATOM     30  C   UNL     1       0.002  -0.004   0.002  0.00  0.00    -0.002 C 
ENDBRANCH  28  30
ENDBRANCH  27  28
ENDBRANCH   1  27
TORSDOF 6
