REMARK  Name = ZINC21107680
REMARK  6 active torsions:
REMARK  status: ('A' for Active; 'I' for Inactive)
REMARK    1  A    between atoms: C_1  and  C_2
REMARK    2  A    between atoms: C_5  and  N_9
REMARK    3  A    between atoms: C_6  and  C_8
REMARK    4  A    between atoms: N_9  and  C_10
REMARK    5  A    between atoms: N_20  and  C_21
REMARK    6  A    between atoms: C_21  and  C_22
REMARK                            x       y       z     vdW  Elec       q    Type
REMARK                         _______ _______ _______ _____ _____    ______ ____
ROOT
ATOM      1  C   UNL     1       0.059   1.701   0.039  0.00  0.00    +0.212 C 
ATOM      2  C   UNL     1       1.447   2.281  -0.086  0.00  0.00    +0.092 A 
ATOM      3  C   UNL     1       2.331   1.205   0.027  0.00  0.00    +0.062 A 
ATOM      4  C   UNL     1       3.706   1.450  -0.053  0.00  0.00    +0.016 A 
ATOM      5  C   UNL     1       4.128   2.755  -0.241  0.00  0.00    +0.020 A 
ATOM      6  C   UNL     1       3.188   3.764  -0.343  0.00  0.00    +0.111 A 
ATOM      7  N   UNL     1       1.896   3.503  -0.264  0.00  0.00    -0.256 NA
ATOM      8  C   UNL     1       1.546  -0.027   0.217  0.00  0.00    +0.250 C 
ATOM      9  O   UNL     1       2.018  -1.139   0.348  0.00  0.00    -0.270 OA
ATOM     10  N   UNL     1       0.231   0.256   0.225  0.00  0.00    -0.269 N 
ENDROOT
BRANCH   1  11
ATOM     11  N   UNL     1      -0.708   1.963  -1.182  0.00  0.00    -0.321 N 
ATOM     12  H   UNL     1      -0.236   1.831  -2.167  0.00  0.00    +0.148 HD
BRANCH  11  17
ATOM     13  C   UNL     1      -6.105   3.665  -0.829  0.00  0.00    +0.044 C 
ATOM     14  C   UNL     1      -4.671   3.213  -0.923  0.00  0.00    -0.050 A 
ATOM     15  C   UNL     1      -3.990   2.838   0.221  0.00  0.00    +0.005 A 
ATOM     16  C   UNL     1      -2.675   2.423   0.139  0.00  0.00    +0.023 A 
ATOM     17  C   UNL     1      -2.037   2.382  -1.095  0.00  0.00    +0.032 A 
ATOM     18  C   UNL     1      -2.723   2.764  -2.241  0.00  0.00    -0.029 A 
ATOM     19  C   UNL     1      -4.039   3.173  -2.152  0.00  0.00    +0.008 A 
ATOM     20  C   UNL     1      -2.033   2.727  -3.580  0.00  0.00    +0.045 C 
ENDBRANCH  11  17
ENDBRANCH   1  11
BRANCH  10  21
ATOM     21  C   UNL     1      -0.850  -0.718   0.391  0.00  0.00    +0.145 C 
BRANCH  21  22
ATOM     22  C   UNL     1      -1.269  -1.239  -0.960  0.00  0.00    -0.030 A 
ATOM     23  C   UNL     1      -2.271  -0.601  -1.667  0.00  0.00    +0.005 A 
ATOM     24  C   UNL     1      -2.652  -1.076  -2.908  0.00  0.00    +0.000 A 
ATOM     25  C   UNL     1      -2.038  -2.194  -3.438  0.00  0.00    +0.000 A 
ATOM     26  C   UNL     1      -1.039  -2.836  -2.729  0.00  0.00    +0.000 A 
ATOM     27  C   UNL     1      -0.655  -2.358  -1.490  0.00  0.00    +0.005 A 
ENDBRANCH  21  22
ENDBRANCH  10  21
TORSDOF 4
