REMARK  Name = ZINC11917933
REMARK  8 active torsions:
REMARK  status: ('A' for Active; 'I' for Inactive)
REMARK    1  A    between atoms: C_1  and  C_2
REMARK    2  A    between atoms: C_2  and  O_3
REMARK    3  A    between atoms: O_3  and  C_4
REMARK    4  A    between atoms: C_4  and  C_6
REMARK    5  A    between atoms: C_7  and  C_29
REMARK    6  A    between atoms: C_8  and  C_13
REMARK    7  A    between atoms: C_11  and  C_12
REMARK    8  A    between atoms: N_15  and  C_16
REMARK                            x       y       z     vdW  Elec       q    Type
REMARK                         _______ _______ _______ _____ _____    ______ ____
ROOT
ATOM      1  C   UNL     1      -1.232   2.221  -0.147  0.00  0.00    +0.265 C 
ATOM      2  O   UNL     1      -1.145   3.426  -0.296  0.00  0.00    -0.268 OA
ATOM      3  N   UNL     1      -2.440   1.649   0.024  0.00  0.00    -0.280 N 
ATOM      4  H   UNL     1      -2.518   0.683   0.066  0.00  0.00    +0.155 HD
ENDROOT
BRANCH   3   5
ATOM      5  C   UNL     1      -3.584   2.448   0.139  0.00  0.00    +0.037 A 
ATOM      6  C   UNL     1      -4.799   1.997  -0.358  0.00  0.00    +0.027 A 
ATOM      7  C   UNL     1      -5.930   2.785  -0.245  0.00  0.00    +0.051 A 
ATOM      8  C   UNL     1      -5.852   4.024   0.365  0.00  0.00    +0.167 A 
ATOM      9  C   UNL     1      -4.633   4.480   0.865  0.00  0.00    +0.169 A 
ATOM     10  C   UNL     1      -3.503   3.690   0.757  0.00  0.00    +0.073 A 
ATOM     11  O   UNL     1      -4.829   5.722   1.412  0.00  0.00    -0.447 OA
ATOM     12  C   UNL     1      -6.035   6.184   0.788  0.00  0.00    +0.254 C 
ATOM     13  O   UNL     1      -6.801   4.985   0.604  0.00  0.00    -0.448 OA
ATOM     14  C   UNL     1      -6.775   7.185   1.683  0.00  0.00    +0.093 C 
ATOM     15  C   UNL     1      -6.383   8.568   1.100  0.00  0.00    +0.008 C 
ATOM     16  C   UNL     1      -6.338   8.300  -0.425  0.00  0.00    +0.008 C 
ATOM     17  C   UNL     1      -5.748   6.877  -0.544  0.00  0.00    +0.093 C 
ENDBRANCH   3   5
BRANCH   1  20
ATOM     18  C   UNL     1       2.103   0.713  -0.263  0.00  0.00    +0.083 A 
ATOM     19  C   UNL     1       1.255   1.843  -0.320  0.00  0.00    -0.006 A 
ATOM     20  C   UNL     1      -0.021   1.392  -0.152  0.00  0.00    +0.106 A 
ATOM     21  N   UNL     1       0.021   0.023   0.005  0.00  0.00    -0.354 N 
ATOM     22  H   UNL     1      -0.750  -0.550   0.141  0.00  0.00    +0.166 HD
ATOM     23  C   UNL     1       1.296  -0.391  -0.060  0.00  0.00    +0.028 A 
ATOM     24  C   UNL     1       1.767  -1.817   0.066  0.00  0.00    +0.064 C 
ATOM     25  C   UNL     1       1.680   3.273  -0.527  0.00  0.00    +0.047 C 
BRANCH  18  26
ATOM     26  C   UNL     1       3.570   0.713  -0.394  0.00  0.00    +0.341 C 
ATOM     27  O   UNL     1       4.081   0.590  -1.490  0.00  0.00    -0.245 OA
BRANCH  26  28
ATOM     28  O   UNL     1       4.345   0.849   0.700  0.00  0.00    -0.461 OA
BRANCH  28  30
ATOM     29  C   UNL     1       6.490   1.004   1.841  0.00  0.00    +0.048 C 
ATOM     30  C   UNL     1       5.782   0.839   0.495  0.00  0.00    +0.229 C 
ENDBRANCH  28  30
ENDBRANCH  26  28
ENDBRANCH  18  26
ENDBRANCH   1  20
TORSDOF 5
