REMARK  Name = ZINC34946978
REMARK  8 active torsions:
REMARK  status: ('A' for Active; 'I' for Inactive)
REMARK    1  A    between atoms: C_1  and  C_2
REMARK    2  A    between atoms: C_2  and  N_3
REMARK    3  A    between atoms: C_11  and  C_13
REMARK    4  A    between atoms: C_14  and  C_16
REMARK    5  A    between atoms: C_16  and  C_18
REMARK    6  A    between atoms: C_16  and  N_29
REMARK    7  A    between atoms: C_18  and  C_19
REMARK    8  A    between atoms: C_30  and  C_32
REMARK                            x       y       z     vdW  Elec       q    Type
REMARK                         _______ _______ _______ _____ _____    ______ ____
ROOT
ATOM      1  C   UNL     1      -7.643  -2.870   1.363  0.00  0.00    +0.163 C 
ENDROOT
BRANCH   1  12
ATOM      2  N   UNL     1      -1.427  -0.523   0.779  0.00  0.00    -0.299 N 
ATOM      3  C   UNL     1      -1.626  -1.827   0.503  0.00  0.00    +0.303 C 
ATOM      4  O   UNL     1      -0.675  -2.567   0.345  0.00  0.00    -0.253 OA
ATOM      5  N   UNL     1      -2.880  -2.311   0.402  0.00  0.00    -0.280 N 
ATOM      6  C   UNL     1      -4.037  -1.407   0.460  0.00  0.00    +0.128 C 
ATOM      7  C   UNL     1      -4.978  -1.886   1.573  0.00  0.00    +0.127 C 
ATOM      8  N   UNL     1      -5.212  -3.326   1.402  0.00  0.00    -0.297 N 
ATOM      9  C   UNL     1      -4.055  -4.230   1.343  0.00  0.00    +0.130 C 
ATOM     10  C   UNL     1      -3.115  -3.751   0.225  0.00  0.00    +0.092 C 
ATOM     11  C   UNL     1      -1.785  -4.502   0.312  0.00  0.00    +0.030 C 
ATOM     12  C   UNL     1      -6.466  -3.810   1.301  0.00  0.00    +0.236 C 
ATOM     13  O   UNL     1      -6.648  -5.001   1.160  0.00  0.00    -0.274 OA
ATOM     14  H   UNL     1      -2.183   0.082   0.832  0.00  0.00    +0.150 HD
BRANCH   2  16
ATOM     15  C   UNL     1      -0.121   1.481   1.291  0.00  0.00    +0.024 C 
ATOM     16  C   UNL     1      -0.069  -0.020   0.998  0.00  0.00    +0.102 C 
ENDBRANCH   2  16
ENDBRANCH   1  12
BRANCH   1  17
ATOM     17  N   UNL     1      -8.851  -3.624   1.709  0.00  0.00    -0.303 N 
ATOM     18  C   UNL     1      -9.274  -4.623   0.910  0.00  0.00    +0.217 C 
ATOM     19  O   UNL     1      -8.655  -4.899  -0.096  0.00  0.00    -0.275 OA
ATOM     20  H   UNL     1      -9.347  -3.403   2.513  0.00  0.00    +0.149 HD
BRANCH  18  21
ATOM     21  C   UNL     1     -10.517  -5.398   1.266  0.00  0.00    +0.075 C 
ATOM     22  C   UNL     1     -10.313  -6.138   2.604  0.00  0.00    +0.013 C 
ATOM     23  C   UNL     1     -11.051  -7.486   2.409  0.00  0.00    +0.001 C 
ATOM     24  C   UNL     1     -10.738  -7.836   0.933  0.00  0.00    +0.001 C 
ATOM     25  C   UNL     1     -10.787  -6.478   0.203  0.00  0.00    +0.013 C 
ENDBRANCH  18  21
ENDBRANCH   1  17
BRANCH   1  26
ATOM     26  C   UNL     1      -7.833  -2.200   0.001  0.00  0.00    +0.069 C 
BRANCH  26  27
ATOM     27  C   UNL     1      -8.931  -1.171   0.096  0.00  0.00    -0.020 A 
ATOM     28  C   UNL     1     -10.225  -1.355  -0.206  0.00  0.00    +0.087 A 
ATOM     29  N   UNL     1     -10.923  -0.197   0.004  0.00  0.00    -0.360 N 
ATOM     30  H   UNL     1     -11.874  -0.084  -0.145  0.00  0.00    +0.165 HD
ATOM     31  C   UNL     1     -10.072   0.786   0.459  0.00  0.00    +0.047 A 
ATOM     32  C   UNL     1      -8.788   0.217   0.543  0.00  0.00    +0.003 A 
ATOM     33  C   UNL     1      -7.712   0.988   0.985  0.00  0.00    +0.010 A 
ATOM     34  C   UNL     1      -7.912   2.293   1.339  0.00  0.00    +0.001 A 
ATOM     35  C   UNL     1      -9.177   2.857   1.262  0.00  0.00    +0.002 A 
ATOM     36  C   UNL     1     -10.252   2.117   0.819  0.00  0.00    +0.026 A 
ENDBRANCH  26  27
ENDBRANCH   1  26
TORSDOF 6
