REMARK  Name = ZINC20564621
REMARK  9 active torsions:
REMARK  status: ('A' for Active; 'I' for Inactive)
REMARK    1  A    between atoms: C_1  and  C_2
REMARK    2  A    between atoms: C_4  and  C_33
REMARK    3  A    between atoms: N_5  and  C_26
REMARK    4  A    between atoms: C_15  and  C_18
REMARK    5  A    between atoms: N_20  and  C_21
REMARK    6  A    between atoms: C_21  and  C_22
REMARK    7  A    between atoms: C_22  and  C_23
REMARK    8  A    between atoms: C_23  and  C_24
REMARK    9  A    between atoms: C_23  and  C_25
REMARK                            x       y       z     vdW  Elec       q    Type
REMARK                         _______ _______ _______ _____ _____    ______ ____
ROOT
ATOM      1  C   UNL     1       1.464  -5.875   2.249  0.00  0.00    +0.068 C 
ATOM      2  C   UNL     1       1.171  -4.420   1.990  0.00  0.00    +0.072 A 
ATOM      3  C   UNL     1      -0.165  -3.965   1.926  0.00  0.00    +0.049 A 
ATOM      4  C   UNL     1      -1.419  -4.520   2.044  0.00  0.00    +0.051 A 
ATOM      5  N   UNL     1      -2.322  -3.537   1.879  0.00  0.00    -0.236 N 
ATOM      6  N   UNL     1      -1.666  -2.321   1.650  0.00  0.00    -0.163 NA
ATOM      7  C   UNL     1      -0.369  -2.524   1.674  0.00  0.00    +0.137 A 
ATOM      8  C   UNL     1       0.838  -1.716   1.505  0.00  0.00    +0.172 A 
ATOM      9  N   UNL     1       2.008  -2.320   1.598  0.00  0.00    -0.132 NA
ATOM     10  N   UNL     1       2.151  -3.570   1.822  0.00  0.00    -0.152 NA
ATOM     11  N   UNL     1       0.756  -0.355   1.260  0.00  0.00    -0.311 N 
ATOM     12  C   UNL     1      -0.055  -0.083   0.066  0.00  0.00    +0.106 C 
ATOM     13  C   UNL     1      -0.245   1.427  -0.090  0.00  0.00    +0.020 C 
ATOM     14  C   UNL     1       1.125   2.098  -0.218  0.00  0.00    +0.016 C 
ATOM     15  C   UNL     1       1.968   1.760   1.015  0.00  0.00    +0.092 C 
ATOM     16  C   UNL     1       2.093   0.240   1.139  0.00  0.00    +0.119 C 
ATOM     17  C   UNL     1      -1.726  -5.971   2.311  0.00  0.00    +0.066 C 
ENDROOT
BRANCH   5  18
ATOM     18  C   UNL     1      -3.712  -3.705   1.929  0.00  0.00    +0.066 A 
ATOM     19  C   UNL     1      -4.524  -3.066   1.000  0.00  0.00    +0.029 A 
ATOM     20  C   UNL     1      -5.893  -3.238   1.048  0.00  0.00    +0.022 A 
ATOM     21  C   UNL     1      -6.458  -4.036   2.027  0.00  0.00    +0.041 A 
ATOM     22  C   UNL     1      -5.652  -4.668   2.958  0.00  0.00    +0.022 A 
ATOM     23  C   UNL     1      -4.282  -4.505   2.911  0.00  0.00    +0.029 A 
ATOM     24 CL   UNL     1      -8.180  -4.244   2.088  0.00  0.00    -0.084 Cl
ENDBRANCH   5  18
BRANCH  15  25
ATOM     25  C   UNL     1       3.339   2.368   0.870  0.00  0.00    +0.218 C 
ATOM     26  O   UNL     1       4.321   1.655   0.866  0.00  0.00    -0.275 OA
ATOM     27  N   UNL     1       3.475   3.703   0.744  0.00  0.00    -0.315 N 
ATOM     28  H   UNL     1       2.584   4.348   0.748  0.00  0.00    +0.149 HD
BRANCH  27  29
ATOM     29  C   UNL     1       4.808   4.293   0.603  0.00  0.00    +0.104 C 
BRANCH  29  30
ATOM     30  C   UNL     1       4.681   5.813   0.479  0.00  0.00    +0.022 C 
BRANCH  30  31
ATOM     31  C   UNL     1       6.074   6.430   0.332  0.00  0.00    -0.016 C 
ATOM     32  C   UNL     1       6.700   5.967  -0.985  0.00  0.00    +0.007 C 
ATOM     33  C   UNL     1       5.958   7.956   0.333  0.00  0.00    +0.007 C 
ENDBRANCH  30  31
ENDBRANCH  29  30
ENDBRANCH  27  29
ENDBRANCH  15  25
TORSDOF 5
