REMARK  Name = ZINC39677862
REMARK  9 active torsions:
REMARK  status: ('A' for Active; 'I' for Inactive)
REMARK    1  A    between atoms: C_1  and  C_2
REMARK    2  A    between atoms: C_2  and  C_4
REMARK    3  A    between atoms: C_2  and  O_35
REMARK    4  A    between atoms: C_8  and  C_17
REMARK    5  A    between atoms: N_19  and  C_20
REMARK    6  A    between atoms: C_20  and  C_21
REMARK    7  A    between atoms: N_24  and  C_28
REMARK    8  A    between atoms: C_28  and  C_29
REMARK    9  A    between atoms: O_35  and  C_36
REMARK                            x       y       z     vdW  Elec       q    Type
REMARK                         _______ _______ _______ _____ _____    ______ ____
ROOT
ATOM      1  C   UNL     1       0.720  -0.653   1.099  0.00  0.00    +0.256 C 
ATOM      2  O   UNL     1      -0.068  -1.103   1.904  0.00  0.00    -0.272 OA
ATOM      3  N   UNL     1       2.028  -0.568   1.413  0.00  0.00    -0.297 N 
ATOM      4  C   UNL     1       3.144  -0.125   0.544  0.00  0.00    +0.121 C 
ATOM      5  C   UNL     1       4.055   0.708   1.473  0.00  0.00    +0.100 C 
ATOM      6  C   UNL     1       3.745   0.195   2.889  0.00  0.00    -0.004 C 
ATOM      7  C   UNL     1       2.675  -0.891   2.707  0.00  0.00    +0.115 C 
ATOM      8  C   UNL     1       3.197   1.327   3.753  0.00  0.00    -0.010 C 
ATOM      9  C   UNL     1       2.950   0.806   5.172  0.00  0.00    -0.082 C 
ATOM     10  N   UNL     1       4.208   0.299   5.734  0.00  0.00    +0.379 N 
ATOM     11  C   UNL     1       4.680  -0.849   4.951  0.00  0.00    -0.082 C 
ATOM     12  C   UNL     1       5.000  -0.399   3.523  0.00  0.00    -0.010 C 
ATOM     13  H   UNL     1       4.904   1.029   5.711  0.00  0.00    -0.086 HD
ATOM     14  H   UNL     1       4.056   0.013   6.690  0.00  0.00    -0.086 HD
ENDROOT
BRANCH   5  15
ATOM     15  C   UNL     1       3.723   2.173   1.359  0.00  0.00    +0.218 C 
ATOM     16  O   UNL     1       2.568   2.526   1.249  0.00  0.00    -0.275 OA
ATOM     17  N   UNL     1       4.709   3.091   1.378  0.00  0.00    -0.313 N 
ATOM     18  H   UNL     1       5.633   2.809   1.465  0.00  0.00    +0.149 HD
BRANCH  17  19
ATOM     19  C   UNL     1       4.386   4.516   1.266  0.00  0.00    +0.137 C 
BRANCH  19  20
ATOM     20  C   UNL     1       5.676   5.337   1.315  0.00  0.00    +0.149 C 
ATOM     21  C   UNL     1       5.333   6.829   1.322  0.00  0.00    +0.118 C 
ATOM     22  N   UNL     1       6.576   7.613   1.290  0.00  0.00    -0.293 NA
ATOM     23  C   UNL     1       7.369   7.284   0.097  0.00  0.00    +0.113 C 
ATOM     24  C   UNL     1       7.692   5.787   0.102  0.00  0.00    +0.175 C 
ATOM     25  O   UNL     1       6.474   5.041   0.165  0.00  0.00    -0.372 OA
BRANCH  22  26
ATOM     26  C   UNL     1       6.293   9.053   1.354  0.00  0.00    +0.119 C 
BRANCH  26  27
ATOM     27  C   UNL     1       7.579   9.809   1.566  0.00  0.00    -0.033 A 
ATOM     28  C   UNL     1       8.023  10.070   2.849  0.00  0.00    +0.005 A 
ATOM     29  C   UNL     1       9.203  10.764   3.044  0.00  0.00    +0.000 A 
ATOM     30  C   UNL     1       9.938  11.196   1.956  0.00  0.00    +0.000 A 
ATOM     31  C   UNL     1       9.494  10.935   0.674  0.00  0.00    +0.000 A 
ATOM     32  C   UNL     1       8.317  10.237   0.479  0.00  0.00    +0.005 A 
ENDBRANCH  26  27
ENDBRANCH  22  26
ENDBRANCH  19  20
ENDBRANCH  17  19
ENDBRANCH   5  15
BRANCH   1  34
ATOM     33  C   UNL     1       0.344   1.335  -0.334  0.00  0.00    +0.062 C 
ATOM     34  C   UNL     1       0.237  -0.189  -0.250  0.00  0.00    +0.256 C 
BRANCH  34  35
ATOM     35  O   UNL     1      -1.125  -0.581  -0.429  0.00  0.00    -0.480 OA
BRANCH  35  36
ATOM     36  C   UNL     1      -1.561  -0.730  -1.708  0.00  0.00    +0.122 A 
ATOM     37  C   UNL     1      -0.731  -0.399  -2.768  0.00  0.00    +0.045 A 
ATOM     38  C   UNL     1      -1.176  -0.552  -4.067  0.00  0.00    +0.004 A 
ATOM     39  C   UNL     1      -2.449  -1.034  -4.310  0.00  0.00    +0.000 A 
ATOM     40  C   UNL     1      -3.279  -1.363  -3.255  0.00  0.00    +0.004 A 
ATOM     41  C   UNL     1      -2.836  -1.218  -1.955  0.00  0.00    +0.045 A 
ENDBRANCH  35  36
ENDBRANCH  34  35
ENDBRANCH   1  34
TORSDOF 8
