REMARK  Name = ZINC40923806
REMARK  9 active torsions:
REMARK  status: ('A' for Active; 'I' for Inactive)
REMARK    1  A    between atoms: C_1  and  C_2
REMARK    2  A    between atoms: C_2  and  C_3
REMARK    3  A    between atoms: C_6  and  C_9
REMARK    4  A    between atoms: C_18  and  C_21
REMARK    5  A    between atoms: N_23  and  C_24
REMARK    6  A    between atoms: C_24  and  C_25
REMARK    7  A    between atoms: C_25  and  C_26
REMARK    8  A    between atoms: C_29  and  S_32
REMARK    9  A    between atoms: S_32  and  N_35
REMARK                            x       y       z     vdW  Elec       q    Type
REMARK                         _______ _______ _______ _____ _____    ______ ____
ROOT
ATOM      1  C   UNL     1       2.696  -1.880  -4.730  0.00  0.00    +0.093 A 
ATOM      2  C   UNL     1       4.094  -1.889  -4.782  0.00  0.00    +0.033 A 
ATOM      3  C   UNL     1       4.697  -2.327  -5.947  0.00  0.00    +0.047 A 
ATOM      4  C   UNL     1       3.873  -2.734  -6.998  0.00  0.00    +0.144 A 
ATOM      5  N   UNL     1       2.556  -2.691  -6.860  0.00  0.00    -0.134 NA
ATOM      6  N   UNL     1       1.994  -2.289  -5.778  0.00  0.00    -0.147 NA
ATOM      7  N   UNL     1       4.434  -3.182  -8.189  0.00  0.00    -0.314 N 
ATOM      8  C   UNL     1       3.598  -3.388  -9.379  0.00  0.00    +0.107 C 
ATOM      9  C   UNL     1       3.820  -4.813  -9.896  0.00  0.00    +0.031 C 
ATOM     10  C   UNL     1       5.315  -5.038 -10.132  0.00  0.00    +0.078 C 
ATOM     11  C   UNL     1       6.071  -4.881  -8.810  0.00  0.00    +0.031 C 
ATOM     12  C   UNL     1       5.875  -3.452  -8.282  0.00  0.00    +0.107 C 
ENDROOT
BRANCH   1  16
ATOM     13  C   UNL     1       0.702  -0.561  -1.214  0.00  0.00    -0.048 A 
ATOM     14  C   UNL     1      -0.034  -0.986  -2.305  0.00  0.00    +0.004 A 
ATOM     15  C   UNL     1       0.608  -1.415  -3.449  0.00  0.00    +0.010 A 
ATOM     16  C   UNL     1       2.000  -1.419  -3.503  0.00  0.00    +0.002 A 
ATOM     17  C   UNL     1       2.737  -0.989  -2.401  0.00  0.00    +0.010 A 
ATOM     18  C   UNL     1       2.084  -0.557  -1.265  0.00  0.00    +0.004 A 
BRANCH  13  20
ATOM     19  C   UNL     1      -0.267   1.411  -0.063  0.00  0.00    +0.009 C 
ATOM     20  C   UNL     1      -0.005  -0.093   0.032  0.00  0.00    +0.032 C 
ENDBRANCH  13  20
ENDBRANCH   1  16
BRANCH  10  21
ATOM     21  C   UNL     1       5.535  -6.427 -10.673  0.00  0.00    +0.216 C 
ATOM     22  O   UNL     1       4.588  -7.165 -10.853  0.00  0.00    -0.276 OA
ATOM     23  N   UNL     1       6.782  -6.851 -10.958  0.00  0.00    -0.315 N 
ATOM     24  H   UNL     1       7.539  -6.261 -10.814  0.00  0.00    +0.149 HD
BRANCH  23  25
ATOM     25  C   UNL     1       6.995  -8.201 -11.484  0.00  0.00    +0.109 C 
BRANCH  25  26
ATOM     26  C   UNL     1       8.490  -8.427 -11.720  0.00  0.00    +0.054 C 
BRANCH  26  27
ATOM     27  C   UNL     1       8.709  -9.816 -12.261  0.00  0.00    -0.046 A 
ATOM     28  C   UNL     1       8.917 -10.871 -11.393  0.00  0.00    +0.005 A 
ATOM     29  C   UNL     1       9.118 -12.146 -11.889  0.00  0.00    +0.029 A 
ATOM     30  C   UNL     1       9.111 -12.364 -13.254  0.00  0.00    +0.105 A 
ATOM     31  C   UNL     1       8.902 -11.309 -14.123  0.00  0.00    +0.029 A 
ATOM     32  C   UNL     1       8.697 -10.036 -13.626  0.00  0.00    +0.005 A 
BRANCH  30  33
ATOM     33  S   UNL     1       9.369 -13.989 -13.887  0.00  0.00    +0.056 S 
ATOM     34  O   UNL     1       9.858 -13.835 -15.213  0.00  0.00    -0.153 OA
ATOM     35  O   UNL     1      10.083 -14.705 -12.890  0.00  0.00    -0.153 OA
BRANCH  33  36
ATOM     36  N   UNL     1       7.882 -14.707 -14.012  0.00  0.00    -0.204 NA
ATOM     37  H   UNL     1       7.084 -14.220 -13.753  0.00  0.00    +0.144 HD
ATOM     38  H   UNL     1       7.808 -15.615 -14.345  0.00  0.00    +0.144 HD
ENDBRANCH  33  36
ENDBRANCH  30  33
ENDBRANCH  26  27
ENDBRANCH  25  26
ENDBRANCH  23  25
ENDBRANCH  10  21
TORSDOF 8
