REMARK  Name = ZINC43575813
REMARK  5 active torsions:
REMARK  status: ('A' for Active; 'I' for Inactive)
REMARK    1  A    between atoms: C_1  and  C_2
REMARK    2  A    between atoms: C_2  and  C_3
REMARK    3  A    between atoms: C_6  and  N_9
REMARK    4  A    between atoms: C_10  and  C_14
REMARK    5  A    between atoms: C_17  and  N_21
REMARK                            x       y       z     vdW  Elec       q    Type
REMARK                         _______ _______ _______ _____ _____    ______ ____
ROOT
ATOM      1  N   UNL     1      -4.911  -2.732  -1.124  0.00  0.00    -0.222 N 
ATOM      2  C   UNL     1      -5.519  -3.483  -2.076  0.00  0.00    +0.185 A 
ATOM      3  N   UNL     1      -6.767  -3.658  -1.692  0.00  0.00    -0.108 NA
ATOM      4  N   UNL     1      -6.978  -3.070  -0.571  0.00  0.00    -0.023 NA
ATOM      5  N   UNL     1      -5.903  -2.491  -0.157  0.00  0.00    -0.043 NA
ENDROOT
BRANCH   2   6
ATOM      6  C   UNL     1      -4.898  -4.007  -3.312  0.00  0.00    +0.056 A 
ATOM      7  C   UNL     1      -3.661  -4.652  -3.254  0.00  0.00    +0.016 A 
ATOM      8  C   UNL     1      -3.085  -5.139  -4.406  0.00  0.00    +0.023 A 
ATOM      9  C   UNL     1      -3.733  -4.989  -5.628  0.00  0.00    +0.027 A 
ATOM     10  C   UNL     1      -4.964  -4.347  -5.691  0.00  0.00    +0.061 A 
ATOM     11  C   UNL     1      -5.550  -3.861  -4.540  0.00  0.00    +0.136 A 
ATOM     12  F   UNL     1      -6.749  -3.242  -4.600  0.00  0.00    -0.205 F 
BRANCH   9  13
ATOM     13  N   UNL     1      -3.146  -5.483  -6.792  0.00  0.00    -0.358 N 
ATOM     14  H   UNL     1      -2.287  -5.931  -6.750  0.00  0.00    +0.142 HD
ATOM     15  H   UNL     1      -3.597  -5.379  -7.645  0.00  0.00    +0.142 HD
ENDBRANCH   9  13
ENDBRANCH   2   6
BRANCH   1  19
ATOM     16  C   UNL     1      -1.292  -0.944   0.255  0.00  0.00    -0.011 C 
ATOM     17  C   UNL     1      -2.030  -0.280  -0.909  0.00  0.00    +0.005 C 
ATOM     18  C   UNL     1      -3.483  -0.756  -0.929  0.00  0.00    +0.027 C 
ATOM     19  C   UNL     1      -3.519  -2.276  -1.104  0.00  0.00    +0.111 C 
ATOM     20  C   UNL     1      -2.781  -2.941   0.060  0.00  0.00    +0.027 C 
ATOM     21  C   UNL     1      -1.328  -2.464   0.081  0.00  0.00    +0.005 C 
BRANCH  16  23
ATOM     22  C   UNL     1       0.203   1.032   0.575  0.00  0.00    +0.004 C 
ATOM     23  C   UNL     1       0.162  -0.468   0.276  0.00  0.00    -0.000 C 
ENDBRANCH  16  23
ENDBRANCH   1  19
TORSDOF 4
