REMARK  Name = ZINC15773018
REMARK  14 active torsions:
REMARK  status: ('A' for Active; 'I' for Inactive)
REMARK    1  A    between atoms: C_1  and  N_63
REMARK    2  A    between atoms: C_2  and  N_63
REMARK    3  A    between atoms: C_3  and  C_4
REMARK    4  A    between atoms: C_3  and  N_63
REMARK    5  A    between atoms: C_6  and  C_30
REMARK    6  A    between atoms: C_7  and  N_20
REMARK    7  A    between atoms: C_8  and  N_10
REMARK    8  A    between atoms: N_10  and  S_11
REMARK    9  A    between atoms: S_11  and  C_14
REMARK   10  A    between atoms: N_20  and  S_21
REMARK   11  A    between atoms: S_21  and  C_24
REMARK   12  A    between atoms: C_30  and  N_65
REMARK   13  A    between atoms: C_31  and  N_65
REMARK   14  A    between atoms: C_32  and  N_65
REMARK                            x       y       z     vdW  Elec       q    Type
REMARK                         _______ _______ _______ _____ _____    ______ ____
ROOT
ATOM      1  C   UNL     1       4.150   2.791  -2.599  0.00  0.00    -0.062 A 
ATOM      2  C   UNL     1       3.512   2.667  -3.819  0.00  0.00    +0.005 A 
ATOM      3  C   UNL     1       3.263   1.414  -4.349  0.00  0.00    -0.040 A 
ATOM      4  C   UNL     1       3.653   0.278  -3.656  0.00  0.00    +0.072 A 
ATOM      5  C   UNL     1       4.297   0.404  -2.425  0.00  0.00    +0.071 A 
ATOM      6  C   UNL     1       4.539   1.663  -1.899  0.00  0.00    +0.028 A 
ENDROOT
BRANCH   5   7
ATOM      7  N   UNL     1       4.694  -0.740  -1.721  0.00  0.00    -0.214 N 
ATOM      8  H   UNL     1       4.067  -1.188  -1.133  0.00  0.00    +0.174 HD
BRANCH   7   9
ATOM      9  S   UNL     1       6.233  -1.325  -1.891  0.00  0.00    +0.072 S 
ATOM     10  O   UNL     1       6.493  -1.384  -3.287  0.00  0.00    -0.150 OA
ATOM     11  O   UNL     1       6.330  -2.466  -1.050  0.00  0.00    -0.150 OA
BRANCH   9  12
ATOM     12  C   UNL     1       7.328  -0.115  -1.227  0.00  0.00    +0.108 A 
ATOM     13  C   UNL     1       7.594  -0.094   0.130  0.00  0.00    +0.029 A 
ATOM     14  C   UNL     1       8.453   0.856   0.651  0.00  0.00    +0.002 A 
ATOM     15  C   UNL     1       9.045   1.785  -0.184  0.00  0.00    +0.000 A 
ATOM     16  C   UNL     1       8.779   1.764  -1.540  0.00  0.00    +0.002 A 
ATOM     17  C   UNL     1       7.920   0.815  -2.062  0.00  0.00    +0.029 A 
ENDBRANCH   9  12
ENDBRANCH   7   9
ENDBRANCH   5   7
BRANCH   4  18
ATOM     18  N   UNL     1       3.402  -0.991  -4.191  0.00  0.00    -0.214 N 
ATOM     19  H   UNL     1       3.598  -1.172  -5.124  0.00  0.00    +0.174 HD
BRANCH  18  20
ATOM     20  S   UNL     1       2.772  -2.184  -3.231  0.00  0.00    +0.072 S 
ATOM     21  O   UNL     1       2.311  -3.207  -4.104  0.00  0.00    -0.150 OA
ATOM     22  O   UNL     1       3.728  -2.430  -2.209  0.00  0.00    -0.150 OA
BRANCH  20  23
ATOM     23  C   UNL     1       1.347  -1.518  -2.439  0.00  0.00    +0.108 A 
ATOM     24  C   UNL     1       1.486  -0.750  -1.298  0.00  0.00    +0.029 A 
ATOM     25  C   UNL     1       0.368  -0.222  -0.680  0.00  0.00    +0.002 A 
ATOM     26  C   UNL     1      -0.890  -0.471  -1.196  0.00  0.00    +0.000 A 
ATOM     27  C   UNL     1      -1.029  -1.244  -2.334  0.00  0.00    +0.002 A 
ATOM     28  C   UNL     1       0.089  -1.767  -2.955  0.00  0.00    +0.029 A 
ENDBRANCH  20  23
ENDBRANCH  18  20
ENDBRANCH   4  18
BRANCH   1  29
ATOM     29  C   UNL     1       4.418   4.159  -2.027  0.00  0.00    -0.044 C 
BRANCH  29  32
ATOM     30  C   UNL     1       3.598   5.790  -0.435  0.00  0.00    -0.096 C 
ATOM     31  C   UNL     1       2.074   4.767  -2.015  0.00  0.00    -0.096 C 
ATOM     32  N   UNL     1       3.273   4.554  -1.178  0.00  0.00    +0.379 N 
ATOM     33  H   UNL     1       3.082   3.801  -0.507  0.00  0.00    -0.082 HD
ENDBRANCH  29  32
ENDBRANCH   1  29
BRANCH   3  34
ATOM     34  C   UNL     1       2.567   1.284  -5.679  0.00  0.00    -0.042 C 
BRANCH  34  37
ATOM     35  C   UNL     1       0.398   1.270  -6.755  0.00  0.00    -0.096 C 
ATOM     36  C   UNL     1       0.717   0.104  -4.657  0.00  0.00    -0.096 C 
ATOM     37  N   UNL     1       1.106   1.284  -5.457  0.00  0.00    +0.379 N 
ATOM     38  H   UNL     1       0.847   2.135  -4.945  0.00  0.00    -0.082 HD
ENDBRANCH  34  37
ENDBRANCH   3  34
TORSDOF 10
