REMARK  Name = ZINC52470429
REMARK  7 active torsions:
REMARK  status: ('A' for Active; 'I' for Inactive)
REMARK    1  A    between atoms: C_1  and  C_2
REMARK    2  A    between atoms: C_2  and  C_4
REMARK    3  A    between atoms: C_2  and  N_14
REMARK    4  A    between atoms: C_8  and  O_10
REMARK    5  A    between atoms: O_10  and  C_11
REMARK    6  A    between atoms: N_17  and  C_18
REMARK    7  A    between atoms: C_22  and  C_24
REMARK                            x       y       z     vdW  Elec       q    Type
REMARK                         _______ _______ _______ _____ _____    ______ ____
ROOT
ATOM      1  N   UNL     1       0.711  -0.484   1.191  0.00  0.00    -0.293 N 
ATOM      2  C   UNL     1       2.053  -0.602   1.173  0.00  0.00    +0.304 C 
ATOM      3  O   UNL     1       2.676  -0.307   0.171  0.00  0.00    -0.252 OA
ATOM      4  N   UNL     1       2.706  -1.046   2.266  0.00  0.00    -0.269 N 
ATOM      5  H   UNL     1       0.214  -0.719   1.990  0.00  0.00    +0.151 HD
ATOM      6  H   UNL     1       2.217  -1.218   3.086  0.00  0.00    +0.156 HD
ENDROOT
BRANCH   4   7
ATOM      7  C   UNL     1       4.088  -1.261   2.217  0.00  0.00    +0.035 A 
ATOM      8  C   UNL     1       4.654  -2.312   2.928  0.00  0.00    +0.023 A 
ATOM      9  C   UNL     1       6.018  -2.528   2.883  0.00  0.00    +0.002 A 
ATOM     10  C   UNL     1       6.828  -1.701   2.131  0.00  0.00    +0.012 A 
ATOM     11  C   UNL     1       6.269  -0.642   1.413  0.00  0.00    +0.021 A 
ATOM     12  C   UNL     1       4.891  -0.428   1.454  0.00  0.00    +0.035 A 
BRANCH  11  13
ATOM     13  C   UNL     1       7.134   0.245   0.606  0.00  0.00    +0.153 A 
ATOM     14  C   UNL     1       8.481   0.151   0.464  0.00  0.00    +0.132 A 
ATOM     15  N   UNL     1       8.871   1.145  -0.347  0.00  0.00    -0.335 N 
ATOM     16  C   UNL     1       7.825   1.836  -0.703  0.00  0.00    +0.284 A 
ATOM     17  O   UNL     1       6.735   1.302  -0.135  0.00  0.00    -0.444 OA
ATOM     18  H   UNL     1       9.784   1.321  -0.624  0.00  0.00    +0.168 HD
ENDBRANCH  11  13
ENDBRANCH   4   7
BRANCH   1  20
ATOM     19  C   UNL     1      -0.010   1.529   0.004  0.00  0.00    +0.033 C 
ATOM     20  C   UNL     1       0.002  -0.001   0.004  0.00  0.00    +0.102 C 
BRANCH  20  21
ATOM     21  C   UNL     1      -1.415  -0.515   0.020  0.00  0.00    -0.024 A 
ATOM     22  C   UNL     1      -2.123  -0.550   1.208  0.00  0.00    +0.006 A 
ATOM     23  C   UNL     1      -3.422  -1.021   1.227  0.00  0.00    +0.004 A 
ATOM     24  C   UNL     1      -4.017  -1.458   0.059  0.00  0.00    +0.046 A 
ATOM     25  C   UNL     1      -3.309  -1.424  -1.134  0.00  0.00    +0.127 A 
ATOM     26  C   UNL     1      -2.007  -0.945  -1.151  0.00  0.00    +0.051 A 
BRANCH  25  27
ATOM     27  O   UNL     1      -3.892  -1.853  -2.284  0.00  0.00    -0.434 OA
BRANCH  27  28
ATOM     28  C   UNL     1      -5.236  -2.327  -2.192  0.00  0.00    +0.541 C 
ATOM     29  F   UNL     1      -5.288  -3.416  -1.315  0.00  0.00    -0.166 F 
ATOM     30  F   UNL     1      -6.060  -1.303  -1.713  0.00  0.00    -0.166 F 
ENDBRANCH  27  28
ENDBRANCH  25  27
ENDBRANCH  20  21
ENDBRANCH   1  20
TORSDOF 6
