REMARK  Name = ZINC43297996
REMARK  3 active torsions:
REMARK  status: ('A' for Active; 'I' for Inactive)
REMARK    1  A    between atoms: N_3  and  C_10
REMARK    2  A    between atoms: C_5  and  C_6
REMARK    3  A    between atoms: C_15  and  N_16
REMARK                            x       y       z     vdW  Elec       q    Type
REMARK                         _______ _______ _______ _____ _____    ______ ____
ROOT
ATOM      1  C   UNL     1       3.470   0.745   0.004  0.00  0.00    +0.088 A 
ATOM      2  C   UNL     1       4.148   1.946  -0.095  0.00  0.00    +0.058 A 
ATOM      3  C   UNL     1       5.543   1.951  -0.139  0.00  0.00    +0.080 A 
ATOM      4  C   UNL     1       6.246   0.727  -0.082  0.00  0.00    +0.067 A 
ATOM      5  C   UNL     1       5.551  -0.478   0.018  0.00  0.00    +0.040 A 
ATOM      6  C   UNL     1       4.170  -0.466   0.065  0.00  0.00    +0.051 A 
ATOM      7  C   UNL     1       7.714   0.771  -0.132  0.00  0.00    +0.259 A 
ATOM      8  O   UNL     1       8.380  -0.247  -0.087  0.00  0.00    -0.267 OA
ATOM      9  N   UNL     1       8.298   1.988  -0.229  0.00  0.00    -0.313 N 
ATOM     10  H   UNL     1       9.265   2.056  -0.265  0.00  0.00    +0.170 HD
ATOM     11  C   UNL     1       7.542   3.117  -0.278  0.00  0.00    +0.199 A 
ATOM     12  N   UNL     1       6.245   3.109  -0.237  0.00  0.00    -0.237 NA
ENDROOT
BRANCH   1  15
ATOM     13  C   UNL     1      -0.029   1.151  -0.408  0.00  0.00    +0.054 A 
ATOM     14  C   UNL     1       1.242   1.422  -0.784  0.00  0.00    +0.115 A 
ATOM     15  N   UNL     1       2.071   0.741   0.048  0.00  0.00    -0.237 N 
ATOM     16  N   UNL     1       1.276   0.033   0.959  0.00  0.00    -0.162 NA
ATOM     17  C   UNL     1       0.021   0.279   0.685  0.00  0.00    +0.166 A 
BRANCH  17  18
ATOM     18  C   UNL     1      -1.169  -0.281   1.422  0.00  0.00    +0.436 C 
ATOM     19  F   UNL     1      -1.560  -1.486   0.828  0.00  0.00    -0.164 F 
ATOM     20  F   UNL     1      -0.825  -0.509   2.758  0.00  0.00    -0.164 F 
ATOM     21  F   UNL     1      -2.227   0.633   1.362  0.00  0.00    -0.164 F 
ENDBRANCH  17  18
ENDBRANCH   1  15
BRANCH   6  22
ATOM     22  N   UNL     1       3.467  -1.671   0.171  0.00  0.00    -0.356 N 
ATOM     23  H   UNL     1       2.500  -1.675   0.106  0.00  0.00    +0.142 HD
ATOM     24  H   UNL     1       3.948  -2.502   0.308  0.00  0.00    +0.142 HD
ENDBRANCH   6  22
TORSDOF 3
