REMARK  Name = ZINC06651252
REMARK  7 active torsions:
REMARK  status: ('A' for Active; 'I' for Inactive)
REMARK    1  A    between atoms: C_1  and  C_2
REMARK    2  A    between atoms: C_7  and  N_12
REMARK    3  A    between atoms: C_9  and  C_11
REMARK    4  A    between atoms: C_16  and  C_18
REMARK    5  A    between atoms: C_18  and  O_19
REMARK    6  A    between atoms: O_19  and  C_20
REMARK    7  A    between atoms: C_25  and  C_26
REMARK                            x       y       z     vdW  Elec       q    Type
REMARK                         _______ _______ _______ _____ _____    ______ ____
ROOT
ATOM      1  N   UNL     1      -1.191   1.869   0.018  0.00  0.00    -0.296 N 
ATOM      2  C   UNL     1      -0.014   1.211   0.009  0.00  0.00    +0.306 C 
ATOM      3  O   UNL     1       0.002  -0.004   0.002  0.00  0.00    -0.252 OA
ATOM      4  N   UNL     1       1.143   1.901   0.001  0.00  0.00    -0.237 N 
ATOM      5  C   UNL     1       2.320   1.243  -0.013  0.00  0.00    +0.258 C 
ATOM      6  O   UNL     1       2.336   0.031  -0.020  0.00  0.00    -0.272 OA
ATOM      7  H   UNL     1      -1.204   2.839   0.023  0.00  0.00    +0.151 HD
ATOM      8  H   UNL     1       1.130   2.871   0.007  0.00  0.00    +0.159 HD
ENDROOT
BRANCH   1  14
ATOM      9  C   UNL     1      -5.972   2.054   1.261  0.00  0.00    +0.008 C 
ATOM     10  C   UNL     1      -4.868   1.195   0.641  0.00  0.00    -0.009 C 
ATOM     11  C   UNL     1      -5.249   0.834  -0.796  0.00  0.00    +0.003 C 
ATOM     12  C   UNL     1      -4.144  -0.025  -1.415  0.00  0.00    +0.002 C 
ATOM     13  C   UNL     1      -2.830   0.758  -1.417  0.00  0.00    +0.022 C 
ATOM     14  C   UNL     1      -2.449   1.119   0.020  0.00  0.00    +0.078 C 
ATOM     15  C   UNL     1      -3.554   1.978   0.639  0.00  0.00    +0.009 C 
ATOM     16  C   UNL     1      -3.173   2.340   2.076  0.00  0.00    +0.009 C 
ENDBRANCH   1  14
BRANCH   5  17
ATOM     17  C   UNL     1       3.614   2.014  -0.022  0.00  0.00    +0.325 C 
BRANCH  17  18
ATOM     18  O   UNL     1       4.713   1.100  -0.037  0.00  0.00    -0.482 OA
BRANCH  18  19
ATOM     19  C   UNL     1       5.959   1.636  -0.046  0.00  0.00    +0.133 A 
ATOM     20  C   UNL     1       6.126   3.013  -0.040  0.00  0.00    +0.046 A 
ATOM     21  C   UNL     1       7.395   3.557  -0.049  0.00  0.00    +0.004 A 
ATOM     22  C   UNL     1       8.510   2.734  -0.064  0.00  0.00    +0.001 A 
ATOM     23  C   UNL     1       8.363   1.364  -0.069  0.00  0.00    +0.017 A 
ATOM     24  C   UNL     1       7.084   0.800  -0.055  0.00  0.00    +0.078 A 
BRANCH  24  25
ATOM     25  C   UNL     1       6.920  -0.666  -0.056  0.00  0.00    +0.245 C 
ATOM     26  O   UNL     1       5.805  -1.152  -0.048  0.00  0.00    -0.270 OA
ATOM     27  N   UNL     1       8.004  -1.466  -0.065  0.00  0.00    -0.325 N 
ATOM     28  H   UNL     1       8.893  -1.077  -0.071  0.00  0.00    +0.145 HD
ATOM     29  H   UNL     1       7.896  -2.430  -0.065  0.00  0.00    +0.145 HD
ENDBRANCH  24  25
ENDBRANCH  18  19
ENDBRANCH  17  18
ENDBRANCH   5  17
TORSDOF 5
