REMARK  Name = ZINC39549090
REMARK  5 active torsions:
REMARK  status: ('A' for Active; 'I' for Inactive)
REMARK    1  A    between atoms: C_1  and  C_2
REMARK    2  A    between atoms: C_9  and  C_14
REMARK    3  A    between atoms: N_16  and  C_17
REMARK    4  A    between atoms: C_19  and  C_29
REMARK    5  A    between atoms: C_22  and  N_23
REMARK                            x       y       z     vdW  Elec       q    Type
REMARK                         _______ _______ _______ _____ _____    ______ ____
ROOT
ATOM      1  C   UNL     1      -0.443  -6.496   1.210  0.00  0.00    +0.248 C 
ATOM      2  O   UNL     1      -1.182  -6.939   0.351  0.00  0.00    -0.270 OA
ATOM      3  N   UNL     1       0.006  -7.300   2.193  0.00  0.00    -0.280 N 
ATOM      4  H   UNL     1       0.657  -6.970   2.831  0.00  0.00    +0.155 HD
ENDROOT
BRANCH   1  12
ATOM      5  C   UNL     1       1.193   1.149  -0.947  0.00  0.00    +0.029 C 
ATOM      6  C   UNL     1       1.191  -0.365  -0.729  0.00  0.00    +0.134 C 
ATOM      7  C   UNL     1      -0.057  -0.959  -1.324  0.00  0.00    +0.230 C 
ATOM      8  O   UNL     1      -0.593  -0.367  -2.237  0.00  0.00    -0.274 OA
ATOM      9  N   UNL     1      -0.604  -2.096  -0.905  0.00  0.00    -0.284 N 
ATOM     10  C   UNL     1      -0.127  -2.913   0.117  0.00  0.00    +0.048 A 
ATOM     11  C   UNL     1      -0.505  -4.245   0.155  0.00  0.00    +0.037 A 
ATOM     12  C   UNL     1      -0.039  -5.078   1.175  0.00  0.00    +0.039 A 
ATOM     13  C   UNL     1       0.810  -4.570   2.163  0.00  0.00    +0.014 A 
ATOM     14  C   UNL     1       1.187  -3.246   2.126  0.00  0.00    +0.017 A 
ATOM     15  C   UNL     1       0.726  -2.419   1.110  0.00  0.00    +0.030 A 
ATOM     16  S   UNL     1       1.221  -0.724   1.054  0.00  0.00    -0.111 S 
ATOM     17  H   UNL     1      -1.414  -2.384  -1.354  0.00  0.00    +0.155 HD
ENDBRANCH   1  12
BRANCH   3  18
ATOM     18  C   UNL     1      -0.469  -8.615   2.294  0.00  0.00    +0.056 A 
ATOM     19  C   UNL     1      -1.705  -8.946   1.773  0.00  0.00    +0.038 A 
ATOM     20  C   UNL     1      -2.175 -10.258   1.876  0.00  0.00    +0.038 A 
ATOM     21  C   UNL     1      -1.393 -11.231   2.505  0.00  0.00    +0.015 A 
ATOM     22  C   UNL     1      -0.161 -10.897   3.023  0.00  0.00    +0.026 A 
ATOM     23  C   UNL     1       0.311  -9.594   2.917  0.00  0.00    +0.051 A 
BRANCH  23  24
ATOM     24  N   UNL     1       1.559  -9.262   3.437  0.00  0.00    -0.328 N 
ATOM     25  C   UNL     1       1.694  -8.810   4.828  0.00  0.00    +0.105 C 
ATOM     26  C   UNL     1       2.740  -9.682   5.531  0.00  0.00    +0.019 C 
ATOM     27  C   UNL     1       4.044  -9.652   4.730  0.00  0.00    +0.003 C 
ATOM     28  C   UNL     1       3.800 -10.223   3.332  0.00  0.00    +0.019 C 
ATOM     29  C   UNL     1       2.767  -9.363   2.606  0.00  0.00    +0.105 C 
ENDBRANCH  23  24
BRANCH  20  30
ATOM     30  C   UNL     1      -3.494 -10.617   1.321  0.00  0.00    +0.242 C 
ATOM     31  O   UNL     1      -4.174  -9.770   0.774  0.00  0.00    -0.270 OA
ATOM     32  N   UNL     1      -3.946 -11.882   1.421  0.00  0.00    -0.325 N 
ATOM     33  H   UNL     1      -3.404 -12.558   1.857  0.00  0.00    +0.145 HD
ATOM     34  H   UNL     1      -4.813 -12.118   1.056  0.00  0.00    +0.145 HD
ENDBRANCH  20  30
ENDBRANCH   3  18
TORSDOF 4
