REMARK  Name = ZINC39456611
REMARK  7 active torsions:
REMARK  status: ('A' for Active; 'I' for Inactive)
REMARK    1  A    between atoms: C_1  and  C_2
REMARK    2  A    between atoms: C_3  and  S_29
REMARK    3  A    between atoms: C_10  and  C_18
REMARK    4  A    between atoms: C_23  and  O_24
REMARK    5  A    between atoms: S_29  and  C_32
REMARK    6  A    between atoms: C_32  and  C_33
REMARK    7  A    between atoms: C_32  and  C_34
REMARK                            x       y       z     vdW  Elec       q    Type
REMARK                         _______ _______ _______ _____ _____    ______ ____
ROOT
ATOM      1  C   UNL     1      -0.018   1.503   0.010  0.00  0.00    +0.067 C 
ATOM      2  C   UNL     1       0.002  -0.004   0.002  0.00  0.00    +0.058 A 
ATOM      3  C   UNL     1       0.008  -0.788  -1.103  0.00  0.00    +0.114 A 
ATOM      4  C   UNL     1       0.032  -2.119  -0.681  0.00  0.00    +0.006 A 
ATOM      5  C   UNL     1       0.052  -2.104   0.692  0.00  0.00    +0.090 A 
ATOM      6  N   UNL     1       0.024  -0.805   1.105  0.00  0.00    -0.253 N 
ATOM      7 CL   UNL     1       0.015  -0.271   2.729  0.00  0.00    +0.019 Cl
ATOM      8  C   UNL     1       0.125  -3.338   1.495  0.00  0.00    +0.101 A 
ATOM      9  C   UNL     1       1.092  -4.351   1.049  0.00  0.00    +0.053 A 
ATOM     10  C   UNL     1       1.175  -5.560   1.749  0.00  0.00    +0.007 A 
ATOM     11  C   UNL     1       0.327  -5.724   2.877  0.00  0.00    +0.009 A 
ATOM     12  C   UNL     1       0.357  -6.912   3.622  0.00  0.00    +0.010 A 
ATOM     13  C   UNL     1      -0.449  -7.048   4.712  0.00  0.00    +0.001 A 
ATOM     14  C   UNL     1      -1.308  -6.021   5.095  0.00  0.00    +0.002 A 
ATOM     15  C   UNL     1      -1.369  -4.858   4.389  0.00  0.00    +0.028 A 
ATOM     16  C   UNL     1      -0.554  -4.683   3.255  0.00  0.00    +0.072 A 
ATOM     17  N   UNL     1      -0.626  -3.543   2.552  0.00  0.00    -0.244 NA
ATOM     18  C   UNL     1       1.943  -4.043  -0.093  0.00  0.00    +0.166 C 
ATOM     19  O   UNL     1       3.112  -3.776   0.091  0.00  0.00    -0.292 OA
ATOM     20  C   UNL     1       1.396  -4.050  -1.502  0.00  0.00    +0.084 C 
ATOM     21  C   UNL     1       0.024  -3.365  -1.519  0.00  0.00    +0.047 C 
ENDROOT
BRANCH  10  22
ATOM     22  C   UNL     1       2.108  -6.624   1.331  0.00  0.00    +0.025 A 
ATOM     23  C   UNL     1       3.406  -6.663   1.847  0.00  0.00    +0.012 A 
ATOM     24  C   UNL     1       4.272  -7.660   1.452  0.00  0.00    +0.001 A 
ATOM     25  C   UNL     1       3.862  -8.623   0.545  0.00  0.00    +0.004 A 
ATOM     26  C   UNL     1       2.582  -8.596   0.027  0.00  0.00    +0.046 A 
ATOM     27  C   UNL     1       1.696  -7.604   0.417  0.00  0.00    +0.125 A 
BRANCH  27  28
ATOM     28  O   UNL     1       0.436  -7.580  -0.086  0.00  0.00    -0.506 OA
ATOM     29  H   UNL     1       0.348  -7.067  -0.901  0.00  0.00    +0.292 HD
ENDBRANCH  27  28
ENDBRANCH  10  22
BRANCH   3  30
ATOM     30  S   UNL     1      -0.013  -0.230  -2.774  0.00  0.00    +0.001 S 
ATOM     31  O   UNL     1      -0.604  -1.295  -3.506  0.00  0.00    -0.169 OA
ATOM     32  O   UNL     1      -0.637   1.046  -2.722  0.00  0.00    -0.169 OA
BRANCH  30  33
ATOM     33  C   UNL     1       1.734  -0.053  -3.228  0.00  0.00    +0.130 C 
ATOM     34  C   UNL     1       2.436  -1.406  -3.093  0.00  0.00    +0.032 C 
ATOM     35  C   UNL     1       1.838   0.433  -4.675  0.00  0.00    +0.032 C 
ENDBRANCH  30  33
ENDBRANCH   3  30
TORSDOF 4
