REMARK  Name = ZINC63573068
REMARK  8 active torsions:
REMARK  status: ('A' for Active; 'I' for Inactive)
REMARK    1  A    between atoms: C_1  and  C_2
REMARK    2  A    between atoms: C_5  and  N_9
REMARK    3  A    between atoms: C_6  and  C_8
REMARK    4  A    between atoms: C_18  and  O_35
REMARK    5  A    between atoms: C_25  and  C_27
REMARK    6  A    between atoms: C_30  and  O_33
REMARK    7  A    between atoms: O_33  and  C_34
REMARK    8  A    between atoms: O_35  and  C_36
REMARK                            x       y       z     vdW  Elec       q    Type
REMARK                         _______ _______ _______ _____ _____    ______ ____
ROOT
ATOM      1  N   UNL     1      -1.727  -4.349  -0.374  0.00  0.00    -0.269 N 
ATOM      2  C   UNL     1      -1.217  -4.989  -1.445  0.00  0.00    +0.307 C 
ATOM      3  O   UNL     1      -1.132  -4.415  -2.513  0.00  0.00    -0.252 OA
ATOM      4  N   UNL     1      -0.802  -6.267  -1.333  0.00  0.00    -0.276 N 
ATOM      5  C   UNL     1      -1.039  -6.999  -0.084  0.00  0.00    +0.114 C 
ATOM      6  C   UNL     1       0.304  -7.493   0.484  0.00  0.00    +0.052 C 
ATOM      7  C   UNL     1       1.070  -8.088  -0.672  0.00  0.00    -0.035 C 
ATOM      8  C   UNL     1       1.661  -9.266  -0.819  0.00  0.00    +0.003 A 
ATOM      9  C   UNL     1       1.882 -10.379   0.118  0.00  0.00    +0.055 A 
ATOM     10  C   UNL     1       2.520 -11.476  -0.375  0.00  0.00    +0.121 A 
ATOM     11  C   UNL     1       2.966 -11.594  -1.700  0.00  0.00    +0.047 A 
ATOM     12  C   UNL     1       2.822 -10.627  -2.643  0.00  0.00    +0.029 A 
ATOM     13  C   UNL     1       2.153  -9.388  -2.226  0.00  0.00    +0.043 A 
ATOM     14  N   UNL     1       1.899  -8.302  -2.892  0.00  0.00    -0.375 N 
ATOM     15  C   UNL     1       1.276  -7.339  -1.984  0.00  0.00    +0.131 C 
ATOM     16  C   UNL     1      -0.120  -6.913  -2.465  0.00  0.00    +0.134 C 
ATOM     17  H   UNL     1      -1.719  -4.778   0.496  0.00  0.00    +0.156 HD
ATOM     18  H   UNL     1       2.090  -8.155  -3.832  0.00  0.00    +0.160 HD
ENDROOT
BRANCH   1  23
ATOM     19  C   UNL     1      -3.915   0.852  -0.955  0.00  0.00    +0.044 C 
ATOM     20  C   UNL     1      -3.334  -0.529  -0.801  0.00  0.00    -0.050 A 
ATOM     21  C   UNL     1      -2.354  -0.967  -1.673  0.00  0.00    +0.005 A 
ATOM     22  C   UNL     1      -1.819  -2.233  -1.534  0.00  0.00    +0.024 A 
ATOM     23  C   UNL     1      -2.266  -3.066  -0.517  0.00  0.00    +0.038 A 
ATOM     24  C   UNL     1      -3.250  -2.624   0.357  0.00  0.00    -0.029 A 
ATOM     25  C   UNL     1      -3.777  -1.355   0.216  0.00  0.00    +0.008 A 
ATOM     26  C   UNL     1      -3.738  -3.525   1.462  0.00  0.00    +0.045 C 
ENDBRANCH   1  23
BRANCH  16  27
ATOM     27  C   UNL     1       0.006  -5.939  -3.608  0.00  0.00    -0.024 A 
ATOM     28  C   UNL     1       0.780  -4.803  -3.464  0.00  0.00    +0.009 A 
ATOM     29  C   UNL     1       0.897  -3.908  -4.510  0.00  0.00    +0.046 A 
ATOM     30  C   UNL     1       0.237  -4.151  -5.706  0.00  0.00    +0.120 A 
ATOM     31  C   UNL     1      -0.538  -5.293  -5.849  0.00  0.00    +0.046 A 
ATOM     32  C   UNL     1      -0.647  -6.187  -4.801  0.00  0.00    +0.009 A 
BRANCH  30  33
ATOM     33  O   UNL     1       0.351  -3.272  -6.737  0.00  0.00    -0.495 OA
ATOM     34  C   UNL     1      -0.356  -3.587  -7.939  0.00  0.00    +0.277 C 
ENDBRANCH  30  33
ENDBRANCH  16  27
BRANCH  10  35
ATOM     35  O   UNL     1       2.739 -12.520   0.467  0.00  0.00    -0.495 OA
ATOM     36  C   UNL     1       3.410 -13.660  -0.073  0.00  0.00    +0.277 C 
ENDBRANCH  10  35
TORSDOF 4
