REMARK  Name = ZINC36206524
REMARK  11 active torsions:
REMARK  status: ('A' for Active; 'I' for Inactive)
REMARK    1  A    between atoms: C_1  and  C_2
REMARK    2  A    between atoms: C_5  and  C_35
REMARK    3  A    between atoms: C_6  and  C_8
REMARK    4  A    between atoms: C_17  and  C_19
REMARK    5  A    between atoms: C_19  and  N_20
REMARK    6  A    between atoms: N_20  and  C_21
REMARK    7  A    between atoms: N_20  and  C_32
REMARK    8  A    between atoms: C_21  and  C_22
REMARK    9  A    between atoms: C_22  and  C_24
REMARK   10  A    between atoms: C_22  and  O_31
REMARK   11  A    between atoms: C_24  and  C_25
REMARK                            x       y       z     vdW  Elec       q    Type
REMARK                         _______ _______ _______ _____ _____    ______ ____
ROOT
ATOM      1  C   UNL     1      -0.442  -3.550   2.568  0.00  0.00    +0.004 A 
ATOM      2  C   UNL     1      -1.444  -3.463   3.476  0.00  0.00    +0.056 A 
ATOM      3  S   UNL     1      -0.783  -4.303   4.903  0.00  0.00    -0.076 S 
ATOM      4  C   UNL     1       0.807  -4.748   4.254  0.00  0.00    +0.116 A 
ATOM      5  C   UNL     1       0.786  -4.239   2.945  0.00  0.00    +0.080 A 
ATOM      6  C   UNL     1       1.971  -4.466   2.173  0.00  0.00    +0.260 A 
ATOM      7  O   UNL     1       2.050  -4.058   1.027  0.00  0.00    -0.267 OA
ATOM      8  N   UNL     1       2.996  -5.135   2.732  0.00  0.00    -0.312 N 
ATOM      9  H   UNL     1       3.801  -5.291   2.214  0.00  0.00    +0.170 HD
ATOM     10  C   UNL     1       2.925  -5.596   4.007  0.00  0.00    +0.094 A 
ATOM     11  N   UNL     1       1.862  -5.396   4.739  0.00  0.00    -0.229 NA
ENDROOT
BRANCH   1  17
ATOM     12  C   UNL     1      -0.995   0.452  -0.364  0.00  0.00    +0.044 C 
ATOM     13  C   UNL     1      -0.861  -1.040  -0.197  0.00  0.00    -0.050 A 
ATOM     14  C   UNL     1      -0.881  -1.863  -1.309  0.00  0.00    +0.003 A 
ATOM     15  C   UNL     1      -0.758  -3.233  -1.164  0.00  0.00    +0.004 A 
ATOM     16  C   UNL     1      -0.616  -3.787   0.093  0.00  0.00    -0.043 A 
ATOM     17  C   UNL     1      -0.595  -2.962   1.216  0.00  0.00    -0.013 A 
ATOM     18  C   UNL     1      -0.712  -1.581   1.063  0.00  0.00    +0.012 A 
ATOM     19  C   UNL     1      -0.484  -5.280   0.249  0.00  0.00    +0.044 C 
ENDBRANCH   1  17
BRANCH  10  20
ATOM     20  C   UNL     1       4.098  -6.340   4.592  0.00  0.00    -0.003 C 
BRANCH  20  21
ATOM     21  N   UNL     1       3.788  -6.735   5.972  0.00  0.00    +0.388 N 
ATOM     22  H   UNL     1       3.524  -5.920   6.505  0.00  0.00    -0.081 HD
BRANCH  21  23
ATOM     23  C   UNL     1       2.679  -7.699   5.969  0.00  0.00    -0.068 C 
ATOM     24  C   UNL     1       1.383  -7.287   6.670  0.00  0.00    -0.017 C 
ATOM     25  C   UNL     1       2.295  -8.339   7.304  0.00  0.00    -0.017 C 
ENDBRANCH  21  23
BRANCH  21  26
ATOM     26  C   UNL     1       4.973  -7.354   6.582  0.00  0.00    -0.046 C 
BRANCH  26  27
ATOM     27  C   UNL     1       6.090  -6.315   6.696  0.00  0.00    +0.102 C 
BRANCH  27  28
ATOM     28  O   UNL     1       5.647  -5.227   7.509  0.00  0.00    -0.393 OA
ATOM     29  H   UNL     1       5.403  -5.483   8.409  0.00  0.00    +0.210 HD
ENDBRANCH  27  28
BRANCH  27  30
ATOM     30  C   UNL     1       7.323  -6.960   7.332  0.00  0.00    +0.064 C 
BRANCH  30  31
ATOM     31  C   UNL     1       8.462  -5.973   7.332  0.00  0.00    -0.045 A 
ATOM     32  C   UNL     1       9.327  -5.915   6.255  0.00  0.00    +0.004 A 
ATOM     33  C   UNL     1      10.372  -5.010   6.255  0.00  0.00    +0.000 A 
ATOM     34  C   UNL     1      10.551  -4.162   7.332  0.00  0.00    +0.000 A 
ATOM     35  C   UNL     1       9.686  -4.218   8.408  0.00  0.00    +0.000 A 
ATOM     36  C   UNL     1       8.639  -5.121   8.406  0.00  0.00    +0.004 A 
ENDBRANCH  30  31
ENDBRANCH  27  30
ENDBRANCH  26  27
ENDBRANCH  21  26
ENDBRANCH  20  21
ENDBRANCH  10  20
TORSDOF 9
