REMARK  Name = ZINC39668339
REMARK  5 active torsions:
REMARK  status: ('A' for Active; 'I' for Inactive)
REMARK    1  A    between atoms: C_6  and  C_7
REMARK    2  A    between atoms: C_10  and  C_12
REMARK    3  A    between atoms: C_16  and  C_25
REMARK    4  A    between atoms: N_27  and  C_28
REMARK    5  A    between atoms: C_28  and  C_29
REMARK                            x       y       z     vdW  Elec       q    Type
REMARK                         _______ _______ _______ _____ _____    ______ ____
ROOT
ATOM      1  C   UNL     1      -4.587  -0.946   0.149  0.00  0.00    +0.282 C 
ATOM      2  O   UNL     1      -5.234  -1.977   0.189  0.00  0.00    -0.267 OA
ATOM      3  N   UNL     1      -5.218   0.244   0.116  0.00  0.00    -0.294 N 
ATOM      4  C   UNL     1      -4.608   1.594   0.060  0.00  0.00    +0.121 C 
ATOM      5  C   UNL     1      -5.514   2.392  -0.904  0.00  0.00    +0.100 C 
ATOM      6  C   UNL     1      -6.871   1.671  -0.855  0.00  0.00    -0.004 C 
ATOM      7  C   UNL     1      -6.678   0.500   0.120  0.00  0.00    +0.115 C 
ATOM      8  C   UNL     1      -7.953   2.615  -0.341  0.00  0.00    -0.010 C 
ATOM      9  C   UNL     1      -9.303   1.893  -0.356  0.00  0.00    -0.082 C 
ATOM     10  N   UNL     1      -9.614   1.460  -1.724  0.00  0.00    +0.379 N 
ATOM     11  C   UNL     1      -8.619   0.481  -2.176  0.00  0.00    -0.082 C 
ATOM     12  C   UNL     1      -7.239   1.143  -2.239  0.00  0.00    -0.010 C 
ATOM     13  H   UNL     1     -10.531   1.039  -1.742  0.00  0.00    -0.086 HD
ATOM     14  H   UNL     1      -9.601   2.260  -2.339  0.00  0.00    -0.086 HD
ENDROOT
BRANCH   1  18
ATOM     15  C   UNL     1      -1.019  -0.370   0.101  0.00  0.00    +0.136 A 
ATOM     16  C   UNL     1      -1.020  -1.734   0.145  0.00  0.00    +0.050 A 
ATOM     17  C   UNL     1      -2.356  -2.144   0.170  0.00  0.00    +0.055 A 
ATOM     18  C   UNL     1      -3.124  -1.000   0.139  0.00  0.00    +0.190 A 
ATOM     19  O   UNL     1      -2.291   0.062   0.102  0.00  0.00    -0.450 OA
BRANCH  15  25
ATOM     20  C   UNL     1       0.047   1.880   0.024  0.00  0.00    +0.014 A 
ATOM     21  C   UNL     1       1.171   2.677  -0.011  0.00  0.00    +0.039 A 
ATOM     22  C   UNL     1       2.433   2.102  -0.007  0.00  0.00    +0.123 A 
ATOM     23  C   UNL     1       2.572   0.724   0.030  0.00  0.00    +0.039 A 
ATOM     24  C   UNL     1       1.455  -0.084   0.065  0.00  0.00    +0.014 A 
ATOM     25  C   UNL     1       0.181   0.490   0.063  0.00  0.00    +0.017 A 
ATOM     26  F   UNL     1       3.531   2.889  -0.041  0.00  0.00    -0.205 F 
ENDBRANCH  15  25
ENDBRANCH   1  18
BRANCH   5  27
ATOM     27  C   UNL     1      -4.950   2.359  -2.302  0.00  0.00    +0.218 C 
ATOM     28  O   UNL     1      -4.305   1.402  -2.673  0.00  0.00    -0.275 OA
ATOM     29  N   UNL     1      -5.162   3.395  -3.138  0.00  0.00    -0.311 N 
ATOM     30  H   UNL     1      -5.678   4.161  -2.841  0.00  0.00    +0.149 HD
BRANCH  29  31
ATOM     31  C   UNL     1      -4.614   3.363  -4.497  0.00  0.00    +0.139 C 
BRANCH  31  32
ATOM     32  C   UNL     1      -4.992   4.630  -5.220  0.00  0.00    -0.030 A 
ATOM     33  C   UNL     1      -6.170   4.693  -5.941  0.00  0.00    +0.009 A 
ATOM     34  C   UNL     1      -6.522   5.851  -6.601  0.00  0.00    +0.046 A 
ATOM     35  C   UNL     1      -5.693   6.969  -6.548  0.00  0.00    +0.124 A 
ATOM     36  C   UNL     1      -4.508   6.891  -5.828  0.00  0.00    -0.002 A 
ATOM     37  C   UNL     1      -4.163   5.736  -5.161  0.00  0.00    +0.012 A 
ATOM     38  C   UNL     1      -3.813   8.231  -5.969  0.00  0.00    +0.080 C 
ATOM     39  C   UNL     1      -4.575   8.863  -7.159  0.00  0.00    +0.234 C 
ATOM     40  O   UNL     1      -5.850   8.200  -7.107  0.00  0.00    -0.491 OA
ENDBRANCH  31  32
ENDBRANCH  29  31
ENDBRANCH   5  27
TORSDOF 5
