REMARK  Name = ZINC61888091
REMARK  5 active torsions:
REMARK  status: ('A' for Active; 'I' for Inactive)
REMARK    1  A    between atoms: C_3  and  S_9
REMARK    2  A    between atoms: S_9  and  N_12
REMARK    3  A    between atoms: N_12  and  C_13
REMARK    4  A    between atoms: C_18  and  C_20
REMARK    5  A    between atoms: N_21  and  O_22
REMARK                            x       y       z     vdW  Elec       q    Type
REMARK                         _______ _______ _______ _____ _____    ______ ____
ROOT
ATOM      1  N   UNL     1       4.705   2.098   1.337  0.00  0.00    -0.186 NA
ATOM      2  H   UNL     1       4.649   2.818   1.983  0.00  0.00    +0.148 HD
ENDROOT
BRANCH   1   3
ATOM      3  C   UNL     1       5.218   0.787   1.744  0.00  0.00    +0.087 C 
ATOM      4  C   UNL     1       4.098  -0.032   2.419  0.00  0.00    +0.021 C 
ATOM      5  C   UNL     1       4.820  -0.800   3.554  0.00  0.00    +0.002 C 
ATOM      6  C   UNL     1       5.847   0.238   4.069  0.00  0.00    +0.013 C 
ATOM      7  C   UNL     1       6.331   0.959   2.793  0.00  0.00    +0.074 C 
BRANCH   7   8
ATOM      8  C   UNL     1       6.550   2.422   3.077  0.00  0.00    +0.136 C 
ATOM      9  N   UNL     1       7.491   3.065   2.468  0.00  0.00    -0.076 NA
ATOM     10  N   UNL     1       5.748   3.075   3.987  0.00  0.00    -0.344 N 
ATOM     11  H   UNL     1       5.042   2.592   4.445  0.00  0.00    +0.144 HD
ATOM     12  H   UNL     1       5.889   4.017   4.170  0.00  0.00    +0.144 HD
BRANCH   9  13
ATOM     13  O   UNL     1       8.245   2.424   1.455  0.00  0.00    -0.408 OA
ATOM     14  H   UNL     1       8.974   2.958   1.111  0.00  0.00    +0.328 HD
ENDBRANCH   9  13
ENDBRANCH   7   8
ENDBRANCH   1   3
BRANCH   1  15
ATOM     15  S   UNL     1       4.223   2.348  -0.227  0.00  0.00    +0.060 S 
ATOM     16  O   UNL     1       5.240   1.805  -1.058  0.00  0.00    -0.153 OA
ATOM     17  O   UNL     1       3.813   3.706  -0.313  0.00  0.00    -0.153 OA
BRANCH  15  20
ATOM     18  C   UNL     1       0.407   1.204  -0.753  0.00  0.00    +0.017 A 
ATOM     19  C   UNL     1       1.539   1.971  -0.546  0.00  0.00    +0.031 A 
ATOM     20  C   UNL     1       2.782   1.370  -0.491  0.00  0.00    +0.124 A 
ATOM     21  C   UNL     1       2.895  -0.001  -0.644  0.00  0.00    +0.068 A 
ATOM     22  C   UNL     1       1.763  -0.769  -0.852  0.00  0.00    +0.037 A 
ATOM     23  C   UNL     1       0.519  -0.166  -0.907  0.00  0.00    +0.019 A 
ATOM     24 BR   UNL     1      -1.028  -1.215  -1.191  0.00  0.00    -0.050 Br
ATOM     25 CL   UNL     1       4.456  -0.756  -0.577  0.00  0.00    -0.081 Cl
ENDBRANCH  15  20
ENDBRANCH   1  15
TORSDOF 5
