REMARK  Name = ZINC35895157
REMARK  5 active torsions:
REMARK  status: ('A' for Active; 'I' for Inactive)
REMARK    1  A    between atoms: C_4  and  C_7
REMARK    2  A    between atoms: C_7  and  C_8
REMARK    3  A    between atoms: C_7  and  N_14
REMARK    4  A    between atoms: C_20  and  C_22
REMARK    5  A    between atoms: C_22  and  C_23
REMARK                            x       y       z     vdW  Elec       q    Type
REMARK                         _______ _______ _______ _____ _____    ______ ____
ROOT
ATOM      1  N   UNL     1       3.611  -1.868  -0.933  0.00  0.00    -0.289 NA
ATOM      2  C   UNL     1       3.188  -1.459  -2.279  0.00  0.00    +0.104 C 
ATOM      3  C   UNL     1       2.921  -2.707  -3.127  0.00  0.00    +0.123 C 
ATOM      4  N   UNL     1       4.115  -3.565  -3.084  0.00  0.00    -0.299 N 
ATOM      5  C   UNL     1       4.680  -3.906  -1.770  0.00  0.00    +0.123 C 
ATOM      6  C   UNL     1       4.878  -2.611  -0.975  0.00  0.00    +0.104 C 
ATOM      7  C   UNL     1       4.675  -4.028  -4.219  0.00  0.00    +0.215 C 
ATOM      8  O   UNL     1       4.196  -3.738  -5.295  0.00  0.00    -0.276 OA
ENDROOT
BRANCH   1   9
ATOM      9  C   UNL     1       3.711  -0.707  -0.038  0.00  0.00    +0.117 C 
BRANCH   9  13
ATOM     10  C   UNL     1      -0.017   1.378   0.010  0.00  0.00    +0.000 A 
ATOM     11  C   UNL     1       1.171   2.086   0.002  0.00  0.00    +0.000 A 
ATOM     12  C   UNL     1       2.377   1.411  -0.013  0.00  0.00    +0.005 A 
ATOM     13  C   UNL     1       2.396   0.029  -0.020  0.00  0.00    -0.026 A 
ATOM     14  C   UNL     1       1.208  -0.679  -0.012  0.00  0.00    +0.005 A 
ATOM     15  C   UNL     1       0.002  -0.004   0.002  0.00  0.00    +0.000 A 
ENDBRANCH   9  13
BRANCH   9  16
ATOM     16  C   UNL     1       4.044  -1.175   1.356  0.00  0.00    -0.026 A 
ATOM     17  C   UNL     1       3.455  -2.320   1.860  0.00  0.00    +0.005 A 
ATOM     18  C   UNL     1       3.760  -2.748   3.138  0.00  0.00    +0.000 A 
ATOM     19  C   UNL     1       4.654  -2.033   3.912  0.00  0.00    +0.000 A 
ATOM     20  C   UNL     1       5.243  -0.888   3.408  0.00  0.00    +0.000 A 
ATOM     21  C   UNL     1       4.941  -0.462   2.128  0.00  0.00    +0.005 A 
ENDBRANCH   9  16
ENDBRANCH   1   9
BRANCH   7  22
ATOM     22  C   UNL     1       5.898  -4.906  -4.152  0.00  0.00    +0.089 C 
BRANCH  22  23
ATOM     23  C   UNL     1       6.329  -5.290  -5.569  0.00  0.00    +0.025 C 
ATOM     24  C   UNL     1       7.621  -6.053  -5.506  0.00  0.00    +0.200 C 
ATOM     25  O   UNL     1       8.489  -5.668  -4.751  0.00  0.00    -0.278 OA
ATOM     26  N   UNL     1       7.854  -7.143  -6.249  0.00  0.00    -0.315 N 
ATOM     27  C   UNL     1       6.852  -7.693  -7.155  0.00  0.00    +0.059 C 
ATOM     28  C   UNL     1       7.498  -8.180  -8.447  0.00  0.00    +0.020 C 
ATOM     29  C   UNL     1       8.110  -6.999  -9.203  0.00  0.00    +0.002 C 
ATOM     30  C   UNL     1       7.008  -5.986  -9.527  0.00  0.00    -0.001 C 
ATOM     31  C   UNL     1       6.392  -5.477  -8.224  0.00  0.00    -0.014 C 
ATOM     32  C   UNL     1       5.792  -6.638  -7.468  0.00  0.00    -0.050 C 
ATOM     33  N   UNL     1       5.282  -6.112  -6.189  0.00  0.00    +0.390 N 
ATOM     34  H   UNL     1       8.717  -7.581  -6.183  0.00  0.00    +0.149 HD
ATOM     35  H   UNL     1       5.045  -6.877  -5.575  0.00  0.00    -0.084 HD
ATOM     36  H   UNL     1       4.465  -5.546  -6.361  0.00  0.00    -0.084 HD
ENDBRANCH  22  23
ENDBRANCH   7  22
TORSDOF 5
