REMARK  Name = ZINC34727024
REMARK  4 active torsions:
REMARK  status: ('A' for Active; 'I' for Inactive)
REMARK    1  A    between atoms: C_1  and  C_2
REMARK    2  A    between atoms: C_5  and  C_25
REMARK    3  A    between atoms: C_6  and  C_8
REMARK    4  A    between atoms: C_8  and  N_9
REMARK                            x       y       z     vdW  Elec       q    Type
REMARK                         _______ _______ _______ _____ _____    ______ ____
ROOT
ATOM      1  N   UNL     1       1.265  -3.758   2.495  0.00  0.00    -0.256 N 
ATOM      2  C   UNL     1       1.697  -4.821   1.794  0.00  0.00    +0.265 A 
ATOM      3  O   UNL     1       0.983  -5.337   0.954  0.00  0.00    -0.267 OA
ATOM      4  C   UNL     1       3.051  -5.356   2.057  0.00  0.00    +0.074 A 
ATOM      5  C   UNL     1       3.722  -6.492   1.424  0.00  0.00    -0.023 A 
ATOM      6  C   UNL     1       4.966  -6.740   1.879  0.00  0.00    -0.004 A 
ATOM      7  S   UNL     1       5.248  -5.504   3.113  0.00  0.00    -0.075 S 
ATOM      8  C   UNL     1       3.788  -4.694   3.037  0.00  0.00    +0.094 A 
ATOM      9  N   UNL     1       3.269  -3.614   3.704  0.00  0.00    -0.301 N 
ATOM     10  H   UNL     1       3.800  -3.168   4.382  0.00  0.00    +0.171 HD
ATOM     11  C   UNL     1       2.032  -3.163   3.423  0.00  0.00    +0.330 A 
ATOM     12  O   UNL     1       1.598  -2.201   4.027  0.00  0.00    -0.246 OA
ATOM     13  C   UNL     1       5.890  -7.828   1.426  0.00  0.00    +0.043 C 
ATOM     14  C   UNL     1       5.071  -8.856   0.632  0.00  0.00    +0.005 C 
ATOM     15  C   UNL     1       4.202  -8.115  -0.388  0.00  0.00    +0.005 C 
ATOM     16  C   UNL     1       3.092  -7.346   0.333  0.00  0.00    +0.037 C 
ENDROOT
BRANCH   1  17
ATOM     17  C   UNL     1      -0.077  -3.229   2.234  0.00  0.00    +0.165 C 
BRANCH  17  23
ATOM     18  C   UNL     1       2.611  -0.501  -0.988  0.00  0.00    +0.044 C 
ATOM     19  C   UNL     1       1.276  -0.913  -0.423  0.00  0.00    -0.050 A 
ATOM     20  C   UNL     1       0.112  -0.364  -0.928  0.00  0.00    +0.003 A 
ATOM     21  C   UNL     1      -1.112  -0.742  -0.410  0.00  0.00    +0.004 A 
ATOM     22  C   UNL     1      -1.173  -1.669   0.613  0.00  0.00    -0.046 A 
ATOM     23  C   UNL     1      -0.010  -2.219   1.118  0.00  0.00    -0.024 A 
ATOM     24  C   UNL     1       1.214  -1.844   0.597  0.00  0.00    +0.009 A 
ATOM     25  C   UNL     1      -2.508  -2.080   1.179  0.00  0.00    +0.044 C 
ENDBRANCH  17  23
ENDBRANCH   1  17
TORSDOF 2
