REMARK  Name = ZINC44890432
REMARK  9 active torsions:
REMARK  status: ('A' for Active; 'I' for Inactive)
REMARK    1  A    between atoms: C_1  and  O_2
REMARK    2  A    between atoms: O_2  and  C_3
REMARK    3  A    between atoms: C_3  and  C_5
REMARK    4  A    between atoms: C_5  and  C_7
REMARK    5  A    between atoms: C_5  and  N_11
REMARK    6  A    between atoms: C_7  and  C_8
REMARK    7  A    between atoms: C_8  and  S_9
REMARK    8  A    between atoms: S_9  and  C_10
REMARK    9  A    between atoms: C_23  and  C_25
REMARK                            x       y       z     vdW  Elec       q    Type
REMARK                         _______ _______ _______ _____ _____    ______ ____
ROOT
ATOM      1  N   UNL     1      -2.733  -2.277   2.724  0.00  0.00    -0.286 N 
ATOM      2  C   UNL     1      -3.167  -2.591   1.488  0.00  0.00    +0.304 C 
ATOM      3  O   UNL     1      -2.459  -2.379   0.522  0.00  0.00    -0.253 OA
ATOM      4  N   UNL     1      -4.386  -3.142   1.321  0.00  0.00    -0.273 N 
ATOM      5  C   UNL     1      -4.832  -3.603  -0.002  0.00  0.00    +0.116 C 
ATOM      6  C   UNL     1      -6.033  -2.761  -0.450  0.00  0.00    +0.076 C 
ATOM      7  C   UNL     1      -6.996  -2.635   0.703  0.00  0.00    +0.066 A 
ATOM      8  C   UNL     1      -6.675  -2.868   1.994  0.00  0.00    +0.064 A 
ATOM      9  N   UNL     1      -7.794  -2.647   2.735  0.00  0.00    -0.346 N 
ATOM     10  H   UNL     1      -7.875  -2.732   3.697  0.00  0.00    +0.167 HD
ATOM     11  C   UNL     1      -8.773  -2.287   1.873  0.00  0.00    +0.197 A 
ATOM     12  N   UNL     1      -8.285  -2.283   0.660  0.00  0.00    -0.240 NA
ATOM     13  C   UNL     1      -5.305  -3.304   2.463  0.00  0.00    +0.156 C 
ATOM     14  H   UNL     1      -3.324  -2.379   3.486  0.00  0.00    +0.151 HD
ENDROOT
BRANCH  13  15
ATOM     15  C   UNL     1      -5.340  -4.748   2.893  0.00  0.00    -0.020 A 
ATOM     16  C   UNL     1      -5.819  -5.714   2.028  0.00  0.00    +0.009 A 
ATOM     17  C   UNL     1      -5.852  -7.039   2.420  0.00  0.00    +0.040 A 
ATOM     18  C   UNL     1      -5.405  -7.399   3.680  0.00  0.00    +0.142 A 
ATOM     19  C   UNL     1      -4.926  -6.430   4.546  0.00  0.00    +0.076 A 
ATOM     20  C   UNL     1      -4.889  -5.106   4.149  0.00  0.00    +0.028 A 
ATOM     21 CL   UNL     1      -4.364  -6.879   6.126  0.00  0.00    -0.081 Cl
ATOM     22  F   UNL     1      -5.438  -8.694   4.064  0.00  0.00    -0.204 F 
ENDBRANCH  13  15
BRANCH   1  23
ATOM     23  C   UNL     1      -1.368  -1.780   2.917  0.00  0.00    +0.184 C 
BRANCH  23  24
ATOM     24  C   UNL     1      -0.421  -2.946   3.038  0.00  0.00    +0.327 C 
ATOM     25  O   UNL     1      -0.844  -4.077   2.970  0.00  0.00    -0.249 OA
BRANCH  24  27
ATOM     26  C   UNL     1       1.730  -3.882   3.327  0.00  0.00    +0.280 C 
ATOM     27  O   UNL     1       0.890  -2.730   3.221  0.00  0.00    -0.467 OA
ENDBRANCH  24  27
ENDBRANCH  23  24
BRANCH  23  28
ATOM     28  C   UNL     1      -1.307  -0.939   4.193  0.00  0.00    +0.044 C 
BRANCH  28  29
ATOM     29  C   UNL     1      -2.172   0.311   4.022  0.00  0.00    +0.071 C 
BRANCH  29  30
ATOM     30  S   UNL     1      -2.099   1.309   5.535  0.00  0.00    -0.164 S 
ATOM     31  C   UNL     1      -3.163   2.733   5.174  0.00  0.00    +0.084 C 
ENDBRANCH  29  30
ENDBRANCH  28  29
ENDBRANCH  23  28
ENDBRANCH   1  23
TORSDOF 7
