REMARK  Name = ZINC59264336
REMARK  12 active torsions:
REMARK  status: ('A' for Active; 'I' for Inactive)
REMARK    1  A    between atoms: C_1  and  N_2
REMARK    2  A    between atoms: N_2  and  C_3
REMARK    3  A    between atoms: N_2  and  C_4
REMARK    4  A    between atoms: C_4  and  C_6
REMARK    5  A    between atoms: C_4  and  C_28
REMARK    6  A    between atoms: C_6  and  N_7
REMARK    7  A    between atoms: N_10  and  C_11
REMARK    8  A    between atoms: C_11  and  C_13
REMARK    9  A    between atoms: C_11  and  C_22
REMARK   10  A    between atoms: C_13  and  N_14
REMARK   11  A    between atoms: C_33  and  O_34
REMARK   12  A    between atoms: O_34  and  C_35
REMARK                            x       y       z     vdW  Elec       q    Type
REMARK                         _______ _______ _______ _____ _____    ______ ____
ROOT
ATOM      1  N   UNL     1      -1.702   1.302  -1.405  0.00  0.00    -0.301 N 
ATOM      2  C   UNL     1      -2.076   1.923  -2.541  0.00  0.00    +0.300 C 
ATOM      3  O   UNL     1      -2.647   1.300  -3.415  0.00  0.00    -0.253 OA
ATOM      4  N   UNL     1      -1.817   3.235  -2.708  0.00  0.00    -0.291 N 
ATOM      5  H   UNL     1      -1.246   1.799  -0.708  0.00  0.00    +0.150 HD
ATOM      6  H   UNL     1      -1.362   3.732  -2.010  0.00  0.00    +0.151 HD
ENDROOT
BRANCH   1   7
ATOM      7  C   UNL     1      -1.983  -0.125  -1.224  0.00  0.00    +0.095 C 
BRANCH   7   8
ATOM      8  C   UNL     1      -1.353  -0.606   0.085  0.00  0.00    -0.017 C 
BRANCH   8   9
ATOM      9  C   UNL     1       0.147  -0.502  -0.012  0.00  0.00    -0.018 A 
ATOM     10  C   UNL     1       0.805   0.566   0.569  0.00  0.00    +0.005 A 
ATOM     11  C   UNL     1       2.181   0.663   0.481  0.00  0.00    +0.000 A 
ATOM     12  C   UNL     1       2.903  -0.308  -0.189  0.00  0.00    +0.004 A 
ATOM     13  C   UNL     1       2.251  -1.377  -0.771  0.00  0.00    +0.046 A 
ATOM     14  C   UNL     1       0.870  -1.480  -0.679  0.00  0.00    +0.122 A 
BRANCH  14  15
ATOM     15  O   UNL     1       0.227  -2.534  -1.246  0.00  0.00    -0.495 OA
ATOM     16  C   UNL     1       1.035  -3.502  -1.917  0.00  0.00    +0.277 C 
ENDBRANCH  14  15
ENDBRANCH   8   9
BRANCH   8  18
ATOM     17  C   UNL     1      -3.301   0.231   1.207  0.00  0.00    -0.096 C 
ATOM     18  N   UNL     1      -1.832   0.228   1.195  0.00  0.00    +0.382 N 
ATOM     19  C   UNL     1      -1.332  -0.314   2.465  0.00  0.00    -0.096 C 
ATOM     20  H   UNL     1      -1.494   1.171   1.076  0.00  0.00    -0.082 HD
ENDBRANCH   8  18
ENDBRANCH   7   8
ENDBRANCH   1   7
BRANCH   4  21
ATOM     21  C   UNL     1      -2.224   3.911  -3.942  0.00  0.00    +0.122 C 
BRANCH  21  22
ATOM     22  C   UNL     1      -1.163   3.716  -4.995  0.00  0.00    -0.026 A 
ATOM     23  C   UNL     1       0.174   3.773  -4.647  0.00  0.00    +0.005 A 
ATOM     24  C   UNL     1       1.147   3.594  -5.612  0.00  0.00    +0.000 A 
ATOM     25  C   UNL     1       0.784   3.358  -6.925  0.00  0.00    +0.000 A 
ATOM     26  C   UNL     1      -0.553   3.300  -7.272  0.00  0.00    +0.000 A 
ATOM     27  C   UNL     1      -1.526   3.475  -6.306  0.00  0.00    +0.005 A 
ENDBRANCH  21  22
BRANCH  21  28
ATOM     28  C   UNL     1      -2.404   5.406  -3.670  0.00  0.00    +0.134 C 
BRANCH  28  29
ATOM     29  N   UNL     1      -3.348   5.591  -2.565  0.00  0.00    -0.299 N 
ATOM     30  C   UNL     1      -4.787   5.712  -2.846  0.00  0.00    +0.108 C 
ATOM     31  C   UNL     1      -5.485   4.430  -2.388  0.00  0.00    +0.019 C 
ATOM     32  C   UNL     1      -5.857   4.511  -0.919  0.00  0.00    +0.002 C 
ATOM     33  C   UNL     1      -4.660   4.537   0.015  0.00  0.00    +0.009 C 
ATOM     34  C   UNL     1      -3.864   5.832  -0.161  0.00  0.00    +0.096 C 
ATOM     35  C   UNL     1      -2.897   5.643  -1.311  0.00  0.00    +0.216 C 
ATOM     36  O   UNL     1      -1.708   5.542  -1.091  0.00  0.00    -0.276 OA
ENDBRANCH  28  29
ENDBRANCH  21  28
ENDBRANCH   4  21
TORSDOF 9
