REMARK  Name = ZINC22787747
REMARK  8 active torsions:
REMARK  status: ('A' for Active; 'I' for Inactive)
REMARK    1  A    between atoms: C_6  and  C_7
REMARK    2  A    between atoms: C_7  and  O_8
REMARK    3  A    between atoms: O_8  and  C_9
REMARK    4  A    between atoms: C_9  and  C_10
REMARK    5  A    between atoms: C_10  and  N_12
REMARK    6  A    between atoms: C_10  and  O_34
REMARK    7  A    between atoms: N_15  and  C_18
REMARK    8  A    between atoms: C_18  and  C_19
REMARK                            x       y       z     vdW  Elec       q    Type
REMARK                         _______ _______ _______ _____ _____    ______ ____
ROOT
ATOM      1  N   UNL     1      -2.185  -2.720  -3.471  0.00  0.00    -0.279 NA
ATOM      2  C   UNL     1      -0.904  -2.023  -3.292  0.00  0.00    +0.068 C 
ATOM      3  C   UNL     1       0.230  -2.899  -3.830  0.00  0.00    -0.063 C 
ATOM      4  N   UNL     1      -0.001  -3.178  -5.254  0.00  0.00    +0.386 N 
ATOM      5  C   UNL     1      -1.272  -3.896  -5.414  0.00  0.00    -0.063 C 
ATOM      6  C   UNL     1      -2.418  -3.028  -4.889  0.00  0.00    +0.068 C 
ATOM      7  H   UNL     1      -0.039  -2.309  -5.765  0.00  0.00    -0.081 HD
ENDROOT
BRANCH   1   8
ATOM      8  C   UNL     1      -3.294  -1.933  -2.914  0.00  0.00    +0.211 C 
BRANCH   8   9
ATOM      9  O   UNL     1      -2.976  -1.541  -1.578  0.00  0.00    -0.375 OA
ATOM     10  H   UNL     1      -2.821  -2.282  -0.976  0.00  0.00    +0.212 HD
ENDBRANCH   8   9
BRANCH   8  11
ATOM     11  C   UNL     1      -4.567  -2.782  -2.907  0.00  0.00    +0.208 C 
BRANCH  11  12
ATOM     12  O   UNL     1      -4.322  -4.004  -2.208  0.00  0.00    -0.371 OA
BRANCH  12  13
ATOM     13  C   UNL     1      -5.454  -4.874  -2.144  0.00  0.00    +0.195 C 
BRANCH  13  19
ATOM     14  C   UNL     1      -5.253  -6.180  -0.018  0.00  0.00    +0.007 A 
ATOM     15  C   UNL     1      -4.913  -7.327   0.674  0.00  0.00    +0.020 A 
ATOM     16  C   UNL     1      -4.404  -8.420  -0.005  0.00  0.00    +0.041 A 
ATOM     17  C   UNL     1      -4.235  -8.364  -1.377  0.00  0.00    +0.020 A 
ATOM     18  C   UNL     1      -4.575  -7.216  -2.068  0.00  0.00    +0.007 A 
ATOM     19  C   UNL     1      -5.083  -6.124  -1.389  0.00  0.00    -0.022 A 
ATOM     20 CL   UNL     1      -3.977  -9.861   0.864  0.00  0.00    -0.084 Cl
ENDBRANCH  13  19
ENDBRANCH  12  13
ENDBRANCH  11  12
ENDBRANCH   8  11
ENDBRANCH   1   8
BRANCH   4  21
ATOM     21  C   UNL     1       1.096  -4.004  -5.775  0.00  0.00    -0.003 C 
BRANCH  21  22
ATOM     22  C   UNL     1       0.925  -4.189  -7.261  0.00  0.00    +0.094 A 
ATOM     23  N   UNL     1       1.831  -4.929  -7.949  0.00  0.00    -0.312 N 
ATOM     24  H   UNL     1       2.576  -5.330  -7.475  0.00  0.00    +0.170 HD
ATOM     25  C   UNL     1       1.716  -5.119  -9.277  0.00  0.00    +0.260 A 
ATOM     26  O   UNL     1       2.537  -5.787  -9.881  0.00  0.00    -0.267 OA
ATOM     27  C   UNL     1       0.611  -4.523  -9.969  0.00  0.00    +0.075 A 
ATOM     28  C   UNL     1       0.287  -4.592 -11.393  0.00  0.00    -0.023 A 
ATOM     29  C   UNL     1      -0.821  -3.938 -11.801  0.00  0.00    -0.004 A 
ATOM     30  S   UNL     1      -1.487  -3.202 -10.332  0.00  0.00    -0.073 S 
ATOM     31  C   UNL     1      -0.272  -3.776  -9.173  0.00  0.00    +0.116 A 
ATOM     32  N   UNL     1      -0.095  -3.637  -7.862  0.00  0.00    -0.229 NA
ATOM     33  C   UNL     1      -1.364  -3.853 -13.195  0.00  0.00    +0.043 C 
ATOM     34  C   UNL     1      -0.271  -4.316 -14.169  0.00  0.00    +0.005 C 
ATOM     35  C   UNL     1       0.325  -5.628 -13.651  0.00  0.00    +0.005 C 
ATOM     36  C   UNL     1       1.148  -5.363 -12.390  0.00  0.00    +0.037 C 
ENDBRANCH  21  22
ENDBRANCH   4  21
TORSDOF 8
