REMARK  Name = ZINC06928572
REMARK  6 active torsions:
REMARK  status: ('A' for Active; 'I' for Inactive)
REMARK    1  A    between atoms: C_1  and  C_2
REMARK    2  A    between atoms: C_2  and  N_3
REMARK    3  A    between atoms: C_12  and  C_14
REMARK    4  A    between atoms: N_16  and  N_17
REMARK    5  A    between atoms: C_18  and  C_20
REMARK    6  A    between atoms: C_20  and  C_21
REMARK                            x       y       z     vdW  Elec       q    Type
REMARK                         _______ _______ _______ _____ _____    ______ ____
ROOT
ATOM      1  C   UNL     1      -4.328   4.207   3.268  0.00  0.00    +0.281 C 
ATOM      2  O   UNL     1      -4.927   4.739   2.353  0.00  0.00    -0.267 OA
ATOM      3  N   UNL     1      -3.241   3.453   3.014  0.00  0.00    -0.229 N 
ATOM      4  H   UNL     1      -2.763   3.028   3.743  0.00  0.00    +0.173 HD
ENDROOT
BRANCH   1  14
ATOM      5  N   UNL     1      -4.488   3.926   6.880  0.00  0.00    -0.229 N 
ATOM      6  C   UNL     1      -5.549   4.644   7.303  0.00  0.00    +0.275 A 
ATOM      7  O   UNL     1      -5.824   4.711   8.486  0.00  0.00    -0.266 OA
ATOM      8  C   UNL     1      -6.366   5.342   6.300  0.00  0.00    +0.050 A 
ATOM      9  C   UNL     1      -7.479   6.108   6.632  0.00  0.00    +0.014 A 
ATOM     10  C   UNL     1      -8.193   6.732   5.631  0.00  0.00    +0.001 A 
ATOM     11  C   UNL     1      -7.812   6.604   4.302  0.00  0.00    +0.001 A 
ATOM     12  C   UNL     1      -6.712   5.849   3.952  0.00  0.00    +0.011 A 
ATOM     13  C   UNL     1      -5.974   5.216   4.947  0.00  0.00    +0.020 A 
ATOM     14  C   UNL     1      -4.792   4.389   4.658  0.00  0.00    +0.155 A 
ATOM     15  N   UNL     1      -4.152   3.819   5.650  0.00  0.00    -0.163 NA
BRANCH   5  17
ATOM     16  C   UNL     1      -4.234   1.825   8.105  0.00  0.00    +0.029 C 
ATOM     17  C   UNL     1      -3.677   3.232   7.883  0.00  0.00    +0.144 C 
ENDBRANCH   5  17
ENDBRANCH   1  14
BRANCH   3  18
ATOM     18  N   UNL     1      -2.801   3.280   1.694  0.00  0.00    -0.234 N 
ATOM     19  C   UNL     1      -1.714   2.526   1.440  0.00  0.00    +0.233 C 
ATOM     20  O   UNL     1      -1.117   1.995   2.352  0.00  0.00    -0.274 OA
ATOM     21  H   UNL     1      -3.279   3.705   0.965  0.00  0.00    +0.173 HD
BRANCH  19  22
ATOM     22  C   UNL     1      -1.241   2.341   0.021  0.00  0.00    +0.134 C 
BRANCH  22  23
ATOM     23  C   UNL     1      -0.018   1.461   0.010  0.00  0.00    -0.014 A 
ATOM     24  C   UNL     1       1.260   1.871   0.000  0.00  0.00    +0.087 A 
ATOM     25  N   UNL     1       2.097   0.788  -0.014  0.00  0.00    -0.360 N 
ATOM     26  H   UNL     1       3.066   0.833  -0.023  0.00  0.00    +0.165 HD
ATOM     27  C   UNL     1       1.359  -0.374  -0.013  0.00  0.00    +0.047 A 
ATOM     28  C   UNL     1       0.002  -0.004   0.002  0.00  0.00    +0.003 A 
ATOM     29  C   UNL     1      -0.988  -0.988   0.007  0.00  0.00    +0.010 A 
ATOM     30  C   UNL     1      -0.633  -2.308  -0.003  0.00  0.00    +0.001 A 
ATOM     31  C   UNL     1       0.704  -2.678  -0.018  0.00  0.00    +0.002 A 
ATOM     32  C   UNL     1       1.698  -1.723  -0.023  0.00  0.00    +0.026 A 
ENDBRANCH  22  23
ENDBRANCH  19  22
ENDBRANCH   3  18
TORSDOF 5
