REMARK  Name = ZINC22001723
REMARK  8 active torsions:
REMARK  status: ('A' for Active; 'I' for Inactive)
REMARK    1  A    between atoms: C_1  and  C_2
REMARK    2  A    between atoms: C_2  and  O_3
REMARK    3  A    between atoms: O_3  and  C_4
REMARK    4  A    between atoms: C_4  and  C_6
REMARK    5  A    between atoms: C_7  and  N_34
REMARK    6  A    between atoms: C_11  and  C_13
REMARK    7  A    between atoms: C_17  and  N_19
REMARK    8  A    between atoms: C_25  and  C_28
REMARK                            x       y       z     vdW  Elec       q    Type
REMARK                         _______ _______ _______ _____ _____    ______ ____
ROOT
ATOM      1  C   UNL     1       1.425  -2.323  -2.465  0.00  0.00    +0.105 C 
ATOM      2  C   UNL     1       1.609  -3.664  -2.579  0.00  0.00    +0.195 C 
ATOM      3  O   UNL     1       2.217  -4.191  -3.654  0.00  0.00    -0.446 OA
ATOM      4  C   UNL     1       3.020  -3.429  -4.422  0.00  0.00    +0.115 C 
ATOM      5  C   UNL     1       2.918  -2.088  -4.421  0.00  0.00    +0.045 C 
ATOM      6  C   UNL     1       1.897  -1.395  -3.549  0.00  0.00    +0.098 C 
ATOM      7  C   UNL     1       3.748  -1.291  -5.234  0.00  0.00    +0.164 C 
ATOM      8  O   UNL     1       3.638  -0.082  -5.193  0.00  0.00    -0.292 OA
ATOM      9  C   UNL     1       4.767  -1.909  -6.152  0.00  0.00    +0.088 C 
ATOM     10  C   UNL     1       4.286  -3.307  -6.557  0.00  0.00    +0.034 C 
ATOM     11  C   UNL     1       4.045  -4.124  -5.287  0.00  0.00    +0.083 C 
ENDROOT
BRANCH   6  12
ATOM     12  C   UNL     1       0.721  -0.971  -4.390  0.00  0.00    -0.033 A 
ATOM     13  C   UNL     1      -0.029  -1.921  -5.058  0.00  0.00    +0.005 A 
ATOM     14  C   UNL     1      -1.108  -1.532  -5.830  0.00  0.00    +0.003 A 
ATOM     15  C   UNL     1      -1.438  -0.194  -5.933  0.00  0.00    +0.033 A 
ATOM     16  C   UNL     1      -0.688   0.756  -5.265  0.00  0.00    +0.126 A 
ATOM     17  C   UNL     1       0.388   0.367  -4.489  0.00  0.00    +0.037 A 
BRANCH  16  18
ATOM     18  N   UNL     1      -1.040   2.189  -5.376  0.00  0.00    +0.056 N 
ATOM     19  O   UNL     1      -1.984   2.530  -6.051  0.00  0.00    -0.126 OA
ATOM     20  O   UNL     1      -0.385   3.020  -4.791  0.00  0.00    -0.126 OA
ENDBRANCH  16  18
ENDBRANCH   6  12
BRANCH  10  21
ATOM     21  C   UNL     1       5.336  -3.978  -7.405  0.00  0.00    -0.043 A 
ATOM     22  C   UNL     1       6.599  -4.203  -6.891  0.00  0.00    +0.004 A 
ATOM     23  C   UNL     1       7.562  -4.819  -7.668  0.00  0.00    +0.000 A 
ATOM     24  C   UNL     1       7.262  -5.208  -8.960  0.00  0.00    +0.000 A 
ATOM     25  C   UNL     1       5.999  -4.983  -9.474  0.00  0.00    +0.000 A 
ATOM     26  C   UNL     1       5.034  -4.372  -8.695  0.00  0.00    +0.004 A 
ENDBRANCH  10  21
BRANCH   2  27
ATOM     27  N   UNL     1       1.169  -4.492  -1.581  0.00  0.00    -0.329 N 
ATOM     28  H   UNL     1       0.662  -4.128  -0.838  0.00  0.00    +0.145 HD
ATOM     29  H   UNL     1       1.363  -5.441  -1.617  0.00  0.00    +0.145 HD
ENDBRANCH   2  27
BRANCH   1  30
ATOM     30  C   UNL     1       0.785  -1.801  -1.331  0.00  0.00    +0.341 C 
ATOM     31  O   UNL     1       1.442  -1.297  -0.438  0.00  0.00    -0.245 OA
BRANCH  30  32
ATOM     32  O   UNL     1      -0.561  -1.857  -1.229  0.00  0.00    -0.462 OA
BRANCH  32  34
ATOM     33  C   UNL     1      -2.667  -1.460  -0.112  0.00  0.00    +0.048 C 
ATOM     34  C   UNL     1      -1.146  -1.307  -0.048  0.00  0.00    +0.229 C 
ENDBRANCH  32  34
ENDBRANCH  30  32
ENDBRANCH   1  30
TORSDOF 7
