REMARK  Name = ZINC02354349
REMARK  8 active torsions:
REMARK  status: ('A' for Active; 'I' for Inactive)
REMARK    1  A    between atoms: C_1  and  C_2
REMARK    2  A    between atoms: N_8  and  C_9
REMARK    3  A    between atoms: C_9  and  C_10
REMARK    4  A    between atoms: C_19  and  C_29
REMARK    5  A    between atoms: C_21  and  C_25
REMARK    6  A    between atoms: C_22  and  N_24
REMARK    7  A    between atoms: C_25  and  O_27
REMARK    8  A    between atoms: O_27  and  C_28
REMARK                            x       y       z     vdW  Elec       q    Type
REMARK                         _______ _______ _______ _____ _____    ______ ____
ROOT
ATOM      1  C   UNL     1       5.394   3.127   4.256  0.00  0.00    +0.064 C 
ATOM      2  C   UNL     1       4.447   2.697   3.166  0.00  0.00    +0.023 A 
ATOM      3  C   UNL     1       4.678   3.082   1.893  0.00  0.00    +0.068 A 
ATOM      4  C   UNL     1       3.794   2.682   0.869  0.00  0.00    +0.141 A 
ATOM      5  C   UNL     1       2.705   1.901   1.194  0.00  0.00    +0.071 A 
ATOM      6  C   UNL     1       2.506   1.526   2.529  0.00  0.00    +0.259 A 
ATOM      7  O   UNL     1       1.546   0.834   2.832  0.00  0.00    -0.267 OA
ATOM      8  N   UNL     1       3.372   1.927   3.479  0.00  0.00    -0.308 N 
ATOM      9  C   UNL     1       1.736   1.453   0.135  0.00  0.00    +0.101 C 
ATOM     10  C   UNL     1       2.345   1.623  -1.229  0.00  0.00    +0.105 C 
ATOM     11  C   UNL     1       3.436   2.408  -1.419  0.00  0.00    +0.195 C 
ATOM     12  O   UNL     1       4.022   3.066  -0.405  0.00  0.00    -0.441 OA
ENDROOT
BRANCH   9  13
ATOM     13  C   UNL     1       0.478   2.278   0.227  0.00  0.00    -0.017 A 
ATOM     14  C   UNL     1       0.539   3.650   0.068  0.00  0.00    +0.007 A 
ATOM     15  C   UNL     1      -0.614   4.408   0.153  0.00  0.00    +0.020 A 
ATOM     16  C   UNL     1      -1.829   3.793   0.397  0.00  0.00    +0.042 A 
ATOM     17  C   UNL     1      -1.891   2.420   0.550  0.00  0.00    +0.040 A 
ATOM     18  C   UNL     1      -0.736   1.663   0.471  0.00  0.00    +0.046 A 
ATOM     19 CL   UNL     1      -0.812  -0.060   0.669  0.00  0.00    -0.083 Cl
ATOM     20 CL   UNL     1      -3.277   4.745   0.505  0.00  0.00    -0.083 Cl
ENDBRANCH   9  13
BRANCH  11  21
ATOM     21  N   UNL     1       3.954   2.533  -2.680  0.00  0.00    -0.329 N 
ATOM     22  H   UNL     1       4.682   3.152  -2.846  0.00  0.00    +0.145 HD
ATOM     23  H   UNL     1       3.593   2.002  -3.408  0.00  0.00    +0.145 HD
ENDBRANCH  11  21
BRANCH  10  24
ATOM     24  C   UNL     1       1.775   0.959  -2.326  0.00  0.00    +0.341 C 
ATOM     25  O   UNL     1       1.973  -0.233  -2.486  0.00  0.00    -0.245 OA
BRANCH  24  26
ATOM     26  O   UNL     1       1.007   1.640  -3.203  0.00  0.00    -0.465 OA
ATOM     27  C   UNL     1       0.459   0.900  -4.296  0.00  0.00    +0.280 C 
ENDBRANCH  24  26
ENDBRANCH  10  24
BRANCH   8  28
ATOM     28  C   UNL     1       3.151   1.527   4.871  0.00  0.00    +0.160 C 
BRANCH  28  29
ATOM     29  C   UNL     1       2.188   2.486   5.522  0.00  0.00    -0.024 A 
ATOM     30  C   UNL     1       0.826   2.292   5.388  0.00  0.00    +0.009 A 
ATOM     31  C   UNL     1      -0.062   3.169   5.984  0.00  0.00    +0.050 A 
ATOM     32  C   UNL     1       0.413   4.244   6.718  0.00  0.00    +0.166 A 
ATOM     33  C   UNL     1       1.785   4.439   6.853  0.00  0.00    +0.167 A 
ATOM     34  C   UNL     1       2.669   3.553   6.257  0.00  0.00    +0.055 A 
ATOM     35  O   UNL     1       1.995   5.553   7.613  0.00  0.00    -0.453 OA
ATOM     36  C   UNL     1       0.746   6.268   7.599  0.00  0.00    +0.466 C 
ATOM     37  O   UNL     1      -0.237   5.236   7.393  0.00  0.00    -0.453 OA
ENDBRANCH  28  29
ENDBRANCH   8  28
TORSDOF 6
