REMARK  Name = ZINC21229084
REMARK  7 active torsions:
REMARK  status: ('A' for Active; 'I' for Inactive)
REMARK    1  A    between atoms: C_1  and  C_2
REMARK    2  A    between atoms: C_2  and  O_3
REMARK    3  A    between atoms: O_3  and  C_4
REMARK    4  A    between atoms: C_7  and  C_12
REMARK    5  A    between atoms: C_9  and  O_10
REMARK    6  A    between atoms: O_10  and  C_11
REMARK    7  A    between atoms: C_17  and  C_27
REMARK                            x       y       z     vdW  Elec       q    Type
REMARK                         _______ _______ _______ _____ _____    ______ ____
ROOT
ATOM      1  C   UNL     1      -0.149  -0.049  -0.395  0.00  0.00    +0.032 C 
ATOM      2  C   UNL     1       0.637  -0.410   0.864  0.00  0.00    +0.059 C 
ATOM      3  C   UNL     1       0.723  -1.922   1.004  0.00  0.00    +0.017 C 
ATOM      4  C   UNL     1       0.782  -2.700  -0.088  0.00  0.00    +0.036 C 
ATOM      5  C   UNL     1       0.899  -4.207  -0.098  0.00  0.00    +0.138 C 
ATOM      6  N   UNL     1       0.683  -4.829   1.192  0.00  0.00    -0.331 N 
ATOM      7  C   UNL     1       1.548  -4.594   2.257  0.00  0.00    +0.049 A 
ATOM      8  C   UNL     1       2.339  -5.606   2.780  0.00  0.00    +0.025 A 
ATOM      9  C   UNL     1       3.220  -5.319   3.808  0.00  0.00    +0.002 A 
ATOM     10  C   UNL     1       3.318  -4.034   4.309  0.00  0.00    +0.002 A 
ATOM     11  C   UNL     1       2.518  -3.024   3.801  0.00  0.00    +0.025 A 
ATOM     12  C   UNL     1       1.620  -3.315   2.790  0.00  0.00    +0.052 A 
ATOM     13  N   UNL     1       0.732  -2.369   2.286  0.00  0.00    -0.316 N 
ATOM     14  C   UNL     1       0.735  -2.125  -1.380  0.00  0.00    +0.163 C 
ATOM     15  O   UNL     1       0.815  -2.854  -2.349  0.00  0.00    -0.292 OA
ATOM     16  C   UNL     1       0.592  -0.648  -1.596  0.00  0.00    +0.088 C 
ATOM     17  H   UNL     1      -0.176  -5.499   1.342  0.00  0.00    +0.147 HD
ATOM     18  H   UNL     1       0.001  -1.979   3.009  0.00  0.00    +0.152 HD
ENDROOT
BRANCH   5  19
ATOM     19  C   UNL     1       2.278  -4.577  -0.582  0.00  0.00    +0.002 A 
ATOM     20  C   UNL     1       3.343  -3.763  -0.658  0.00  0.00    +0.089 A 
ATOM     21  N   UNL     1       4.421  -4.450  -1.145  0.00  0.00    -0.360 N 
ATOM     22  H   UNL     1       5.386  -3.939  -1.274  0.00  0.00    +0.165 HD
ATOM     23  C   UNL     1       4.068  -5.756  -1.401  0.00  0.00    +0.047 A 
ATOM     24  C   UNL     1       2.711  -5.895  -1.054  0.00  0.00    +0.005 A 
ATOM     25  C   UNL     1       2.073  -7.126  -1.215  0.00  0.00    +0.010 A 
ATOM     26  C   UNL     1       2.773  -8.194  -1.700  0.00  0.00    +0.001 A 
ATOM     27  C   UNL     1       4.113  -8.065  -2.038  0.00  0.00    +0.002 A 
ATOM     28  C   UNL     1       4.761  -6.858  -1.892  0.00  0.00    +0.026 A 
ENDBRANCH   5  19
BRANCH   1  32
ATOM     29  C   UNL     1      -0.358   4.204  -0.800  0.00  0.00    +0.162 A 
ATOM     30  C   UNL     1       0.872   3.566  -0.781  0.00  0.00    +0.050 A 
ATOM     31  C   UNL     1       0.936   2.191  -0.650  0.00  0.00    +0.008 A 
ATOM     32  C   UNL     1      -0.225   1.450  -0.537  0.00  0.00    -0.040 A 
ATOM     33  C   UNL     1      -1.456   2.079  -0.561  0.00  0.00    +0.053 A 
ATOM     34  C   UNL     1      -1.527   3.457  -0.687  0.00  0.00    +0.162 A 
BRANCH  34  35
ATOM     35  O   UNL     1      -2.737   4.078  -0.705  0.00  0.00    -0.491 OA
ATOM     36  C   UNL     1      -3.894   3.248  -0.584  0.00  0.00    +0.277 C 
ENDBRANCH  34  35
BRANCH  29  37
ATOM     37  O   UNL     1      -0.423   5.556  -0.929  0.00  0.00    -0.489 OA
BRANCH  37  39
ATOM     38  C   UNL     1       0.544   7.756  -1.177  0.00  0.00    +0.048 C 
ATOM     39  C   UNL     1       0.817   6.257  -1.041  0.00  0.00    +0.226 C 
ENDBRANCH  37  39
ENDBRANCH  29  37
ENDBRANCH   1  32
TORSDOF 5
