REMARK  Name = ZINC25677466
REMARK  8 active torsions:
REMARK  status: ('A' for Active; 'I' for Inactive)
REMARK    1  A    between atoms: C_1  and  C_2
REMARK    2  A    between atoms: C_5  and  S_9
REMARK    3  A    between atoms: C_6  and  C_8
REMARK    4  A    between atoms: S_9  and  N_12
REMARK    5  A    between atoms: N_15  and  C_18
REMARK    6  A    between atoms: C_18  and  C_20
REMARK    7  A    between atoms: C_18  and  C_21
REMARK    8  A    between atoms: N_26  and  C_27
REMARK                            x       y       z     vdW  Elec       q    Type
REMARK                         _______ _______ _______ _____ _____    ______ ____
ROOT
ATOM      1  N   UNL     1      10.143   4.527   2.652  0.00  0.00    -0.180 NA
ATOM      2  C   UNL     1      10.941   3.363   2.236  0.00  0.00    +0.091 C 
ATOM      3  C   UNL     1      10.438   2.893   0.867  0.00  0.00    -0.060 C 
ATOM      4  N   UNL     1       8.989   2.660   0.935  0.00  0.00    +0.389 N 
ATOM      5  C   UNL     1       8.263   3.903   1.232  0.00  0.00    -0.060 C 
ATOM      6  C   UNL     1       8.677   4.414   2.615  0.00  0.00    +0.091 C 
ATOM      7  H   UNL     1       8.801   1.958   1.760  0.00  0.00    -0.081 HD
ENDROOT
BRANCH   1   8
ATOM      8  S   UNL     1      10.876   5.926   3.151  0.00  0.00    +0.061 S 
ATOM      9  O   UNL     1       9.985   6.547   4.067  0.00  0.00    -0.153 OA
ATOM     10  O   UNL     1      12.211   5.583   3.498  0.00  0.00    -0.153 OA
BRANCH   8  15
ATOM     11  C   UNL     1      11.226   9.565  -1.649  0.00  0.00    +0.044 C 
ATOM     12  C   UNL     1      11.138   8.656  -0.451  0.00  0.00    -0.050 A 
ATOM     13  C   UNL     1      10.307   8.982   0.605  0.00  0.00    +0.005 A 
ATOM     14  C   UNL     1      10.226   8.148   1.704  0.00  0.00    +0.029 A 
ATOM     15  C   UNL     1      10.978   6.988   1.749  0.00  0.00    +0.108 A 
ATOM     16  C   UNL     1      11.813   6.665   0.696  0.00  0.00    -0.024 A 
ATOM     17  C   UNL     1      11.889   7.496  -0.406  0.00  0.00    +0.008 A 
ATOM     18  C   UNL     1      12.636   5.404   0.747  0.00  0.00    +0.046 C 
ENDBRANCH   8  15
ENDBRANCH   1   8
BRANCH   4  19
ATOM     19  C   UNL     1       8.495   2.046  -0.305  0.00  0.00    +0.017 C 
ATOM     20  C   UNL     1       9.046   2.813  -1.508  0.00  0.00    -0.004 C 
BRANCH  19  21
ATOM     21  C   UNL     1       8.954   0.611  -0.371  0.00  0.00    +0.207 C 
ATOM     22  O   UNL     1       9.869   0.235   0.329  0.00  0.00    -0.277 OA
ATOM     23  N   UNL     1       8.345  -0.253  -1.208  0.00  0.00    -0.242 N 
ATOM     24  C   UNL     1       8.755  -1.535  -1.267  0.00  0.00    +0.306 C 
ATOM     25  O   UNL     1       9.673  -1.913  -0.566  0.00  0.00    -0.252 OA
ATOM     26  N   UNL     1       8.146  -2.399  -2.103  0.00  0.00    -0.296 N 
ATOM     27  H   UNL     1       7.514   0.089  -1.842  0.00  0.00    +0.159 HD
ATOM     28  H   UNL     1       7.315  -2.057  -2.738  0.00  0.00    +0.151 HD
BRANCH  26  29
ATOM     29  C   UNL     1       8.591  -3.793  -2.168  0.00  0.00    +0.074 C 
ATOM     30  C   UNL     1       7.788  -4.672  -1.177  0.00  0.00    +0.022 C 
ATOM     31  C   UNL     1       7.898  -6.096  -1.760  0.00  0.00    +0.002 C 
ATOM     32  C   UNL     1       8.186  -5.935  -3.263  0.00  0.00    +0.002 C 
ATOM     33  C   UNL     1       8.241  -4.418  -3.541  0.00  0.00    +0.022 C 
ENDBRANCH  26  29
ENDBRANCH  19  21
ENDBRANCH   4  19
TORSDOF 5
