REMARK  Name = ZINC33306646
REMARK  8 active torsions:
REMARK  status: ('A' for Active; 'I' for Inactive)
REMARK    1  A    between atoms: C_1  and  C_2
REMARK    2  A    between atoms: C_3  and  N_29
REMARK    3  A    between atoms: C_4  and  C_7
REMARK    4  A    between atoms: C_8  and  C_9
REMARK    5  A    between atoms: C_12  and  S_14
REMARK    6  A    between atoms: S_14  and  N_17
REMARK    7  A    between atoms: N_17  and  C_18
REMARK    8  A    between atoms: C_30  and  C_32
REMARK                            x       y       z     vdW  Elec       q    Type
REMARK                         _______ _______ _______ _____ _____    ______ ____
ROOT
ATOM      1  C   UNL     1      -5.226   1.692   4.932  0.00  0.00    +0.014 A 
ATOM      2  C   UNL     1      -5.429   1.719   6.303  0.00  0.00    +0.017 A 
ATOM      3  C   UNL     1      -6.721   1.709   6.772  0.00  0.00    +0.037 A 
ATOM      4  C   UNL     1      -7.751   1.673   5.886  0.00  0.00    +0.143 A 
ATOM      5  S   UNL     1      -6.902   1.660   4.315  0.00  0.00    -0.069 S 
ENDROOT
BRANCH   4   6
ATOM      6  S   UNL     1      -9.483   1.653   6.205  0.00  0.00    +0.065 S 
ATOM      7  O   UNL     1     -10.100   1.067   5.066  0.00  0.00    -0.153 OA
ATOM      8  O   UNL     1      -9.649   1.128   7.515  0.00  0.00    -0.153 OA
BRANCH   6   9
ATOM      9  N   UNL     1      -9.990   3.229   6.259  0.00  0.00    -0.182 NA
ATOM     10  H   UNL     1     -10.238   3.681   7.231  0.00  0.00    +0.149 HD
BRANCH   9  11
ATOM     11  C   UNL     1      -9.898   4.069   5.063  0.00  0.00    +0.107 C 
ATOM     12  C   UNL     1      -8.892   5.191   5.312  0.00  0.00    +0.025 C 
ATOM     13  C   UNL     1      -8.969   6.178   4.141  0.00  0.00    +0.007 C 
ATOM     14  C   UNL     1     -10.302   6.919   4.222  0.00  0.00    +0.035 C 
ATOM     15  C   UNL     1     -11.442   5.945   4.359  0.00  0.00    -0.043 A 
ATOM     16  C   UNL     1     -11.257   4.637   4.749  0.00  0.00    -0.026 A 
ATOM     17  C   UNL     1     -12.353   3.792   4.862  0.00  0.00    +0.005 A 
ATOM     18  C   UNL     1     -13.624   4.251   4.585  0.00  0.00    +0.000 A 
ATOM     19  C   UNL     1     -13.809   5.562   4.189  0.00  0.00    +0.000 A 
ATOM     20  C   UNL     1     -12.722   6.404   4.077  0.00  0.00    +0.004 A 
ENDBRANCH   9  11
ENDBRANCH   6   9
ENDBRANCH   4   6
BRANCH   1  22
ATOM     21  C   UNL     1      -3.985   1.666   2.832  0.00  0.00    +0.052 C 
ATOM     22  C   UNL     1      -3.969   1.696   4.184  0.00  0.00    +0.019 C 
BRANCH  21  26
ATOM     23  C   UNL     1      -0.610   1.636  -0.961  0.00  0.00    +0.071 C 
ATOM     24  C   UNL     1      -1.219   1.656   0.418  0.00  0.00    +0.102 A 
ATOM     25  C   UNL     1      -2.593   1.646   0.709  0.00  0.00    +0.103 A 
ATOM     26  C   UNL     1      -2.729   1.669   2.086  0.00  0.00    +0.182 A 
ATOM     27  O   UNL     1      -1.486   1.701   2.612  0.00  0.00    -0.353 OA
ATOM     28  N   UNL     1      -0.559   1.692   1.543  0.00  0.00    -0.081 NA
BRANCH  25  29
ATOM     29  N   UNL     1      -3.638   1.615  -0.226  0.00  0.00    -0.281 N 
ATOM     30  C   UNL     1      -3.463   0.997  -1.411  0.00  0.00    +0.220 C 
ATOM     31  O   UNL     1      -2.437   0.390  -1.633  0.00  0.00    -0.275 OA
ATOM     32  H   UNL     1      -4.600   2.095   0.008  0.00  0.00    +0.155 HD
BRANCH  30  33
ATOM     33  C   UNL     1      -4.544   1.060  -2.460  0.00  0.00    +0.075 C 
ATOM     34  C   UNL     1      -5.293  -0.235  -2.781  0.00  0.00    +0.013 C 
ATOM     35  C   UNL     1      -4.286   0.337  -3.783  0.00  0.00    +0.013 C 
ENDBRANCH  30  33
ENDBRANCH  25  29
ENDBRANCH  21  26
ENDBRANCH   1  22
TORSDOF 7
