REMARK  Name = ZINC39853535
REMARK  9 active torsions:
REMARK  status: ('A' for Active; 'I' for Inactive)
REMARK    1  A    between atoms: C_1  and  C_2
REMARK    2  A    between atoms: C_2  and  O_3
REMARK    3  A    between atoms: O_3  and  C_4
REMARK    4  A    between atoms: C_4  and  C_6
REMARK    5  A    between atoms: N_9  and  C_12
REMARK    6  A    between atoms: C_12  and  C_14
REMARK    7  A    between atoms: C_12  and  C_21
REMARK    8  A    between atoms: C_25  and  N_26
REMARK    9  A    between atoms: C_27  and  C_29
REMARK                            x       y       z     vdW  Elec       q    Type
REMARK                         _______ _______ _______ _____ _____    ______ ____
ROOT
ATOM      1  C   UNL     1      -6.150  -4.678  -1.339  0.00  0.00    -0.004 C 
ENDROOT
BRANCH   1   2
ATOM      2  C   UNL     1      -6.442  -6.152  -1.216  0.00  0.00    -0.025 A 
ATOM      3  C   UNL     1      -7.336  -6.609  -0.247  0.00  0.00    -0.033 A 
ATOM      4  C   UNL     1      -7.546  -7.952  -0.197  0.00  0.00    -0.005 A 
ATOM      5  S   UNL     1      -6.514  -8.593  -1.488  0.00  0.00    -0.078 S 
ATOM      6  C   UNL     1      -5.839  -7.038  -2.052  0.00  0.00    +0.074 A 
ATOM      7  C   UNL     1      -8.443  -8.699   0.736  0.00  0.00    +0.043 C 
ATOM      8  C   UNL     1      -8.828  -7.762   1.890  0.00  0.00    +0.005 C 
ATOM      9  C   UNL     1      -9.267  -6.417   1.305  0.00  0.00    +0.005 C 
ATOM     10  C   UNL     1      -8.059  -5.680   0.724  0.00  0.00    +0.036 C 
BRANCH   6  11
ATOM     11  N   UNL     1      -4.927  -6.795  -3.083  0.00  0.00    -0.280 N 
ATOM     12  C   UNL     1      -4.344  -7.828  -3.723  0.00  0.00    +0.214 C 
ATOM     13  O   UNL     1      -4.611  -8.968  -3.405  0.00  0.00    -0.276 OA
ATOM     14  C   UNL     1      -3.361  -7.567  -4.835  0.00  0.00    +0.109 C 
ATOM     15  H   UNL     1      -4.714  -5.884  -3.338  0.00  0.00    +0.155 HD
ENDBRANCH   6  11
ENDBRANCH   1   2
BRANCH   1  19
ATOM     16  C   UNL     1      -2.102  -3.534  -0.659  0.00  0.00    +0.094 C 
ATOM     17  C   UNL     1      -2.913  -2.823  -1.746  0.00  0.00    -0.004 C 
ATOM     18  C   UNL     1      -4.406  -3.041  -1.486  0.00  0.00    -0.077 C 
ATOM     19  N   UNL     1      -4.705  -4.478  -1.511  0.00  0.00    +0.387 N 
ATOM     20  C   UNL     1      -3.986  -5.156  -0.426  0.00  0.00    -0.077 C 
ATOM     21  C   UNL     1      -2.478  -5.019  -0.645  0.00  0.00    -0.004 C 
ATOM     22  H   UNL     1      -4.417  -4.865  -2.397  0.00  0.00    -0.080 HD
BRANCH  16  23
ATOM     23  C   UNL     1      -0.631  -3.389  -0.953  0.00  0.00    +0.310 C 
ATOM     24  O   UNL     1       0.049  -4.372  -1.132  0.00  0.00    -0.251 OA
BRANCH  23  25
ATOM     25  O   UNL     1      -0.076  -2.169  -1.014  0.00  0.00    -0.465 OA
BRANCH  25  27
ATOM     26  C   UNL     1       1.772  -0.643  -1.327  0.00  0.00    +0.048 C 
ATOM     27  C   UNL     1       1.323  -2.106  -1.296  0.00  0.00    +0.229 C 
ENDBRANCH  25  27
ENDBRANCH  23  25
ENDBRANCH  16  23
ENDBRANCH   1  19
BRANCH   1  28
ATOM     28  C   UNL     1      -6.881  -4.120  -2.533  0.00  0.00    -0.056 A 
ATOM     29  C   UNL     1      -6.221  -3.969  -3.739  0.00  0.00    +0.002 A 
ATOM     30  C   UNL     1      -6.891  -3.457  -4.834  0.00  0.00    +0.001 A 
ATOM     31  C   UNL     1      -8.220  -3.095  -4.724  0.00  0.00    +0.015 A 
ATOM     32  C   UNL     1      -8.881  -3.246  -3.518  0.00  0.00    +0.018 A 
ATOM     33  C   UNL     1      -8.211  -3.764  -2.424  0.00  0.00    +0.017 A 
ATOM     34 BR   UNL     1     -10.699  -2.750  -3.368  0.00  0.00    -0.050 Br
ENDBRANCH   1  28
TORSDOF 7
