REMARK  Name = ZINC61595196
REMARK  9 active torsions:
REMARK  status: ('A' for Active; 'I' for Inactive)
REMARK    1  A    between atoms: C_1  and  C_2
REMARK    2  A    between atoms: C_2  and  C_4
REMARK    3  A    between atoms: C_2  and  N_24
REMARK    4  A    between atoms: C_4  and  C_6
REMARK    5  A    between atoms: C_4  and  S_13
REMARK    6  A    between atoms: S_13  and  C_14
REMARK    7  A    between atoms: N_20  and  C_21
REMARK    8  A    between atoms: C_21  and  C_22
REMARK    9  A    between atoms: C_21  and  C_23
REMARK                            x       y       z     vdW  Elec       q    Type
REMARK                         _______ _______ _______ _____ _____    ______ ____
ROOT
ATOM      1  C   UNL     1       0.673  -0.626   1.229  0.00  0.00    +0.071 C 
ENDROOT
BRANCH   1   2
ATOM      2  C   UNL     1       0.715  -2.099   0.912  0.00  0.00    -0.022 A 
ATOM      3  C   UNL     1       1.825  -2.641   0.292  0.00  0.00    +0.006 A 
ATOM      4  C   UNL     1       1.864  -3.992   0.002  0.00  0.00    +0.000 A 
ATOM      5  C   UNL     1       0.792  -4.801   0.332  0.00  0.00    +0.001 A 
ATOM      6  C   UNL     1      -0.318  -4.260   0.952  0.00  0.00    +0.015 A 
ATOM      7  C   UNL     1      -0.355  -2.909   1.247  0.00  0.00    +0.022 A 
ATOM      8 BR   UNL     1      -1.870  -2.169   2.102  0.00  0.00    -0.050 Br
ENDBRANCH   1   2
BRANCH   1  10
ATOM      9  C   UNL     1       0.765   0.016  -1.184  0.00  0.00    -0.013 C 
ATOM     10  C   UNL     1      -0.052   0.117   0.105  0.00  0.00    -0.060 C 
BRANCH  10  11
ATOM     11  N   UNL     1      -0.211   1.530   0.474  0.00  0.00    +0.381 N 
ATOM     12  H   UNL     1      -0.690   2.020  -0.267  0.00  0.00    -0.090 HD
ATOM     13  H   UNL     1      -0.750   1.597   1.325  0.00  0.00    -0.090 HD
ATOM     14  H   UNL     1       0.698   1.944   0.619  0.00  0.00    -0.090 HD
ENDBRANCH  10  11
ENDBRANCH   1  10
BRANCH   1  15
ATOM     15  S   UNL     1       2.366   0.009   1.378  0.00  0.00    -0.080 S 
BRANCH  15  16
ATOM     16  C   UNL     1       2.987  -0.773   2.830  0.00  0.00    +0.193 A 
ATOM     17  N   UNL     1       2.302  -1.531   3.636  0.00  0.00    -0.145 NA
ATOM     18  N   UNL     1       3.156  -1.954   4.664  0.00  0.00    -0.226 N 
ATOM     19  H   UNL     1       2.918  -2.530   5.408  0.00  0.00    +0.194 HD
ATOM     20  C   UNL     1       4.370  -1.413   4.429  0.00  0.00    +0.345 A 
ATOM     21  O   UNL     1       5.367  -1.559   5.113  0.00  0.00    -0.245 OA
ATOM     22  N   UNL     1       4.279  -0.687   3.297  0.00  0.00    -0.268 N 
BRANCH  22  23
ATOM     23  C   UNL     1       5.369   0.067   2.673  0.00  0.00    +0.088 C 
ATOM     24  C   UNL     1       5.886   1.122   3.654  0.00  0.00    +0.031 C 
ATOM     25  C   UNL     1       6.506  -0.889   2.306  0.00  0.00    +0.031 C 
ENDBRANCH  22  23
ENDBRANCH  15  16
ENDBRANCH   1  15
TORSDOF 6
