REMARK  Name = ZINC39272873
REMARK  9 active torsions:
REMARK  status: ('A' for Active; 'I' for Inactive)
REMARK    1  A    between atoms: C_1  and  C_2
REMARK    2  A    between atoms: C_8  and  S_9
REMARK    3  A    between atoms: S_9  and  C_10
REMARK    4  A    between atoms: C_10  and  C_11
REMARK    5  A    between atoms: C_11  and  N_12
REMARK    6  A    between atoms: N_12  and  C_13
REMARK    7  A    between atoms: C_13  and  C_31
REMARK    8  A    between atoms: C_15  and  C_30
REMARK    9  A    between atoms: N_17  and  C_20
REMARK                            x       y       z     vdW  Elec       q    Type
REMARK                         _______ _______ _______ _____ _____    ______ ____
ROOT
ATOM      1  C   UNL     1       1.131  -1.423  -8.633  0.00  0.00    +0.015 C 
ATOM      2  C   UNL     1       0.673  -0.830  -9.797  0.00  0.00    +0.077 C 
ATOM      3  C   UNL     1       1.286  -0.887 -11.132  0.00  0.00    +0.070 C 
ATOM      4  N   UNL     1       0.538  -0.197 -11.937  0.00  0.00    -0.179 NA
ATOM      5  N   UNL     1      -0.560   0.344 -11.270  0.00  0.00    -0.158 N 
ATOM      6  C   UNL     1      -0.534  -0.012  -9.969  0.00  0.00    +0.271 C 
ATOM      7  O   UNL     1      -1.346   0.287  -9.110  0.00  0.00    -0.268 OA
ATOM      8  C   UNL     1       2.554  -1.614 -11.499  0.00  0.00    +0.068 C 
ATOM      9  C   UNL     1       2.333  -2.330  -8.671  0.00  0.00    +0.061 C 
ENDROOT
BRANCH   5  10
ATOM     10  C   UNL     1      -1.595   1.174 -11.892  0.00  0.00    +0.249 C 
ATOM     11  N   UNL     1      -1.007   2.353 -12.541  0.00  0.00    -0.315 N 
ATOM     12  C   UNL     1      -1.171   2.479 -13.920  0.00  0.00    +0.043 A 
ATOM     13  C   UNL     1      -0.682   3.534 -14.710  0.00  0.00    +0.024 A 
ATOM     14  C   UNL     1      -0.898   3.567 -16.068  0.00  0.00    +0.002 A 
ATOM     15  C   UNL     1      -1.605   2.563 -16.703  0.00  0.00    +0.001 A 
ATOM     16  C   UNL     1      -2.099   1.510 -15.950  0.00  0.00    +0.016 A 
ATOM     17  C   UNL     1      -1.882   1.479 -14.591  0.00  0.00    +0.032 A 
ATOM     18  S   UNL     1      -2.354   0.317 -13.329  0.00  0.00    -0.080 S 
ATOM     19  H   UNL     1      -0.523   3.020 -12.030  0.00  0.00    +0.149 HD
ENDBRANCH   5  10
BRANCH   1  20
ATOM     20  N   UNL     1       0.500  -1.189  -7.464  0.00  0.00    -0.346 N 
ATOM     21  H   UNL     1      -0.274  -0.605  -7.439  0.00  0.00    +0.146 HD
BRANCH  20  22
ATOM     22  C   UNL     1       0.984  -1.816  -6.232  0.00  0.00    +0.112 C 
BRANCH  22  23
ATOM     23  C   UNL     1       0.099  -1.389  -5.059  0.00  0.00    +0.092 C 
BRANCH  23  24
ATOM     24  S   UNL     1       0.698  -2.166  -3.534  0.00  0.00    -0.130 S 
BRANCH  24  31
ATOM     25  C   UNL     1      -1.042  -0.065   0.396  0.00  0.00    +0.039 C 
ATOM     26  C   UNL     1      -1.098  -1.577   0.167  0.00  0.00    +0.148 C 
ATOM     27  C   UNL     1      -0.256  -1.965  -1.034  0.00  0.00    +0.039 C 
ATOM     28  N   UNL     1       0.724  -2.822  -0.506  0.00  0.00    -0.307 N 
ATOM     29  C   UNL     1       0.536  -2.961   0.835  0.00  0.00    +0.180 C 
ATOM     30  N   UNL     1      -0.470  -2.293   1.288  0.00  0.00    -0.267 NA
ATOM     31  C   UNL     1      -0.410  -1.583  -2.295  0.00  0.00    +0.061 C 
ATOM     32  H   UNL     1       1.428  -3.250  -1.019  0.00  0.00    +0.153 HD
ENDBRANCH  24  31
ENDBRANCH  23  24
ENDBRANCH  22  23
ENDBRANCH  20  22
ENDBRANCH   1  20
TORSDOF 6
