REMARK  Name = ZINC02095720
REMARK  13 active torsions:
REMARK  status: ('A' for Active; 'I' for Inactive)
REMARK    1  A    between atoms: C_1  and  C_2
REMARK    2  A    between atoms: C_2  and  C_3
REMARK    3  A    between atoms: C_3  and  C_5
REMARK    4  A    between atoms: C_3  and  N_28
REMARK    5  A    between atoms: C_5  and  O_7
REMARK    6  A    between atoms: O_7  and  C_8
REMARK    7  A    between atoms: C_12  and  C_27
REMARK    8  A    between atoms: C_13  and  C_20
REMARK    9  A    between atoms: C_18  and  C_19
REMARK   10  A    between atoms: C_20  and  C_21
REMARK   11  A    between atoms: N_28  and  S_29
REMARK   12  A    between atoms: S_29  and  C_32
REMARK   13  A    between atoms: C_35  and  C_38
REMARK                            x       y       z     vdW  Elec       q    Type
REMARK                         _______ _______ _______ _____ _____    ______ ____
ROOT
ATOM      1  C   UNL     1       0.908  -0.659   3.644  0.00  0.00    +0.138 A 
ATOM      2  C   UNL     1       1.314   0.173   4.686  0.00  0.00    +0.047 A 
ATOM      3  C   UNL     1       2.006  -0.334   5.747  0.00  0.00    +0.015 A 
ATOM      4  C   UNL     1       2.323  -1.696   5.783  0.00  0.00    +0.021 A 
ATOM      5  C   UNL     1       3.071  -2.267   6.906  0.00  0.00    -0.030 A 
ATOM      6  C   UNL     1       3.346  -3.597   6.883  0.00  0.00    +0.045 A 
ATOM      7  C   UNL     1       2.913  -4.385   5.797  0.00  0.00    +0.341 A 
ATOM      8  O   UNL     1       3.166  -5.576   5.790  0.00  0.00    -0.245 OA
ATOM      9  O   UNL     1       2.228  -3.856   4.771  0.00  0.00    -0.422 OA
ATOM     10  C   UNL     1       1.921  -2.541   4.732  0.00  0.00    +0.146 A 
ATOM     11  C   UNL     1       1.212  -2.010   3.664  0.00  0.00    +0.035 A 
ATOM     12  C   UNL     1       0.774  -2.900   2.530  0.00  0.00    +0.051 C 
ATOM     13  C   UNL     1       3.523  -1.402   8.054  0.00  0.00    +0.045 C 
ENDROOT
BRANCH   1  14
ATOM     14  O   UNL     1       0.214  -0.140   2.599  0.00  0.00    -0.424 OA
BRANCH  14  15
ATOM     15  C   UNL     1      -1.125  -0.213   2.660  0.00  0.00    +0.331 C 
ATOM     16  O   UNL     1      -1.662  -0.636   3.656  0.00  0.00    -0.249 OA
BRANCH  15  17
ATOM     17  C   UNL     1      -1.959   0.234   1.487  0.00  0.00    +0.185 C 
BRANCH  17  19
ATOM     18  C   UNL     1      -2.104   2.555   2.401  0.00  0.00    +0.006 C 
ATOM     19  C   UNL     1      -1.681   1.711   1.197  0.00  0.00    +0.028 C 
ENDBRANCH  17  19
BRANCH  17  20
ATOM     20  N   UNL     1      -3.378   0.056   1.800  0.00  0.00    -0.176 NA
ATOM     21  H   UNL     1      -3.701   0.222   2.700  0.00  0.00    +0.149 HD
BRANCH  20  22
ATOM     22  S   UNL     1      -4.433  -0.427   0.619  0.00  0.00    +0.059 S 
ATOM     23  O   UNL     1      -5.703  -0.570   1.241  0.00  0.00    -0.153 OA
ATOM     24  O   UNL     1      -4.222   0.434  -0.492  0.00  0.00    -0.153 OA
BRANCH  22  25
ATOM     25  C   UNL     1      -3.939  -2.039   0.107  0.00  0.00    +0.105 A 
ATOM     26  C   UNL     1      -3.037  -2.189  -0.930  0.00  0.00    +0.029 A 
ATOM     27  C   UNL     1      -2.646  -3.454  -1.328  0.00  0.00    +0.005 A 
ATOM     28  C   UNL     1      -3.163  -4.569  -0.696  0.00  0.00    -0.050 A 
ATOM     29  C   UNL     1      -4.069  -4.419   0.339  0.00  0.00    +0.005 A 
ATOM     30  C   UNL     1      -4.457  -3.154   0.740  0.00  0.00    +0.029 A 
ATOM     31  C   UNL     1      -2.741  -5.948  -1.133  0.00  0.00    +0.044 C 
ENDBRANCH  22  25
ENDBRANCH  20  22
ENDBRANCH  17  20
ENDBRANCH  15  17
ENDBRANCH  14  15
ENDBRANCH   1  14
BRANCH   6  32
ATOM     32  C   UNL     1       4.114  -4.229   8.016  0.00  0.00    +0.077 C 
BRANCH  32  33
ATOM     33  C   UNL     1       5.589  -4.175   7.715  0.00  0.00    -0.043 A 
ATOM     34  C   UNL     1       6.195  -5.216   7.037  0.00  0.00    +0.004 A 
ATOM     35  C   UNL     1       7.548  -5.165   6.756  0.00  0.00    +0.000 A 
ATOM     36  C   UNL     1       8.296  -4.076   7.162  0.00  0.00    +0.000 A 
ATOM     37  C   UNL     1       7.692  -3.037   7.845  0.00  0.00    +0.000 A 
ATOM     38  C   UNL     1       6.338  -3.086   8.121  0.00  0.00    +0.004 A 
ENDBRANCH  32  33
ENDBRANCH   6  32
TORSDOF 9
