REMARK  Name = ZINC13522961
REMARK  11 active torsions:
REMARK  status: ('A' for Active; 'I' for Inactive)
REMARK    1  A    between atoms: C_1  and  C_2
REMARK    2  A    between atoms: C_2  and  C_4
REMARK    3  A    between atoms: C_2  and  N_14
REMARK    4  A    between atoms: C_15  and  C_17
REMARK    5  A    between atoms: C_17  and  O_18
REMARK    6  A    between atoms: O_18  and  C_19
REMARK    7  A    between atoms: C_19  and  C_21
REMARK    8  A    between atoms: C_25  and  S_27
REMARK    9  A    between atoms: S_27  and  N_30
REMARK   10  A    between atoms: N_30  and  C_31
REMARK   11  A    between atoms: C_31  and  C_32
REMARK                            x       y       z     vdW  Elec       q    Type
REMARK                         _______ _______ _______ _____ _____    ______ ____
ROOT
ATOM      1  C   UNL     1      -0.070   5.322   0.029  0.00  0.00    +0.340 C 
ATOM      2  O   UNL     1      -1.130   5.915   0.042  0.00  0.00    -0.245 OA
ENDROOT
BRANCH   1   3
ATOM      3  C   UNL     1      -0.050   3.845   0.022  0.00  0.00    +0.061 A 
ATOM      4  C   UNL     1       1.167   3.160   0.007  0.00  0.00    +0.015 A 
ATOM      5  C   UNL     1       1.178   1.781   0.000  0.00  0.00    +0.003 A 
ATOM      6  C   UNL     1      -0.013   1.076   0.008  0.00  0.00    +0.028 A 
ATOM      7  C   UNL     1      -1.222   1.748   0.017  0.00  0.00    +0.106 A 
ATOM      8  C   UNL     1      -1.248   3.127   0.030  0.00  0.00    +0.043 A 
BRANCH   7   9
ATOM      9  S   UNL     1      -2.732   0.840   0.020  0.00  0.00    +0.059 S 
ATOM     10  O   UNL     1      -3.724   1.702  -0.522  0.00  0.00    -0.153 OA
ATOM     11  O   UNL     1      -2.441  -0.433  -0.540  0.00  0.00    -0.153 OA
BRANCH   9  12
ATOM     12  N   UNL     1      -3.144   0.580   1.602  0.00  0.00    -0.186 NA
ATOM     13  H   UNL     1      -3.164  -0.324   1.956  0.00  0.00    +0.148 HD
BRANCH  12  14
ATOM     14  C   UNL     1      -3.479   1.713   2.468  0.00  0.00    +0.141 C 
BRANCH  14  15
ATOM     15  C   UNL     1      -4.160   1.208   3.714  0.00  0.00    -0.032 A 
ATOM     16  C   UNL     1      -5.537   1.082   3.746  0.00  0.00    +0.005 A 
ATOM     17  C   UNL     1      -6.162   0.615   4.887  0.00  0.00    +0.000 A 
ATOM     18  C   UNL     1      -5.411   0.284   6.000  0.00  0.00    +0.000 A 
ATOM     19  C   UNL     1      -4.035   0.416   5.970  0.00  0.00    +0.000 A 
ATOM     20  C   UNL     1      -3.410   0.878   4.827  0.00  0.00    +0.005 A 
ENDBRANCH  14  15
ENDBRANCH  12  14
ENDBRANCH   9  12
ENDBRANCH   7   9
ENDBRANCH   1   3
BRANCH   1  21
ATOM     21  O   UNL     1       1.087   6.011   0.022  0.00  0.00    -0.452 OA
BRANCH  21  22
ATOM     22  C   UNL     1       0.992   7.460   0.029  0.00  0.00    +0.328 C 
BRANCH  22  24
ATOM     23  N   UNL     1       2.535   9.393   0.024  0.00  0.00    -0.309 N 
ATOM     24  C   UNL     1       2.376   8.055   0.019  0.00  0.00    +0.251 C 
ATOM     25  O   UNL     1       3.348   7.330   0.006  0.00  0.00    -0.272 OA
ATOM     26  H   UNL     1       1.757   9.974   0.034  0.00  0.00    +0.149 HD
BRANCH  23  28
ATOM     27  C   UNL     1       4.412  10.051   1.446  0.00  0.00    +0.028 C 
ATOM     28  C   UNL     1       3.881   9.972   0.014  0.00  0.00    +0.076 C 
BRANCH  28  29
ATOM     29  C   UNL     1       3.827  11.377  -0.589  0.00  0.00    -0.010 C 
ATOM     30  C   UNL     1       2.900  12.258   0.252  0.00  0.00    +0.012 C 
ATOM     31  C   UNL     1       2.847  13.663  -0.351  0.00  0.00    -0.010 C 
ATOM     32  C   UNL     1       4.253  14.267  -0.362  0.00  0.00    +0.007 C 
ATOM     33  C   UNL     1       5.180  13.386  -1.202  0.00  0.00    -0.010 C 
ATOM     34  C   UNL     1       5.233  11.981  -0.600  0.00  0.00    +0.012 C 
ATOM     35  C   UNL     1       4.648  13.307  -2.634  0.00  0.00    +0.007 C 
ATOM     36  C   UNL     1       3.242  12.704  -2.624  0.00  0.00    -0.010 C 
ATOM     37  C   UNL     1       2.315  13.584  -1.783  0.00  0.00    +0.007 C 
ATOM     38  C   UNL     1       3.295  11.298  -2.021  0.00  0.00    +0.012 C 
ENDBRANCH  28  29
ENDBRANCH  23  28
ENDBRANCH  22  24
ENDBRANCH  21  22
ENDBRANCH   1  21
TORSDOF 10
