REMARK  Name = ZINC06149281
REMARK  13 active torsions:
REMARK  status: ('A' for Active; 'I' for Inactive)
REMARK    1  A    between atoms: C_1  and  C_2
REMARK    2  A    between atoms: C_2  and  C_3
REMARK    3  A    between atoms: C_3  and  C_4
REMARK    4  A    between atoms: C_3  and  C_5
REMARK    5  A    between atoms: C_3  and  N_6
REMARK    6  A    between atoms: C_7  and  C_11
REMARK    7  A    between atoms: C_11  and  C_13
REMARK    8  A    between atoms: C_11  and  N_70
REMARK    9  A    between atoms: C_18  and  C_25
REMARK   10  A    between atoms: C_26  and  C_27
REMARK   11  A    between atoms: C_26  and  N_70
REMARK   12  A    between atoms: C_32  and  C_33
REMARK   13  A    between atoms: C_32  and  N_70
REMARK                            x       y       z     vdW  Elec       q    Type
REMARK                         _______ _______ _______ _____ _____    ______ ____
ROOT
ATOM      1  C   UNL     1      -2.005   3.996   6.539  0.00  0.00    +0.039 C 
ENDROOT
BRANCH   1   2
ATOM      2  C   UNL     1      -1.204   4.207   5.280  0.00  0.00    +0.011 A 
ATOM      3  C   UNL     1      -1.833   4.263   4.080  0.00  0.00    +0.017 A 
ATOM      4  C   UNL     1      -1.026   4.468   2.876  0.00  0.00    -0.001 A 
ATOM      5  C   UNL     1      -1.619   4.535   1.611  0.00  0.00    +0.010 A 
ATOM      6  C   UNL     1      -0.839   4.733   0.507  0.00  0.00    +0.004 A 
ATOM      7  C   UNL     1       0.538   4.858   0.629  0.00  0.00    -0.048 A 
ATOM      8  C   UNL     1       1.144   4.796   1.865  0.00  0.00    +0.029 A 
ATOM      9  C   UNL     1       0.369   4.601   3.004  0.00  0.00    +0.049 A 
ATOM     10  N   UNL     1       0.948   4.535   4.253  0.00  0.00    -0.322 N 
ATOM     11  H   UNL     1       1.939   4.631   4.343  0.00  0.00    +0.169 HD
ATOM     12  C   UNL     1       0.199   4.345   5.354  0.00  0.00    +0.251 A 
ATOM     13  O   UNL     1       0.745   4.291   6.442  0.00  0.00    -0.268 OA
ATOM     14  C   UNL     1       1.380   5.070  -0.603  0.00  0.00    +0.044 C 
ENDBRANCH   1   2
BRANCH   1  16
ATOM     15  N   UNL     1      -2.774   6.175   7.618  0.00  0.00    -0.225 N 
ATOM     16  C   UNL     1      -1.863   5.202   7.432  0.00  0.00    +0.143 A 
ATOM     17  N   UNL     1      -0.832   5.503   8.182  0.00  0.00    -0.115 NA
ATOM     18  N   UNL     1      -1.092   6.609   8.791  0.00  0.00    -0.023 NA
ATOM     19  N   UNL     1      -2.266   7.016   8.455  0.00  0.00    -0.043 NA
BRANCH  15  20
ATOM     20  C   UNL     1      -4.094   6.264   6.989  0.00  0.00    +0.061 C 
ATOM     21  C   UNL     1      -3.947   6.113   5.474  0.00  0.00    +0.036 C 
ATOM     22  C   UNL     1      -4.992   5.149   7.528  0.00  0.00    +0.036 C 
BRANCH  20  24
ATOM     23  C   UNL     1      -6.099   7.715   6.651  0.00  0.00    +0.006 C 
ATOM     24  C   UNL     1      -4.721   7.623   7.308  0.00  0.00    +0.026 C 
ENDBRANCH  20  24
ENDBRANCH  15  20
ENDBRANCH   1  16
BRANCH   1  25
ATOM     25  N   UNL     1      -1.483   2.812   7.254  0.00  0.00    +0.394 N 
ATOM     26  H   UNL     1      -0.592   3.058   7.701  0.00  0.00    -0.080 HD
BRANCH  25  27
ATOM     27  C   UNL     1      -1.253   1.707   6.300  0.00  0.00    -0.034 C 
BRANCH  27  28
ATOM     28  C   UNL     1      -0.512   0.602   7.008  0.00  0.00    -0.027 A 
ATOM     29  C   UNL     1      -1.003  -0.524   7.581  0.00  0.00    +0.009 A 
ATOM     30  C   UNL     1      -0.126  -1.410   8.177  0.00  0.00    +0.008 A 
ATOM     31  C   UNL     1       1.199  -1.122   8.179  0.00  0.00    +0.045 A 
ATOM     32  S   UNL     1       1.239   0.438   7.314  0.00  0.00    -0.103 S 
ENDBRANCH  27  28
ENDBRANCH  25  27
BRANCH  25  33
ATOM     33  C   UNL     1      -2.442   2.389   8.296  0.00  0.00    -0.045 C 
BRANCH  33  34
ATOM     34  C   UNL     1      -3.749   1.911   7.661  0.00  0.00    +0.102 C 
ATOM     35  C   UNL     1      -4.824   1.685   8.747  0.00  0.00    +0.032 C 
ATOM     36  C   UNL     1      -5.594   0.437   8.259  0.00  0.00    +0.030 C 
ATOM     37  C   UNL     1      -4.893   0.057   6.936  0.00  0.00    +0.160 C 
ATOM     38  O   UNL     1      -3.566   0.616   7.048  0.00  0.00    -0.378 OA
ENDBRANCH  33  34
ENDBRANCH  25  33
ENDBRANCH   1  25
TORSDOF 9
