REMARK  Name = ZINC38599137
REMARK  11 active torsions:
REMARK  status: ('A' for Active; 'I' for Inactive)
REMARK    1  A    between atoms: C_1  and  C_2
REMARK    2  A    between atoms: C_2  and  C_4
REMARK    3  A    between atoms: C_2  and  O_17
REMARK    4  A    between atoms: C_4  and  N_6
REMARK    5  A    between atoms: C_10  and  S_13
REMARK    6  A    between atoms: S_13  and  C_16
REMARK    7  A    between atoms: O_17  and  C_18
REMARK    8  A    between atoms: C_21  and  C_24
REMARK    9  A    between atoms: C_24  and  C_25
REMARK   10  A    between atoms: C_24  and  C_26
REMARK   11  A    between atoms: C_24  and  C_27
REMARK                            x       y       z     vdW  Elec       q    Type
REMARK                         _______ _______ _______ _____ _____    ______ ____
ROOT
ATOM      1  C   UNL     1      -0.292   1.273  -0.184  0.00  0.00    +0.062 C 
ATOM      2  C   UNL     1      -0.034  -0.229  -0.045  0.00  0.00    +0.258 C 
ENDROOT
BRANCH   2   3
ATOM      3  C   UNL     1       0.768  -0.712  -1.225  0.00  0.00    +0.279 C 
ATOM      4  O   UNL     1       1.895  -1.137  -1.061  0.00  0.00    -0.270 OA
BRANCH   3   5
ATOM      5  N   UNL     1       0.242  -0.674  -2.451  0.00  0.00    -0.150 NA
ATOM      6  C   UNL     1       0.947  -1.099  -3.488  0.00  0.00    +0.205 C 
ATOM      7  N   UNL     1       2.218  -1.611  -3.495  0.00  0.00    -0.127 NA
ATOM      8  N   UNL     1       2.807  -1.984  -4.489  0.00  0.00    -0.147 NA
ATOM      9  C   UNL     1       2.059  -1.856  -5.762  0.00  0.00    +0.332 C 
ATOM     10  S   UNL     1       0.490  -1.143  -5.112  0.00  0.00    -0.036 S 
BRANCH   9  11
ATOM     11  S   UNL     1       1.778  -3.474  -6.532  0.00  0.00    +0.000 S 
ATOM     12  O   UNL     1       0.927  -3.296  -7.655  0.00  0.00    -0.172 OA
ATOM     13  O   UNL     1       3.036  -4.111  -6.712  0.00  0.00    -0.172 OA
ATOM     14  C   UNL     1       0.859  -4.373  -5.252  0.00  0.00    +0.197 C 
ENDBRANCH   9  11
ENDBRANCH   3   5
ENDBRANCH   2   3
BRANCH   2  15
ATOM     15  O   UNL     1       0.693  -0.477   1.160  0.00  0.00    -0.480 OA
BRANCH  15  16
ATOM     16  C   UNL     1      -0.031  -0.600   2.303  0.00  0.00    +0.122 A 
ATOM     17  C   UNL     1      -1.400  -0.376   2.286  0.00  0.00    +0.046 A 
ATOM     18  C   UNL     1      -2.133  -0.502   3.450  0.00  0.00    +0.008 A 
ATOM     19  C   UNL     1      -1.504  -0.849   4.631  0.00  0.00    -0.042 A 
ATOM     20  C   UNL     1      -0.140  -1.072   4.651  0.00  0.00    +0.008 A 
ATOM     21  C   UNL     1       0.598  -0.954   3.489  0.00  0.00    +0.046 A 
BRANCH  19  22
ATOM     22  C   UNL     1      -2.307  -0.985   5.900  0.00  0.00    -0.013 C 
ATOM     23  C   UNL     1      -3.372  -2.067   5.715  0.00  0.00    +0.015 C 
ATOM     24  C   UNL     1      -1.378  -1.374   7.052  0.00  0.00    +0.015 C 
ATOM     25  C   UNL     1      -2.985   0.349   6.219  0.00  0.00    +0.015 C 
ENDBRANCH  19  22
ENDBRANCH  15  16
ENDBRANCH   2  15
TORSDOF 6
