REMARK  Name = ZINC39654361
REMARK  10 active torsions:
REMARK  status: ('A' for Active; 'I' for Inactive)
REMARK    1  A    between atoms: C_1  and  C_2
REMARK    2  A    between atoms: C_2  and  C_3
REMARK    3  A    between atoms: C_6  and  C_9
REMARK    4  A    between atoms: C_9  and  C_10
REMARK    5  A    between atoms: C_10  and  N_11
REMARK    6  A    between atoms: C_12  and  C_14
REMARK    7  A    between atoms: C_25  and  C_27
REMARK    8  A    between atoms: C_27  and  C_29
REMARK    9  A    between atoms: C_27  and  O_30
REMARK   10  A    between atoms: O_30  and  C_31
REMARK                            x       y       z     vdW  Elec       q    Type
REMARK                         _______ _______ _______ _____ _____    ______ ____
ROOT
ATOM      1  C   UNL     1     -10.210  -1.036   0.085  0.00  0.00    +0.100 C 
ATOM      2  C   UNL     1     -10.433  -1.932   1.325  0.00  0.00    +0.121 C 
ATOM      3  N   UNL     1     -11.022  -1.027   2.339  0.00  0.00    -0.297 N 
ATOM      4  C   UNL     1     -11.952  -0.166   1.570  0.00  0.00    +0.115 C 
ATOM      5  C   UNL     1     -11.211   0.120   0.248  0.00  0.00    -0.004 C 
ATOM      6  C   UNL     1     -10.471   1.451   0.336  0.00  0.00    -0.010 C 
ATOM      7  C   UNL     1     -11.490   2.590   0.441  0.00  0.00    -0.082 C 
ATOM      8  N   UNL     1     -12.368   2.572  -0.735  0.00  0.00    +0.379 N 
ATOM      9  C   UNL     1     -13.145   1.327  -0.761  0.00  0.00    -0.082 C 
ATOM     10  C   UNL     1     -12.197   0.135  -0.916  0.00  0.00    -0.010 C 
ATOM     11  C   UNL     1     -10.770  -0.994   3.663  0.00  0.00    +0.256 C 
ATOM     12  O   UNL     1      -9.906  -1.704   4.133  0.00  0.00    -0.272 OA
ATOM     13  H   UNL     1     -12.998   3.359  -0.694  0.00  0.00    -0.086 HD
ATOM     14  H   UNL     1     -11.809   2.636  -1.572  0.00  0.00    -0.086 HD
ENDROOT
BRANCH   1  16
ATOM     15  N   UNL     1      -8.193  -0.249  -1.110  0.00  0.00    -0.315 N 
ATOM     16  C   UNL     1      -8.799  -0.509   0.065  0.00  0.00    +0.218 C 
ATOM     17  O   UNL     1      -8.207  -0.320   1.107  0.00  0.00    -0.275 OA
ATOM     18  H   UNL     1      -8.666  -0.401  -1.944  0.00  0.00    +0.149 HD
BRANCH  15  19
ATOM     19  C   UNL     1      -6.821   0.263  -1.130  0.00  0.00    +0.109 C 
BRANCH  19  20
ATOM     20  C   UNL     1      -6.375   0.472  -2.578  0.00  0.00    +0.054 C 
BRANCH  20  24
ATOM     21  C   UNL     1      -2.373   1.966  -2.637  0.00  0.00    -0.048 A 
ATOM     22  C   UNL     1      -2.603   0.603  -2.659  0.00  0.00    +0.004 A 
ATOM     23  C   UNL     1      -3.897   0.120  -2.640  0.00  0.00    +0.004 A 
ATOM     24  C   UNL     1      -4.963   0.999  -2.598  0.00  0.00    -0.046 A 
ATOM     25  C   UNL     1      -4.734   2.362  -2.575  0.00  0.00    +0.004 A 
ATOM     26  C   UNL     1      -3.439   2.846  -2.589  0.00  0.00    +0.004 A 
BRANCH  21  28
ATOM     27  C   UNL     1      -0.449   2.636  -1.223  0.00  0.00    +0.009 C 
ATOM     28  C   UNL     1      -0.961   2.493  -2.658  0.00  0.00    +0.032 C 
ENDBRANCH  21  28
ENDBRANCH  20  24
ENDBRANCH  19  20
ENDBRANCH  15  19
ENDBRANCH   1  16
BRANCH  11  29
ATOM     29  C   UNL     1     -11.560  -0.075   4.558  0.00  0.00    +0.256 C 
ATOM     30  C   UNL     1     -13.007  -0.566   4.643  0.00  0.00    +0.062 C 
BRANCH  29  31
ATOM     31  O   UNL     1     -10.982  -0.069   5.865  0.00  0.00    -0.480 OA
BRANCH  31  32
ATOM     32  C   UNL     1     -11.200   1.031   6.631  0.00  0.00    +0.122 A 
ATOM     33  C   UNL     1     -10.568   1.159   7.860  0.00  0.00    +0.045 A 
ATOM     34  C   UNL     1     -10.791   2.279   8.637  0.00  0.00    +0.004 A 
ATOM     35  C   UNL     1     -11.644   3.272   8.191  0.00  0.00    +0.000 A 
ATOM     36  C   UNL     1     -12.275   3.147   6.968  0.00  0.00    +0.004 A 
ATOM     37  C   UNL     1     -12.051   2.032   6.184  0.00  0.00    +0.045 A 
ENDBRANCH  31  32
ENDBRANCH  29  31
ENDBRANCH  11  29
TORSDOF 8
