REMARK  Name = ZINC34762648
REMARK  11 active torsions:
REMARK  status: ('A' for Active; 'I' for Inactive)
REMARK    1  A    between atoms: C_1  and  C_2
REMARK    2  A    between atoms: C_2  and  C_3
REMARK    3  A    between atoms: C_3  and  C_4
REMARK    4  A    between atoms: C_4  and  N_5
REMARK    5  A    between atoms: C_13  and  C_32
REMARK    6  A    between atoms: C_14  and  C_31
REMARK    7  A    between atoms: C_18  and  S_20
REMARK    8  A    between atoms: S_20  and  C_21
REMARK    9  A    between atoms: C_21  and  C_22
REMARK   10  A    between atoms: N_24  and  C_25
REMARK   11  A    between atoms: C_32  and  C_33
REMARK                            x       y       z     vdW  Elec       q    Type
REMARK                         _______ _______ _______ _____ _____    ______ ____
ROOT
ATOM      1  N   UNL     1       1.854  -1.591  -3.378  0.00  0.00    +0.382 N 
ATOM      2  C   UNL     1       2.354  -1.839  -4.737  0.00  0.00    -0.060 C 
ATOM      3  C   UNL     1       2.480  -3.349  -4.966  0.00  0.00    +0.088 C 
ATOM      4  N   UNL     1       3.320  -3.914  -3.897  0.00  0.00    -0.318 N 
ATOM      5  C   UNL     1       2.986  -3.580  -2.504  0.00  0.00    +0.088 C 
ATOM      6  C   UNL     1       2.835  -2.060  -2.391  0.00  0.00    -0.060 C 
ATOM      7  C   UNL     1       4.392  -4.735  -4.195  0.00  0.00    +0.134 A 
ATOM      8  C   UNL     1       4.205  -6.139  -4.332  0.00  0.00    +0.051 A 
ATOM      9  C   UNL     1       2.992  -6.930  -4.207  0.00  0.00    -0.025 A 
ATOM     10  C   UNL     1       3.055  -8.258  -4.382  0.00  0.00    -0.007 A 
ATOM     11  S   UNL     1       4.779  -8.550  -4.734  0.00  0.00    -0.073 S 
ATOM     12  C   UNL     1       5.367  -6.880  -4.636  0.00  0.00    +0.115 A 
ATOM     13  N   UNL     1       6.540  -6.294  -4.779  0.00  0.00    -0.214 NA
ATOM     14  C   UNL     1       6.654  -4.981  -4.639  0.00  0.00    +0.191 A 
ATOM     15  N   UNL     1       5.599  -4.224  -4.359  0.00  0.00    -0.206 NA
ATOM     16  C   UNL     1       1.936  -9.264  -4.300  0.00  0.00    +0.052 C 
ATOM     17  H   UNL     1       0.984  -2.086  -3.247  0.00  0.00    -0.082 HD
ENDROOT
BRANCH   9  18
ATOM     18  C   UNL     1       1.679  -6.266  -3.885  0.00  0.00    +0.033 C 
ATOM     19  C   UNL     1       0.908  -6.003  -5.180  0.00  0.00    +0.009 C 
ENDBRANCH   9  18
BRANCH   1  20
ATOM     20  C   UNL     1       1.628  -0.151  -3.197  0.00  0.00    -0.079 C 
BRANCH  20  21
ATOM     21  C   UNL     1       0.517   0.314  -4.140  0.00  0.00    -0.019 C 
BRANCH  21  23
ATOM     22  C   UNL     1      -0.830   2.279  -4.893  0.00  0.00    +0.004 C 
ATOM     23  C   UNL     1       0.282   1.814  -3.950  0.00  0.00    -0.005 C 
ENDBRANCH  21  23
ENDBRANCH  20  21
ENDBRANCH   1  20
BRANCH  14  24
ATOM     24  S   UNL     1       8.234  -4.224  -4.835  0.00  0.00    -0.077 S 
BRANCH  24  25
ATOM     25  C   UNL     1       9.341  -5.612  -5.208  0.00  0.00    +0.173 C 
BRANCH  25  26
ATOM     26  C   UNL     1      10.744  -5.096  -5.402  0.00  0.00    +0.224 C 
ATOM     27  O   UNL     1      10.974  -3.910  -5.298  0.00  0.00    -0.275 OA
ATOM     28  N   UNL     1      11.743  -5.954  -5.690  0.00  0.00    -0.312 N 
ATOM     29  H   UNL     1      11.559  -6.902  -5.773  0.00  0.00    +0.149 HD
BRANCH  28  30
ATOM     30  C   UNL     1      13.107  -5.452  -5.879  0.00  0.00    +0.073 C 
ATOM     31  C   UNL     1      13.285  -4.989  -7.326  0.00  0.00    +0.022 C 
ATOM     32  C   UNL     1      14.709  -4.465  -7.522  0.00  0.00    +0.002 C 
ATOM     33  C   UNL     1      15.709  -5.582  -7.218  0.00  0.00    +0.000 C 
ATOM     34  C   UNL     1      15.531  -6.046  -5.771  0.00  0.00    +0.002 C 
ATOM     35  C   UNL     1      14.107  -6.570  -5.575  0.00  0.00    +0.022 C 
ENDBRANCH  28  30
ENDBRANCH  25  26
ENDBRANCH  24  25
ENDBRANCH  14  24
TORSDOF 8
