REMARK  Name = ZINC01077403
REMARK  11 active torsions:
REMARK  status: ('A' for Active; 'I' for Inactive)
REMARK    1  A    between atoms: C_1  and  C_2
REMARK    2  A    between atoms: C_2  and  O_3
REMARK    3  A    between atoms: O_3  and  C_4
REMARK    4  A    between atoms: C_8  and  C_10
REMARK    5  A    between atoms: C_15  and  C_20
REMARK    6  A    between atoms: C_22  and  O_30
REMARK    7  A    between atoms: C_23  and  O_28
REMARK    8  A    between atoms: C_24  and  O_26
REMARK    9  A    between atoms: O_26  and  C_27
REMARK   10  A    between atoms: O_28  and  C_29
REMARK   11  A    between atoms: O_30  and  C_31
REMARK                            x       y       z     vdW  Elec       q    Type
REMARK                         _______ _______ _______ _____ _____    ______ ____
ROOT
ATOM      1  C   UNL     1       0.408   5.729  -0.631  0.00  0.00    +0.136 C 
ATOM      2  C   UNL     1       0.243   4.229  -0.701  0.00  0.00    +0.036 C 
ATOM      3  C   UNL     1      -0.785   3.575  -1.268  0.00  0.00    +0.017 C 
ATOM      4  C   UNL     1      -0.823   2.056  -1.272  0.00  0.00    +0.059 C 
ATOM      5  C   UNL     1      -0.152   1.515  -0.011  0.00  0.00    +0.032 C 
ATOM      6  C   UNL     1       1.299   2.011  -0.006  0.00  0.00    +0.088 C 
ATOM      7  C   UNL     1       1.293   3.508  -0.085  0.00  0.00    +0.163 C 
ATOM      8  O   UNL     1       2.223   4.124   0.397  0.00  0.00    -0.292 OA
ATOM      9  N   UNL     1      -1.840   4.173  -1.879  0.00  0.00    -0.316 N 
ATOM     10  C   UNL     1      -2.557   5.244  -1.360  0.00  0.00    +0.052 A 
ATOM     11  C   UNL     1      -3.890   5.140  -1.004  0.00  0.00    +0.025 A 
ATOM     12  C   UNL     1      -4.558   6.260  -0.537  0.00  0.00    +0.002 A 
ATOM     13  C   UNL     1      -3.899   7.471  -0.432  0.00  0.00    +0.002 A 
ATOM     14  C   UNL     1      -2.561   7.573  -0.771  0.00  0.00    +0.025 A 
ATOM     15  C   UNL     1      -1.885   6.449  -1.217  0.00  0.00    +0.049 A 
ATOM     16  N   UNL     1      -0.513   6.474  -1.462  0.00  0.00    -0.331 N 
ATOM     17  H   UNL     1      -2.113   3.826  -2.742  0.00  0.00    +0.152 HD
ATOM     18  H   UNL     1      -0.170   7.000  -2.202  0.00  0.00    +0.147 HD
ENDROOT
BRANCH   1  23
ATOM     19  C   UNL     1       1.091   7.153   2.801  0.00  0.00    +0.121 A 
ATOM     20  C   UNL     1      -0.132   6.961   3.426  0.00  0.00    +0.045 A 
ATOM     21  C   UNL     1      -1.174   6.372   2.737  0.00  0.00    +0.004 A 
ATOM     22  C   UNL     1      -1.000   5.978   1.423  0.00  0.00    +0.006 A 
ATOM     23  C   UNL     1       0.220   6.164   0.799  0.00  0.00    -0.019 A 
ATOM     24  C   UNL     1       1.265   6.753   1.484  0.00  0.00    +0.051 A 
BRANCH  19  25
ATOM     25  O   UNL     1       2.118   7.733   3.477  0.00  0.00    -0.492 OA
BRANCH  25  27
ATOM     26  C   UNL     1       3.129   8.751   5.422  0.00  0.00    +0.048 C 
ATOM     27  C   UNL     1       1.867   8.121   4.830  0.00  0.00    +0.225 C 
ENDBRANCH  25  27
ENDBRANCH  19  25
ENDBRANCH   1  23
BRANCH   5  28
ATOM     28  C   UNL     1      -0.177   0.009  -0.025  0.00  0.00    -0.036 A 
ATOM     29  C   UNL     1       0.406  -0.681  -1.073  0.00  0.00    +0.053 A 
ATOM     30  C   UNL     1       0.390  -2.067  -1.087  0.00  0.00    +0.165 A 
ATOM     31  C   UNL     1      -0.223  -2.764  -0.052  0.00  0.00    +0.204 A 
ATOM     32  C   UNL     1      -0.813  -2.067   0.996  0.00  0.00    +0.165 A 
ATOM     33  C   UNL     1      -0.787  -0.681   1.006  0.00  0.00    +0.053 A 
BRANCH  32  34
ATOM     34  O   UNL     1      -1.413  -2.744   2.011  0.00  0.00    -0.491 OA
ATOM     35  C   UNL     1      -1.998  -1.963   3.055  0.00  0.00    +0.277 C 
ENDBRANCH  32  34
BRANCH  31  36
ATOM     36  O   UNL     1      -0.246  -4.124  -0.065  0.00  0.00    -0.488 OA
ATOM     37  C   UNL     1      -1.359  -4.749  -0.707  0.00  0.00    +0.277 C 
ENDBRANCH  31  36
BRANCH  30  38
ATOM     38  O   UNL     1       0.968  -2.744  -2.115  0.00  0.00    -0.491 OA
ATOM     39  C   UNL     1       1.579  -1.964  -3.143  0.00  0.00    +0.277 C 
ENDBRANCH  30  38
ENDBRANCH   5  28
TORSDOF 7
