REMARK  Name = ZINC67451707
REMARK  10 active torsions:
REMARK  status: ('A' for Active; 'I' for Inactive)
REMARK    1  A    between atoms: C_1  and  C_2
REMARK    2  A    between atoms: C_4  and  N_24
REMARK    3  A    between atoms: C_7  and  N_8
REMARK    4  A    between atoms: C_9  and  C_11
REMARK    5  A    between atoms: C_11  and  N_12
REMARK    6  A    between atoms: N_12  and  C_13
REMARK    7  A    between atoms: C_17  and  C_19
REMARK    8  A    between atoms: C_19  and  C_21
REMARK    9  A    between atoms: C_19  and  S_22
REMARK   10  A    between atoms: S_22  and  C_23
REMARK                            x       y       z     vdW  Elec       q    Type
REMARK                         _______ _______ _______ _____ _____    ______ ____
ROOT
ATOM      1  N   UNL     1       0.025  -0.015   2.417  0.00  0.00    -0.284 N 
ATOM      2  C   UNL     1      -0.057  -0.694   3.578  0.00  0.00    +0.234 C 
ATOM      3  O   UNL     1      -0.040  -1.907   3.573  0.00  0.00    -0.274 OA
ATOM      4  H   UNL     1       0.077   0.954   2.425  0.00  0.00    +0.155 HD
ENDROOT
BRANCH   1  11
ATOM      5  C   UNL     1      -1.265   1.183   0.181  0.00  0.00    +0.046 C 
ATOM      6  C   UNL     1      -0.584  -0.158   0.084  0.00  0.00    -0.027 A 
ATOM      7  C   UNL     1      -0.569  -0.841  -1.117  0.00  0.00    +0.038 A 
ATOM      8  C   UNL     1       0.056  -2.071  -1.206  0.00  0.00    +0.127 A 
ATOM      9  C   UNL     1       0.667  -2.622  -0.095  0.00  0.00    +0.034 A 
ATOM     10  C   UNL     1       0.656  -1.944   1.109  0.00  0.00    +0.026 A 
ATOM     11  C   UNL     1       0.034  -0.706   1.201  0.00  0.00    +0.036 A 
BRANCH   8  12
ATOM     12  N   UNL     1       0.070  -2.800  -2.494  0.00  0.00    +0.056 N 
ATOM     13  O   UNL     1      -0.465  -2.320  -3.466  0.00  0.00    -0.126 OA
ATOM     14  O   UNL     1       0.615  -3.876  -2.574  0.00  0.00    -0.126 OA
ENDBRANCH   8  12
ENDBRANCH   1  11
BRANCH   2  15
ATOM     15  C   UNL     1      -0.169   0.052   4.882  0.00  0.00    +0.198 C 
BRANCH  15  16
ATOM     16  N   UNL     1      -0.242  -0.905   5.988  0.00  0.00    -0.335 N 
ATOM     17  H   UNL     1      -0.215  -1.858   5.808  0.00  0.00    +0.147 HD
BRANCH  16  18
ATOM     18  C   UNL     1      -0.351  -0.447   7.303  0.00  0.00    +0.028 A 
ATOM     19  C   UNL     1      -0.396   0.918   7.563  0.00  0.00    +0.023 A 
ATOM     20  C   UNL     1      -0.504   1.368   8.864  0.00  0.00    +0.002 A 
ATOM     21  C   UNL     1      -0.567   0.462   9.908  0.00  0.00    +0.005 A 
ATOM     22  C   UNL     1      -0.523  -0.896   9.652  0.00  0.00    -0.033 A 
ATOM     23  C   UNL     1      -0.421  -1.353   8.353  0.00  0.00    +0.027 A 
BRANCH  22  24
ATOM     24  C   UNL     1      -0.591  -1.878  10.793  0.00  0.00    +0.073 C 
ATOM     25  C   UNL     1      -1.905  -1.687  11.553  0.00  0.00    +0.024 C 
BRANCH  24  26
ATOM     26  S   UNL     1       0.804  -1.597  11.918  0.00  0.00    -0.156 S 
ATOM     27  C   UNL     1       0.665  -2.937  13.133  0.00  0.00    +0.085 C 
ENDBRANCH  24  26
ENDBRANCH  22  24
ENDBRANCH  16  18
ENDBRANCH  15  16
ENDBRANCH   2  15
TORSDOF 7
