REMARK  Name = ZINC00930916
REMARK  9 active torsions:
REMARK  status: ('A' for Active; 'I' for Inactive)
REMARK    1  A    between atoms: C_1  and  C_2
REMARK    2  A    between atoms: N_4  and  C_5
REMARK    3  A    between atoms: C_8  and  N_11
REMARK    4  A    between atoms: N_11  and  C_12
REMARK    5  A    between atoms: C_12  and  C_14
REMARK    6  A    between atoms: C_12  and  C_21
REMARK    7  A    between atoms: C_17  and  O_20
REMARK    8  A    between atoms: N_23  and  C_24
REMARK    9  A    between atoms: C_30  and  C_32
REMARK                            x       y       z     vdW  Elec       q    Type
REMARK                         _______ _______ _______ _____ _____    ______ ____
ROOT
ATOM      1  N   UNL     1       1.453   3.603   0.067  0.00  0.00    -0.252 N 
ATOM      2  C   UNL     1       0.373   4.101   0.701  0.00  0.00    +0.265 C 
ATOM      3  O   UNL     1      -0.386   3.356   1.283  0.00  0.00    -0.271 OA
ENDROOT
BRANCH   2   4
ATOM      4  C   UNL     1       0.110   5.585   0.687  0.00  0.00    +0.296 C 
ATOM      5  C   UNL     1       1.123   6.299   1.591  0.00  0.00    +0.283 C 
ATOM      6  O   UNL     1       0.836   7.702   1.565  0.00  0.00    -0.484 OA
ATOM      7  C   UNL     1      -0.468   8.062   1.712  0.00  0.00    +0.162 A 
ATOM      8  C   UNL     1      -0.779   9.370   2.053  0.00  0.00    +0.049 A 
ATOM      9  C   UNL     1      -2.099   9.752   2.201  0.00  0.00    +0.004 A 
ATOM     10  C   UNL     1      -3.113   8.831   2.011  0.00  0.00    +0.004 A 
ATOM     11  C   UNL     1      -2.810   7.526   1.672  0.00  0.00    +0.049 A 
ATOM     12  C   UNL     1      -1.487   7.136   1.522  0.00  0.00    +0.163 A 
ATOM     13  O   UNL     1      -1.204   5.847   1.191  0.00  0.00    -0.472 OA
ENDBRANCH   2   4
BRANCH   1  17
ATOM     14  C   UNL     1       2.352  -0.459   0.360  0.00  0.00    +0.033 A 
ATOM     15  C   UNL     1       3.167   0.479   0.981  0.00  0.00    +0.025 A 
ATOM     16  C   UNL     1       2.869   1.824   0.884  0.00  0.00    +0.025 A 
ATOM     17  C   UNL     1       1.755   2.238   0.165  0.00  0.00    +0.038 A 
ATOM     18  C   UNL     1       0.941   1.300  -0.455  0.00  0.00    +0.025 A 
ATOM     19  C   UNL     1       1.238  -0.044  -0.358  0.00  0.00    +0.025 A 
BRANCH  14  23
ATOM     20  C   UNL     1       3.675  -3.748   1.630  0.00  0.00    +0.109 C 
ATOM     21  C   UNL     1       3.249  -2.303   1.568  0.00  0.00    +0.214 C 
ATOM     22  O   UNL     1       3.443  -1.573   2.517  0.00  0.00    -0.276 OA
ATOM     23  N   UNL     1       2.654  -1.823   0.458  0.00  0.00    -0.286 N 
ATOM     24  H   UNL     1       2.436  -2.422  -0.273  0.00  0.00    +0.155 HD
ENDBRANCH  14  23
ENDBRANCH   1  17
BRANCH   1  25
ATOM     25  C   UNL     1       2.311   4.487  -0.725  0.00  0.00    +0.197 C 
BRANCH  25  26
ATOM     26  C   UNL     1       3.529   3.728  -1.183  0.00  0.00    -0.018 A 
ATOM     27  C   UNL     1       3.384   2.606  -1.978  0.00  0.00    +0.009 A 
ATOM     28  C   UNL     1       4.499   1.911  -2.404  0.00  0.00    +0.046 A 
ATOM     29  C   UNL     1       5.765   2.333  -2.025  0.00  0.00    +0.117 A 
ATOM     30  C   UNL     1       5.908   3.456  -1.223  0.00  0.00    +0.046 A 
ATOM     31  C   UNL     1       4.790   4.151  -0.804  0.00  0.00    +0.009 A 
BRANCH  29  32
ATOM     32  O   UNL     1       6.864   1.649  -2.439  0.00  0.00    -0.507 OA
ATOM     33  H   UNL     1       7.136   0.941  -1.838  0.00  0.00    +0.292 HD
ENDBRANCH  29  32
ENDBRANCH  25  26
BRANCH  25  34
ATOM     34  C   UNL     1       1.548   4.985  -1.926  0.00  0.00    +0.239 C 
ATOM     35  O   UNL     1       0.400   4.634  -2.102  0.00  0.00    -0.273 OA
ATOM     36  N   UNL     1       2.140   5.819  -2.803  0.00  0.00    -0.311 N 
ATOM     37  H   UNL     1       3.058   6.099  -2.662  0.00  0.00    +0.149 HD
BRANCH  36  38
ATOM     38  C   UNL     1       1.398   6.302  -3.970  0.00  0.00    +0.073 C 
ATOM     39  C   UNL     1       1.501   5.276  -5.100  0.00  0.00    +0.022 C 
ATOM     40  C   UNL     1       0.726   5.780  -6.319  0.00  0.00    +0.002 C 
ATOM     41  C   UNL     1       1.318   7.112  -6.784  0.00  0.00    +0.000 C 
ATOM     42  C   UNL     1       1.216   8.138  -5.654  0.00  0.00    +0.002 C 
ATOM     43  C   UNL     1       1.990   7.634  -4.435  0.00  0.00    +0.022 C 
ENDBRANCH  36  38
ENDBRANCH  25  34
ENDBRANCH   1  25
TORSDOF 8
