REMARK  Name = ZINC11335338
REMARK  9 active torsions:
REMARK  status: ('A' for Active; 'I' for Inactive)
REMARK    1  A    between atoms: C_1  and  C_2
REMARK    2  A    between atoms: C_2  and  C_4
REMARK    3  A    between atoms: C_2  and  N_14
REMARK    4  A    between atoms: C_15  and  C_17
REMARK    5  A    between atoms: C_17  and  N_73
REMARK    6  A    between atoms: C_18  and  C_19
REMARK    7  A    between atoms: C_18  and  N_73
REMARK    8  A    between atoms: C_31  and  C_32
REMARK    9  A    between atoms: C_31  and  N_73
REMARK                            x       y       z     vdW  Elec       q    Type
REMARK                         _______ _______ _______ _____ _____    ______ ____
ROOT
ATOM      1  N   UNL     1      -4.771   1.572  -0.750  0.00  0.00    +0.392 N 
ATOM      2  H   UNL     1      -3.774   1.703  -0.958  0.00  0.00    -0.080 HD
ENDROOT
BRANCH   1   3
ATOM      3  C   UNL     1      -4.906   0.984   0.599  0.00  0.00    +0.019 C 
BRANCH   3   5
ATOM      4  N   UNL     1      -4.200   1.563   2.898  0.00  0.00    -0.314 N 
ATOM      5  C   UNL     1      -4.132   1.828   1.578  0.00  0.00    +0.197 C 
ATOM      6  O   UNL     1      -3.448   2.746   1.178  0.00  0.00    -0.278 OA
ATOM      7  H   UNL     1      -4.688   0.786   3.212  0.00  0.00    +0.149 HD
BRANCH   4   9
ATOM      8  C   UNL     1      -2.053   2.088   3.944  0.00  0.00    +0.028 C 
ATOM      9  C   UNL     1      -3.537   2.449   3.858  0.00  0.00    +0.076 C 
BRANCH   9  10
ATOM     10  C   UNL     1      -4.183   2.283   5.235  0.00  0.00    -0.010 C 
ATOM     11  C   UNL     1      -4.037   0.832   5.695  0.00  0.00    +0.012 C 
ATOM     12  C   UNL     1      -4.682   0.666   7.072  0.00  0.00    -0.010 C 
ATOM     13  C   UNL     1      -3.990   1.591   8.075  0.00  0.00    +0.007 C 
ATOM     14  C   UNL     1      -4.136   3.043   7.615  0.00  0.00    -0.010 C 
ATOM     15  C   UNL     1      -3.490   3.208   6.238  0.00  0.00    +0.012 C 
ATOM     16  C   UNL     1      -5.620   3.404   7.529  0.00  0.00    +0.007 C 
ATOM     17  C   UNL     1      -6.312   2.478   6.526  0.00  0.00    -0.010 C 
ATOM     18  C   UNL     1      -6.166   1.027   6.987  0.00  0.00    +0.007 C 
ATOM     19  C   UNL     1      -5.667   2.644   5.149  0.00  0.00    +0.012 C 
ENDBRANCH   9  10
ENDBRANCH   4   9
ENDBRANCH   3   5
ENDBRANCH   1   3
BRANCH   1  20
ATOM     20  C   UNL     1      -5.448   2.885  -0.799  0.00  0.00    -0.002 C 
BRANCH  20  21
ATOM     21  C   UNL     1      -5.110   3.558  -2.104  0.00  0.00    +0.094 A 
ATOM     22  N   UNL     1      -5.625   4.791  -2.346  0.00  0.00    -0.312 N 
ATOM     23  H   UNL     1      -6.194   5.212  -1.683  0.00  0.00    +0.170 HD
ATOM     24  C   UNL     1      -5.347   5.440  -3.501  0.00  0.00    +0.259 A 
ATOM     25  O   UNL     1      -5.798   6.547  -3.728  0.00  0.00    -0.267 OA
ATOM     26  C   UNL     1      -4.483   4.752  -4.473  0.00  0.00    +0.065 A 
ATOM     27  C   UNL     1      -4.141   5.330  -5.693  0.00  0.00    +0.015 A 
ATOM     28  C   UNL     1      -3.329   4.641  -6.567  0.00  0.00    +0.001 A 
ATOM     29  C   UNL     1      -2.851   3.379  -6.240  0.00  0.00    +0.002 A 
ATOM     30  C   UNL     1      -3.176   2.791  -5.039  0.00  0.00    +0.028 A 
ATOM     31  C   UNL     1      -3.998   3.469  -4.137  0.00  0.00    +0.078 A 
ATOM     32  N   UNL     1      -4.345   2.926  -2.943  0.00  0.00    -0.236 NA
ENDBRANCH  20  21
ENDBRANCH   1  20
BRANCH   1  33
ATOM     33  C   UNL     1      -5.356   0.663  -1.758  0.00  0.00    -0.046 C 
BRANCH  33  34
ATOM     34  C   UNL     1      -4.392  -0.503  -1.987  0.00  0.00    +0.102 C 
ATOM     35  C   UNL     1      -4.854  -1.334  -3.199  0.00  0.00    +0.032 C 
ATOM     36  C   UNL     1      -5.065  -2.757  -2.626  0.00  0.00    +0.030 C 
ATOM     37  C   UNL     1      -4.206  -2.718  -1.336  0.00  0.00    +0.160 C 
ATOM     38  O   UNL     1      -4.399  -1.374  -0.844  0.00  0.00    -0.378 OA
ENDBRANCH  33  34
ENDBRANCH   1  33
TORSDOF 8
