REMARK  Name = ZINC11637519
REMARK  11 active torsions:
REMARK  status: ('A' for Active; 'I' for Inactive)
REMARK    1  A    between atoms: C_1  and  C_2
REMARK    2  A    between atoms: C_2  and  O_3
REMARK    3  A    between atoms: O_3  and  C_4
REMARK    4  A    between atoms: C_4  and  C_6
REMARK    5  A    between atoms: C_10  and  N_11
REMARK    6  A    between atoms: C_12  and  C_14
REMARK    7  A    between atoms: C_14  and  C_15
REMARK    8  A    between atoms: C_15  and  O_16
REMARK    9  A    between atoms: O_16  and  C_17
REMARK   10  A    between atoms: C_19  and  C_24
REMARK   11  A    between atoms: C_21  and  C_23
REMARK                            x       y       z     vdW  Elec       q    Type
REMARK                         _______ _______ _______ _____ _____    ______ ____
ROOT
ATOM      1  N   UNL     1       5.885   6.384  -0.022  0.00  0.00    -0.279 N 
ATOM      2  C   UNL     1       4.764   5.636  -0.015  0.00  0.00    +0.221 C 
ATOM      3  O   UNL     1       3.677   6.173  -0.002  0.00  0.00    -0.275 OA
ATOM      4  H   UNL     1       6.755   5.955  -0.033  0.00  0.00    +0.155 HD
ENDROOT
BRANCH   1   9
ATOM      5  C   UNL     1       6.825   8.699  -0.014  0.00  0.00    +0.091 A 
ATOM      6  C   UNL     1       6.457  10.105  -0.010  0.00  0.00    -0.021 A 
ATOM      7  C   UNL     1       5.130  10.353   0.005  0.00  0.00    -0.004 A 
ATOM      8  S   UNL     1       4.371   8.754   0.005  0.00  0.00    -0.077 S 
ATOM      9  C   UNL     1       5.795   7.767  -0.015  0.00  0.00    +0.086 A 
ATOM     10  C   UNL     1       4.461  11.693   0.020  0.00  0.00    +0.043 C 
ATOM     11  C   UNL     1       5.508  12.752   0.393  0.00  0.00    +0.005 C 
ATOM     12  C   UNL     1       6.762  12.528  -0.457  0.00  0.00    +0.005 C 
ATOM     13  C   UNL     1       7.468  11.245  -0.015  0.00  0.00    +0.037 C 
BRANCH   5  14
ATOM     14  C   UNL     1       8.228   8.281  -0.022  0.00  0.00    +0.342 C 
ATOM     15  O   UNL     1       8.806   8.113  -1.079  0.00  0.00    -0.245 OA
BRANCH  14  16
ATOM     16  O   UNL     1       8.879   8.082   1.142  0.00  0.00    -0.461 OA
BRANCH  16  18
ATOM     17  C   UNL     1      10.835   7.493   2.468  0.00  0.00    +0.048 C 
ATOM     18  C   UNL     1      10.268   7.668   1.058  0.00  0.00    +0.229 C 
ENDBRANCH  16  18
ENDBRANCH  14  16
ENDBRANCH   5  14
ENDBRANCH   1   9
BRANCH   2  19
ATOM     19  C   UNL     1       4.862   4.132  -0.024  0.00  0.00    +0.137 C 
BRANCH  19  20
ATOM     20  C   UNL     1       3.456   3.530  -0.013  0.00  0.00    +0.238 C 
BRANCH  20  21
ATOM     21  O   UNL     1       3.548   2.104  -0.021  0.00  0.00    -0.491 OA
BRANCH  21  22
ATOM     22  C   UNL     1       2.380   1.409  -0.013  0.00  0.00    +0.121 A 
ATOM     23  C   UNL     1       1.169   2.087   0.002  0.00  0.00    +0.049 A 
ATOM     24  C   UNL     1      -0.017   1.378   0.010  0.00  0.00    -0.047 A 
ATOM     25  C   UNL     1       0.002  -0.004   0.002  0.00  0.00    +0.007 A 
ATOM     26  C   UNL     1       1.207  -0.681  -0.013  0.00  0.00    -0.047 A 
ATOM     27  C   UNL     1       2.396   0.022  -0.020  0.00  0.00    +0.049 A 
ATOM     28  C   UNL     1       1.224  -2.188  -0.020  0.00  0.00    +0.044 C 
ATOM     29  C   UNL     1      -1.332   2.114   0.020  0.00  0.00    +0.044 C 
ENDBRANCH  21  22
ENDBRANCH  20  21
ENDBRANCH  19  20
ENDBRANCH   2  19
TORSDOF 8
