REMARK  Name = ZINC63165696
REMARK  10 active torsions:
REMARK  status: ('A' for Active; 'I' for Inactive)
REMARK    1  A    between atoms: C_1  and  C_2
REMARK    2  A    between atoms: C_2  and  C_3
REMARK    3  A    between atoms: C_3  and  C_33
REMARK    4  A    between atoms: N_6  and  N_10
REMARK    5  A    between atoms: C_11  and  C_13
REMARK    6  A    between atoms: C_13  and  C_14
REMARK    7  A    between atoms: C_14  and  C_15
REMARK    8  A    between atoms: C_23  and  C_25
REMARK    9  A    between atoms: C_28  and  O_31
REMARK   10  A    between atoms: O_31  and  C_32
REMARK                            x       y       z     vdW  Elec       q    Type
REMARK                         _______ _______ _______ _____ _____    ______ ____
ROOT
ATOM      1  N   UNL     1      -4.184   1.436   1.387  0.00  0.00    -0.224 N 
ATOM      2  C   UNL     1      -4.133   2.781   1.464  0.00  0.00    +0.230 C 
ATOM      3  O   UNL     1      -3.256   3.389   0.888  0.00  0.00    -0.274 OA
ATOM      4  H   UNL     1      -4.886   0.950   1.847  0.00  0.00    +0.174 HD
ENDROOT
BRANCH   1   8
ATOM      5  C   UNL     1      -1.433  -0.534   0.013  0.00  0.00    +0.139 C 
ATOM      6  C   UNL     1      -2.205   0.042   1.184  0.00  0.00    +0.268 C 
ATOM      7  O   UNL     1      -1.958  -0.098   2.363  0.00  0.00    -0.271 OA
ATOM      8  N   UNL     1      -3.222   0.740   0.642  0.00  0.00    -0.137 N 
ATOM      9  C   UNL     1      -3.200   0.687  -0.695  0.00  0.00    +0.327 C 
ATOM     10  O   UNL     1      -4.016   1.240  -1.406  0.00  0.00    -0.251 OA
ATOM     11  N   UNL     1      -2.175  -0.046  -1.163  0.00  0.00    -0.280 N 
ATOM     12  H   UNL     1      -1.964  -0.220  -2.094  0.00  0.00    +0.152 HD
BRANCH   5  13
ATOM     13  C   UNL     1      -1.441  -2.040   0.057  0.00  0.00    -0.015 A 
ATOM     14  C   UNL     1      -0.412  -2.718   0.684  0.00  0.00    +0.006 A 
ATOM     15  C   UNL     1      -0.419  -4.100   0.725  0.00  0.00    +0.000 A 
ATOM     16  C   UNL     1      -1.454  -4.803   0.139  0.00  0.00    +0.000 A 
ATOM     17  C   UNL     1      -2.483  -4.125  -0.487  0.00  0.00    +0.000 A 
ATOM     18  C   UNL     1      -2.479  -2.744  -0.524  0.00  0.00    +0.006 A 
ENDBRANCH   5  13
BRANCH   5  20
ATOM     19  C   UNL     1      -0.019   1.526   0.010  0.00  0.00    +0.007 C 
ATOM     20  C   UNL     1       0.002  -0.004   0.002  0.00  0.00    +0.037 C 
ENDBRANCH   5  20
ENDBRANCH   1   8
BRANCH   2  21
ATOM     21  C   UNL     1      -5.168   3.529   2.264  0.00  0.00    +0.102 C 
BRANCH  21  22
ATOM     22  C   UNL     1      -4.884   5.030   2.188  0.00  0.00    +0.043 C 
BRANCH  22  23
ATOM     23  C   UNL     1      -5.918   5.779   2.989  0.00  0.00    -0.034 C 
ATOM     24  C   UNL     1      -6.948   5.247   3.686  0.00  0.00    -0.000 A 
ATOM     25  C   UNL     1      -7.396   3.865   3.898  0.00  0.00    +0.010 A 
ATOM     26  C   UNL     1      -8.489   3.640   4.664  0.00  0.00    +0.001 A 
ATOM     27  C   UNL     1      -9.201   4.691   5.258  0.00  0.00    +0.002 A 
ATOM     28  C   UNL     1      -8.851   5.986   5.108  0.00  0.00    +0.026 A 
ATOM     29  C   UNL     1      -7.718   6.338   4.324  0.00  0.00    +0.043 A 
ATOM     30  N   UNL     1      -7.184   7.500   4.033  0.00  0.00    -0.374 N 
ATOM     31  C   UNL     1      -6.011   7.276   3.181  0.00  0.00    +0.137 C 
ATOM     32  H   UNL     1      -7.509   8.363   4.334  0.00  0.00    +0.161 HD
BRANCH  31  33
ATOM     33  C   UNL     1      -4.768   7.791   3.858  0.00  0.00    -0.021 A 
ATOM     34  C   UNL     1      -4.623   7.662   5.227  0.00  0.00    +0.009 A 
ATOM     35  C   UNL     1      -3.485   8.134   5.850  0.00  0.00    +0.046 A 
ATOM     36  C   UNL     1      -2.485   8.737   5.101  0.00  0.00    +0.120 A 
ATOM     37  C   UNL     1      -2.631   8.865   3.728  0.00  0.00    +0.046 A 
ATOM     38  C   UNL     1      -3.770   8.386   3.109  0.00  0.00    +0.009 A 
BRANCH  36  39
ATOM     39  O   UNL     1      -1.363   9.202   5.712  0.00  0.00    -0.495 OA
ATOM     40  C   UNL     1      -0.376   9.812   4.879  0.00  0.00    +0.277 C 
ENDBRANCH  36  39
ENDBRANCH  31  33
ENDBRANCH  22  23
ENDBRANCH  21  22
ENDBRANCH   2  21
TORSDOF 8
