REMARK  Name = ZINC49094987
REMARK  8 active torsions:
REMARK  status: ('A' for Active; 'I' for Inactive)
REMARK    1  A    between atoms: C_1  and  C_2
REMARK    2  A    between atoms: C_2  and  C_3
REMARK    3  A    between atoms: C_3  and  C_5
REMARK    4  A    between atoms: C_3  and  C_6
REMARK    5  A    between atoms: C_6  and  C_8
REMARK    6  A    between atoms: C_6  and  N_9
REMARK    7  A    between atoms: C_10  and  C_14
REMARK    8  A    between atoms: C_16  and  N_22
REMARK                            x       y       z     vdW  Elec       q    Type
REMARK                         _______ _______ _______ _____ _____    ______ ____
ROOT
ATOM      1  N   UNL     1       1.442  -2.339  -2.545  0.00  0.00    -0.222 N 
ATOM      2  C   UNL     1       2.429  -3.267  -2.599  0.00  0.00    +0.182 A 
ATOM      3  N   UNL     1       2.575  -3.602  -3.864  0.00  0.00    -0.108 NA
ATOM      4  N   UNL     1       1.750  -2.950  -4.600  0.00  0.00    -0.023 NA
ATOM      5  N   UNL     1       1.024  -2.168  -3.877  0.00  0.00    -0.043 NA
ENDROOT
BRANCH   2   6
ATOM      6  C   UNL     1       3.198  -3.802  -1.453  0.00  0.00    +0.024 A 
ATOM      7  C   UNL     1       2.601  -3.900  -0.196  0.00  0.00    +0.036 A 
ATOM      8  C   UNL     1       3.326  -4.402   0.873  0.00  0.00    +0.045 A 
ATOM      9  C   UNL     1       4.644  -4.806   0.692  0.00  0.00    +0.080 A 
ATOM     10  C   UNL     1       5.236  -4.709  -0.556  0.00  0.00    +0.062 A 
ATOM     11  C   UNL     1       4.519  -4.215  -1.628  0.00  0.00    +0.033 A 
ATOM     12 CL   UNL     1       6.882  -5.215  -0.775  0.00  0.00    -0.082 Cl
ATOM     13 CL   UNL     1       5.550  -5.435   2.033  0.00  0.00    -0.080 Cl
BRANCH   8  14
ATOM     14  N   UNL     1       2.732  -4.501   2.135  0.00  0.00    -0.357 N 
ATOM     15  H   UNL     1       1.813  -4.218   2.261  0.00  0.00    +0.142 HD
ATOM     16  H   UNL     1       3.239  -4.852   2.883  0.00  0.00    +0.142 HD
ENDBRANCH   8  14
ENDBRANCH   2   6
BRANCH   1  17
ATOM     17  C   UNL     1       0.919  -1.665  -1.355  0.00  0.00    +0.111 C 
ATOM     18  C   UNL     1      -0.510  -2.140  -1.086  0.00  0.00    +0.033 C 
BRANCH  17  19
ATOM     19  C   UNL     1       0.919  -0.152  -1.584  0.00  0.00    +0.010 C 
ATOM     20  C   UNL     1       2.348   0.323  -1.853  0.00  0.00    +0.009 C 
BRANCH  19  22
ATOM     21  C   UNL     1       0.255   2.053  -0.615  0.00  0.00    +0.004 C 
ATOM     22  C   UNL     1       0.372   0.552  -0.341  0.00  0.00    +0.002 C 
ENDBRANCH  19  22
ENDBRANCH  17  19
ENDBRANCH   1  17
TORSDOF 5
