REMARK  Name = ZINC06195632
REMARK  10 active torsions:
REMARK  status: ('A' for Active; 'I' for Inactive)
REMARK    1  A    between atoms: C_1  and  C_2
REMARK    2  A    between atoms: C_5  and  C_41
REMARK    3  A    between atoms: C_6  and  N_8
REMARK    4  A    between atoms: C_13  and  C_15
REMARK    5  A    between atoms: C_13  and  C_29
REMARK    6  A    between atoms: C_13  and  N_76
REMARK    7  A    between atoms: C_18  and  C_28
REMARK    8  A    between atoms: C_20  and  C_27
REMARK    9  A    between atoms: N_33  and  C_34
REMARK   10  A    between atoms: C_34  and  C_35
REMARK                            x       y       z     vdW  Elec       q    Type
REMARK                         _______ _______ _______ _____ _____    ______ ____
ROOT
ATOM      1  C   UNL     1      -8.158   2.692   1.162  0.00  0.00    +0.039 C 
ENDROOT
BRANCH   1   2
ATOM      2  C   UNL     1      -8.854   1.446   0.678  0.00  0.00    +0.011 A 
ATOM      3  C   UNL     1      -9.621   1.492  -0.439  0.00  0.00    +0.018 A 
ATOM      4  C   UNL     1     -10.284   0.265  -0.883  0.00  0.00    +0.002 A 
ATOM      5  C   UNL     1     -11.088   0.250  -2.028  0.00  0.00    -0.041 A 
ATOM      6  C   UNL     1     -11.693  -0.912  -2.416  0.00  0.00    +0.007 A 
ATOM      7  C   UNL     1     -11.516  -2.079  -1.684  0.00  0.00    -0.048 A 
ATOM      8  C   UNL     1     -10.729  -2.087  -0.553  0.00  0.00    +0.029 A 
ATOM      9  C   UNL     1     -10.103  -0.916  -0.139  0.00  0.00    +0.050 A 
ATOM     10  N   UNL     1      -9.309  -0.896   0.988  0.00  0.00    -0.322 N 
ATOM     11  H   UNL     1      -9.186  -1.711   1.500  0.00  0.00    +0.169 HD
ATOM     12  C   UNL     1      -8.700   0.235   1.385  0.00  0.00    +0.251 A 
ATOM     13  O   UNL     1      -8.002   0.214   2.384  0.00  0.00    -0.268 OA
ATOM     14  C   UNL     1     -12.193  -3.349  -2.131  0.00  0.00    +0.044 C 
ATOM     15  C   UNL     1     -11.286   1.510  -2.830  0.00  0.00    +0.044 C 
ENDBRANCH   1   2
BRANCH   1  21
ATOM     16  N   UNL     1      -3.949   2.812   0.818  0.00  0.00    -0.333 N 
ATOM     17  C   UNL     1      -4.549   3.245   2.087  0.00  0.00    +0.086 C 
ATOM     18  C   UNL     1      -6.021   3.594   1.860  0.00  0.00    -0.058 C 
ATOM     19  C   UNL     1      -6.123   1.986   0.054  0.00  0.00    -0.058 C 
ATOM     20  C   UNL     1      -4.651   1.637   0.281  0.00  0.00    +0.086 C 
ATOM     21  N   UNL     1      -6.720   2.399   1.341  0.00  0.00    +0.391 N 
ATOM     22  H   UNL     1      -6.617   1.633   2.018  0.00  0.00    -0.080 HD
BRANCH  16  28
ATOM     23  C   UNL     1      -0.350   0.163   2.863  0.00  0.00    +0.044 C 
ATOM     24  C   UNL     1      -0.811   1.274   1.956  0.00  0.00    -0.049 A 
ATOM     25  C   UNL     1       0.117   2.040   1.275  0.00  0.00    +0.004 A 
ATOM     26  C   UNL     1      -0.302   3.062   0.442  0.00  0.00    +0.005 A 
ATOM     27  C   UNL     1      -1.650   3.320   0.288  0.00  0.00    -0.029 A 
ATOM     28  C   UNL     1      -2.585   2.553   0.971  0.00  0.00    +0.033 A 
ATOM     29  C   UNL     1      -2.161   1.524   1.803  0.00  0.00    +0.026 A 
ATOM     30  C   UNL     1      -2.106   4.433  -0.619  0.00  0.00    +0.045 C 
ENDBRANCH  16  28
ENDBRANCH   1  21
BRANCH   1  31
ATOM     31  C   UNL     1      -8.742   3.111   2.487  0.00  0.00    +0.143 A 
ATOM     32  N   UNL     1      -8.533   2.542   3.649  0.00  0.00    -0.115 NA
ATOM     33  N   UNL     1      -9.205   3.191   4.536  0.00  0.00    -0.023 NA
ATOM     34  N   UNL     1      -9.842   4.155   3.969  0.00  0.00    -0.044 NA
ATOM     35  N   UNL     1      -9.582   4.139   2.705  0.00  0.00    -0.228 N 
BRANCH  35  36
ATOM     36  C   UNL     1     -10.104   5.066   1.698  0.00  0.00    +0.178 C 
BRANCH  36  37
ATOM     37  C   UNL     1     -11.412   4.514   1.126  0.00  0.00    +0.140 C 
ATOM     38  C   UNL     1     -11.909   5.425  -0.017  0.00  0.00    +0.035 C 
ATOM     39  C   UNL     1     -13.444   5.439   0.217  0.00  0.00    +0.031 C 
ATOM     40  C   UNL     1     -13.506   5.366   1.764  0.00  0.00    +0.160 C 
ATOM     41  O   UNL     1     -12.421   4.505   2.142  0.00  0.00    -0.375 OA
ENDBRANCH  36  37
ENDBRANCH  35  36
ENDBRANCH   1  31
TORSDOF 6
