REMARK  Name = ZINC37770853
REMARK  5 active torsions:
REMARK  status: ('A' for Active; 'I' for Inactive)
REMARK    1  A    between atoms: C_1  and  C_2
REMARK    2  A    between atoms: C_5  and  C_8
REMARK    3  A    between atoms: C_8  and  C_10
REMARK    4  A    between atoms: C_8  and  N_11
REMARK    5  A    between atoms: N_11  and  C_12
REMARK                            x       y       z     vdW  Elec       q    Type
REMARK                         _______ _______ _______ _____ _____    ______ ____
ROOT
ATOM      1  N   UNL     1      -0.819  -4.782   1.042  0.00  0.00    +0.394 N 
ATOM      2  H   UNL     1      -0.447  -4.515   1.941  0.00  0.00    -0.083 HD
ATOM      3  H   UNL     1      -1.742  -4.391   0.930  0.00  0.00    -0.083 HD
ENDROOT
BRANCH   1   4
ATOM      4  C   UNL     1      -0.894  -6.247   0.958  0.00  0.00    +0.050 C 
ATOM      5  C   UNL     1      -1.731  -6.800   2.088  0.00  0.00    -0.030 A 
ATOM      6  C   UNL     1      -1.598  -6.760   3.458  0.00  0.00    +0.019 A 
ATOM      7  C   UNL     1      -2.546  -7.371   4.261  0.00  0.00    +0.018 A 
ATOM      8  C   UNL     1      -3.622  -8.020   3.683  0.00  0.00    +0.017 A 
ATOM      9  C   UNL     1      -3.757  -8.062   2.311  0.00  0.00    +0.024 A 
ATOM     10  C   UNL     1      -2.807  -7.448   1.496  0.00  0.00    +0.035 A 
ATOM     11  N   UNL     1      -2.723  -7.354   0.106  0.00  0.00    -0.286 N 
ATOM     12  C   UNL     1      -1.634  -6.669  -0.293  0.00  0.00    +0.208 C 
ATOM     13  O   UNL     1      -1.307  -6.434  -1.438  0.00  0.00    -0.277 OA
ATOM     14 BR   UNL     1      -2.368  -7.320   6.144  0.00  0.00    -0.050 Br
ATOM     15  H   UNL     1      -3.373  -7.738  -0.502  0.00  0.00    +0.155 HD
ENDBRANCH   1   4
BRANCH   1  16
ATOM     16  C   UNL     1       0.059  -4.275  -0.021  0.00  0.00    -0.043 C 
ATOM     17  C   UNL     1       1.488  -4.768   0.218  0.00  0.00    -0.009 C 
BRANCH  16  22
ATOM     18  C   UNL     1      -0.018   1.503   0.010  0.00  0.00    +0.044 C 
ATOM     19  C   UNL     1       0.002  -0.004   0.002  0.00  0.00    -0.050 A 
ATOM     20  C   UNL     1       0.006  -0.689  -1.199  0.00  0.00    +0.003 A 
ATOM     21  C   UNL     1       0.025  -2.071  -1.206  0.00  0.00    +0.002 A 
ATOM     22  C   UNL     1       0.040  -2.768  -0.013  0.00  0.00    -0.062 A 
ATOM     23  C   UNL     1       0.037  -2.084   1.188  0.00  0.00    +0.002 A 
ATOM     24  C   UNL     1       0.023  -0.702   1.195  0.00  0.00    +0.003 A 
ENDBRANCH  16  22
ENDBRANCH   1  16
TORSDOF 3
