REMARK  Name = ZINC28241821
REMARK  8 active torsions:
REMARK  status: ('A' for Active; 'I' for Inactive)
REMARK    1  A    between atoms: C_1  and  N_2
REMARK    2  A    between atoms: C_9  and  C_17
REMARK    3  A    between atoms: C_10  and  C_11
REMARK    4  A    between atoms: C_17  and  C_18
REMARK    5  A    between atoms: C_18  and  C_19
REMARK    6  A    between atoms: C_24  and  C_27
REMARK    7  A    between atoms: C_24  and  O_34
REMARK    8  A    between atoms: C_27  and  C_28
REMARK                            x       y       z     vdW  Elec       q    Type
REMARK                         _______ _______ _______ _____ _____    ______ ____
ROOT
ATOM      1  C   UNL     1       4.181  -5.567  -5.913  0.00  0.00    +0.047 C 
ENDROOT
BRANCH   1  10
ATOM      2  C   UNL     1       0.935  -6.526  -9.651  0.00  0.00    +0.149 C 
ATOM      3  N   UNL     1       1.578  -6.571  -8.336  0.00  0.00    -0.342 N 
ATOM      4  C   UNL     1       1.151  -7.334  -7.271  0.00  0.00    +0.050 A 
ATOM      5  C   UNL     1       0.090  -8.218  -7.097  0.00  0.00    +0.028 A 
ATOM      6  C   UNL     1      -0.084  -8.847  -5.884  0.00  0.00    +0.022 A 
ATOM      7  C   UNL     1       0.790  -8.610  -4.830  0.00  0.00    +0.042 A 
ATOM      8  C   UNL     1       1.838  -7.746  -4.978  0.00  0.00    +0.030 A 
ATOM      9  C   UNL     1       2.037  -7.100  -6.203  0.00  0.00    +0.005 A 
ATOM     10  C   UNL     1       3.022  -6.137  -6.690  0.00  0.00    -0.012 A 
ATOM     11  C   UNL     1       2.699  -5.858  -7.978  0.00  0.00    +0.072 A 
ATOM     12 CL   UNL     1       0.547  -9.416  -3.312  0.00  0.00    -0.084 Cl
BRANCH  11  13
ATOM     13  C   UNL     1       3.438  -4.931  -8.861  0.00  0.00    +0.088 A 
ATOM     14  C   UNL     1       3.377  -5.097 -10.245  0.00  0.00    +0.030 A 
ATOM     15  C   UNL     1       4.070  -4.218 -11.058  0.00  0.00    +0.004 A 
ATOM     16  C   UNL     1       4.811  -3.206 -10.461  0.00  0.00    +0.020 A 
ATOM     17  C   UNL     1       4.831  -3.103  -9.082  0.00  0.00    +0.111 A 
ATOM     18  N   UNL     1       4.159  -3.950  -8.330  0.00  0.00    -0.253 NA
ENDBRANCH  11  13
ENDBRANCH   1  10
BRANCH   1  19
ATOM     19  C   UNL     1       3.738  -4.286  -5.204  0.00  0.00    +0.101 C 
BRANCH  19  20
ATOM     20  C   UNL     1       4.897  -3.716  -4.427  0.00  0.00    +0.216 C 
ATOM     21  O   UNL     1       5.971  -4.280  -4.438  0.00  0.00    -0.276 OA
ATOM     22  N   UNL     1       4.740  -2.580  -3.719  0.00  0.00    -0.301 N 
ATOM     23  C   UNL     1       5.859  -2.013  -2.955  0.00  0.00    +0.110 C 
ATOM     24  C   UNL     1       5.412  -1.802  -1.506  0.00  0.00    +0.054 C 
ATOM     25  C   UNL     1       4.142  -0.948  -1.487  0.00  0.00    +0.073 C 
ATOM     26  C   UNL     1       3.024  -1.677  -2.236  0.00  0.00    +0.054 C 
ATOM     27  C   UNL     1       3.445  -1.886  -3.695  0.00  0.00    +0.110 C 
BRANCH  25  28
ATOM     28  O   UNL     1       4.402   0.305  -2.122  0.00  0.00    -0.388 OA
ATOM     29  H   UNL     1       3.602   1.056  -2.204  0.00  0.00    +0.210 HD
ENDBRANCH  25  28
BRANCH  25  30
ATOM     30  C   UNL     1       3.711  -0.707  -0.039  0.00  0.00    +0.070 C 
BRANCH  30  31
ATOM     31  C   UNL     1       2.396   0.029  -0.022  0.00  0.00    -0.045 A 
ATOM     32  C   UNL     1       1.208  -0.679  -0.014  0.00  0.00    +0.004 A 
ATOM     33  C   UNL     1       0.002  -0.004   0.002  0.00  0.00    +0.000 A 
ATOM     34  C   UNL     1      -0.017   1.378   0.010  0.00  0.00    +0.000 A 
ATOM     35  C   UNL     1       1.171   2.086   0.002  0.00  0.00    +0.000 A 
ATOM     36  C   UNL     1       2.377   1.411  -0.014  0.00  0.00    +0.004 A 
ENDBRANCH  30  31
ENDBRANCH  25  30
ENDBRANCH  19  20
ENDBRANCH   1  19
TORSDOF 7
