REMARK  Name = ZINC27100244
REMARK  14 active torsions:
REMARK  status: ('A' for Active; 'I' for Inactive)
REMARK    1  A    between atoms: C_1  and  C_2
REMARK    2  A    between atoms: C_2  and  C_3
REMARK    3  A    between atoms: C_3  and  C_5
REMARK    4  A    between atoms: C_3  and  N_6
REMARK    5  A    between atoms: N_9  and  C_12
REMARK    6  A    between atoms: C_12  and  C_13
REMARK    7  A    between atoms: C_14  and  O_37
REMARK    8  A    between atoms: C_20  and  C_36
REMARK    9  A    between atoms: C_21  and  O_24
REMARK   10  A    between atoms: O_24  and  C_25
REMARK   11  A    between atoms: C_28  and  C_31
REMARK   12  A    between atoms: C_31  and  O_33
REMARK   13  A    between atoms: O_33  and  C_34
REMARK   14  A    between atoms: C_34  and  C_35
REMARK                            x       y       z     vdW  Elec       q    Type
REMARK                         _______ _______ _______ _____ _____    ______ ____
ROOT
ATOM      1  C   UNL     1      -1.289   7.732   0.113  0.00  0.00    +0.051 A 
ATOM      2  C   UNL     1      -1.305   8.556   1.226  0.00  0.00    +0.125 A 
ATOM      3  C   UNL     1      -1.372   8.013   2.508  0.00  0.00    +0.046 A 
ATOM      4  C   UNL     1      -1.423   6.660   2.683  0.00  0.00    +0.019 A 
ATOM      5  C   UNL     1      -1.409   5.817   1.571  0.00  0.00    +0.068 A 
ATOM      6  C   UNL     1      -1.341   6.355   0.274  0.00  0.00    +0.147 A 
ATOM      7  O   UNL     1      -1.327   5.531  -0.793  0.00  0.00    -0.456 OA
ATOM      8  C   UNL     1      -1.376   4.198  -0.671  0.00  0.00    +0.148 A 
ATOM      9  C   UNL     1      -1.443   3.577   0.523  0.00  0.00    +0.213 A 
ATOM     10  C   UNL     1      -1.468   4.352   1.717  0.00  0.00    +0.235 A 
ATOM     11  O   UNL     1      -1.533   3.825   2.815  0.00  0.00    -0.283 OA
ATOM     12  C   UNL     1      -1.356   3.358  -1.922  0.00  0.00    +0.090 C 
ENDROOT
BRANCH   2  13
ATOM     13  O   UNL     1      -1.254   9.903   1.068  0.00  0.00    -0.506 OA
ATOM     14  H   UNL     1      -1.267  10.561   1.949  0.00  0.00    +0.292 HD
ENDBRANCH   2  13
BRANCH   1  15
ATOM     15  C   UNL     1      -1.217   8.330  -1.269  0.00  0.00    +0.126 C 
BRANCH  15  19
ATOM     16  N   UNL     1      -4.700   8.393  -3.659  0.00  0.00    +0.383 N 
ATOM     17  C   UNL     1      -3.984   9.660  -3.451  0.00  0.00    -0.063 C 
ATOM     18  C   UNL     1      -2.550   9.365  -3.006  0.00  0.00    +0.066 C 
ATOM     19  N   UNL     1      -2.577   8.570  -1.770  0.00  0.00    -0.301 NA
ATOM     20  C   UNL     1      -3.293   7.303  -1.978  0.00  0.00    +0.066 C 
ATOM     21  C   UNL     1      -4.727   7.598  -2.423  0.00  0.00    -0.063 C 
ATOM     22  H   UNL     1      -4.156   7.817  -4.422  0.00  0.00    -0.081 HD
BRANCH  16  23
ATOM     23  C   UNL     1      -6.060   8.633  -4.160  0.00  0.00    -0.072 C 
ATOM     24  C   UNL     1      -5.986   9.330  -5.521  0.00  0.00    -0.013 C 
BRANCH  23  26
ATOM     25  C   UNL     1      -8.231   7.552  -4.760  0.00  0.00    +0.002 C 
ATOM     26  C   UNL     1      -6.791   7.298  -4.311  0.00  0.00    -0.019 C 
ENDBRANCH  23  26
ENDBRANCH  16  23
ENDBRANCH  15  19
ENDBRANCH   1  15
BRANCH   9  27
ATOM     27  O   UNL     1      -1.491   2.218   0.587  0.00  0.00    -0.449 OA
BRANCH  27  28
ATOM     28  C   UNL     1      -0.317   1.542   0.662  0.00  0.00    +0.129 A 
ATOM     29  C   UNL     1       0.886   2.240   0.667  0.00  0.00    +0.047 A 
ATOM     30  C   UNL     1       2.079   1.557   0.738  0.00  0.00    +0.018 A 
ATOM     31  C   UNL     1       2.080   0.161   0.805  0.00  0.00    +0.059 A 
ATOM     32  C   UNL     1       0.869  -0.537   0.800  0.00  0.00    +0.018 A 
ATOM     33  C   UNL     1      -0.320   0.153   0.730  0.00  0.00    +0.047 A 
BRANCH  31  34
ATOM     34  C   UNL     1       3.356  -0.574   0.881  0.00  0.00    +0.339 C 
ATOM     35  O   UNL     1       3.356  -1.788   0.941  0.00  0.00    -0.245 OA
BRANCH  34  36
ATOM     36  O   UNL     1       4.523   0.100   0.886  0.00  0.00    -0.461 OA
BRANCH  36  37
ATOM     37  C   UNL     1       5.740  -0.689   0.963  0.00  0.00    +0.229 C 
ATOM     38  C   UNL     1       6.953   0.243   0.956  0.00  0.00    +0.048 C 
ENDBRANCH  36  37
ENDBRANCH  34  36
ENDBRANCH  31  34
ENDBRANCH  27  28
ENDBRANCH   9  27
TORSDOF 10
