REMARK  Name = ZINC00073537
REMARK  4 active torsions:
REMARK  status: ('A' for Active; 'I' for Inactive)
REMARK    1  A    between atoms: C_1  and  C_2
REMARK    2  A    between atoms: C_3  and  C_23
REMARK    3  A    between atoms: C_4  and  C_17
REMARK    4  A    between atoms: C_10  and  C_12
REMARK                            x       y       z     vdW  Elec       q    Type
REMARK                         _______ _______ _______ _____ _____    ______ ____
ROOT
ATOM      1  C   UNL     1       0.436   1.368  -0.013  0.00  0.00    +0.064 C 
ATOM      2  C   UNL     1       0.254  -0.128   0.016  0.00  0.00    +0.026 C 
ATOM      3  C   UNL     1      -1.013  -0.642   0.002  0.00  0.00    +0.059 C 
ATOM      4  C   UNL     1      -1.148  -2.154   0.032  0.00  0.00    +0.164 C 
ATOM      5  N   UNL     1       0.107  -2.914   0.072  0.00  0.00    -0.209 N 
ATOM      6  C   UNL     1       1.300  -2.229   0.081  0.00  0.00    +0.215 C 
ATOM      7  N   UNL     1       1.326  -0.903   0.048  0.00  0.00    -0.330 N 
ATOM      8  N   UNL     1       2.286  -3.135   0.119  0.00  0.00    -0.197 NA
ATOM      9  C   UNL     1       1.785  -4.359   0.136  0.00  0.00    +0.153 C 
ATOM     10  N   UNL     1       0.414  -4.277   0.107  0.00  0.00    -0.244 N 
ATOM     11  H   UNL     1       2.194  -0.470   0.052  0.00  0.00    +0.168 HD
ATOM     12  H   UNL     1      -0.215  -5.016   0.112  0.00  0.00    +0.172 HD
ENDROOT
BRANCH   4  13
ATOM     13  C   UNL     1      -1.959  -2.529   1.246  0.00  0.00    -0.018 A 
ATOM     14  C   UNL     1      -1.435  -2.387   2.521  0.00  0.00    +0.025 A 
ATOM     15  C   UNL     1      -2.207  -2.741   3.611  0.00  0.00    +0.111 A 
ATOM     16  N   UNL     1      -3.429  -3.211   3.447  0.00  0.00    -0.263 NA
ATOM     17  C   UNL     1      -3.960  -3.360   2.249  0.00  0.00    +0.111 A 
ATOM     18  C   UNL     1      -3.249  -3.020   1.113  0.00  0.00    +0.025 A 
ENDBRANCH   4  13
BRANCH   9  19
ATOM     19  C   UNL     1       2.563  -5.597   0.177  0.00  0.00    +0.053 A 
ATOM     20  C   UNL     1       3.941  -5.764   0.213  0.00  0.00    +0.019 A 
ATOM     21  C   UNL     1       4.383  -7.064   0.247  0.00  0.00    +0.008 A 
ATOM     22  C   UNL     1       3.473  -8.071   0.244  0.00  0.00    +0.046 A 
ATOM     23  S   UNL     1       1.989  -7.285   0.202  0.00  0.00    -0.094 S 
ENDBRANCH   9  19
BRANCH   3  24
ATOM     24  C   UNL     1      -2.143   0.194  -0.037  0.00  0.00    +0.241 C 
ATOM     25  O   UNL     1      -2.010   1.403   0.056  0.00  0.00    -0.271 OA
ATOM     26  N   UNL     1      -3.372  -0.340  -0.177  0.00  0.00    -0.325 N 
ATOM     27  H   UNL     1      -3.484  -1.303  -0.181  0.00  0.00    +0.145 HD
ATOM     28  H   UNL     1      -4.144   0.239  -0.273  0.00  0.00    +0.145 HD
ENDBRANCH   3  24
TORSDOF 3
