REMARK  Name = ZINC04160321
REMARK  7 active torsions:
REMARK  status: ('A' for Active; 'I' for Inactive)
REMARK    1  A    between atoms: C_1  and  C_2
REMARK    2  A    between atoms: C_7  and  C_15
REMARK    3  A    between atoms: C_13  and  C_14
REMARK    4  A    between atoms: C_15  and  C_17
REMARK    5  A    between atoms: C_15  and  N_63
REMARK    6  A    between atoms: N_21  and  C_22
REMARK    7  A    between atoms: C_30  and  C_33
REMARK                            x       y       z     vdW  Elec       q    Type
REMARK                         _______ _______ _______ _____ _____    ______ ____
ROOT
ATOM      1  C   UNL     1      -2.604   3.705   0.048  0.00  0.00    +0.039 C 
ENDROOT
BRANCH   1   8
ATOM      2  C   UNL     1       4.944   1.130  -0.060  0.00  0.00    +0.044 C 
ATOM      3  C   UNL     1       3.610   1.831  -0.035  0.00  0.00    -0.046 A 
ATOM      4  C   UNL     1       3.564   3.219  -0.001  0.00  0.00    +0.004 A 
ATOM      5  C   UNL     1       2.365   3.874   0.022  0.00  0.00    +0.010 A 
ATOM      6  C   UNL     1       1.174   3.141   0.012  0.00  0.00    -0.001 A 
ATOM      7  C   UNL     1      -0.128   3.810   0.036  0.00  0.00    +0.017 A 
ATOM      8  C   UNL     1      -1.249   3.048   0.024  0.00  0.00    +0.011 A 
ATOM      9  C   UNL     1      -1.151   1.640  -0.017  0.00  0.00    +0.251 A 
ATOM     10  O   UNL     1      -2.171   0.974  -0.033  0.00  0.00    -0.268 OA
ATOM     11  N   UNL     1       0.040   1.016  -0.034  0.00  0.00    -0.322 N 
ATOM     12  H   UNL     1       0.073   0.017  -0.054  0.00  0.00    +0.169 HD
ATOM     13  C   UNL     1       1.217   1.734  -0.023  0.00  0.00    +0.052 A 
ATOM     14  C   UNL     1       2.449   1.089  -0.046  0.00  0.00    -0.024 A 
ATOM     15  C   UNL     1       2.515  -0.416  -0.083  0.00  0.00    +0.046 C 
ENDBRANCH   1   8
BRANCH   1  22
ATOM     16  C   UNL     1      -4.710   3.807   1.238  0.00  0.00    -0.077 C 
ATOM     17  C   UNL     1      -5.557   3.116   2.309  0.00  0.00    -0.018 C 
ATOM     18  C   UNL     1      -4.839   3.208   3.659  0.00  0.00    -0.001 C 
ATOM     19  C   UNL     1      -3.454   2.568   3.536  0.00  0.00    -0.031 C 
ATOM     20  C   UNL     1      -2.667   3.276   2.429  0.00  0.00    -0.074 C 
ATOM     21  C   UNL     1      -2.707   2.709   4.864  0.00  0.00    +0.005 C 
ATOM     22  N   UNL     1      -3.398   3.130   1.153  0.00  0.00    +0.389 N 
ATOM     23  H   UNL     1      -3.550   2.131   0.969  0.00  0.00    -0.080 HD
ENDBRANCH   1  22
BRANCH   1  24
ATOM     24  C   UNL     1      -3.315   3.438  -1.254  0.00  0.00    +0.143 A 
ATOM     25  N   UNL     1      -3.938   2.336  -1.593  0.00  0.00    -0.115 NA
ATOM     26  N   UNL     1      -4.417   2.497  -2.778  0.00  0.00    -0.023 NA
ATOM     27  N   UNL     1      -4.108   3.671  -3.207  0.00  0.00    -0.044 NA
ATOM     28  N   UNL     1      -3.429   4.282  -2.296  0.00  0.00    -0.227 N 
BRANCH  28  29
ATOM     29  C   UNL     1      -2.884   5.639  -2.380  0.00  0.00    +0.111 C 
ATOM     30  C   UNL     1      -4.020   6.649  -2.643  0.00  0.00    +0.027 C 
ATOM     31  C   UNL     1      -3.387   7.691  -3.600  0.00  0.00    +0.002 C 
ATOM     32  C   UNL     1      -2.495   6.817  -4.516  0.00  0.00    +0.002 C 
ATOM     33  C   UNL     1      -1.915   5.746  -3.570  0.00  0.00    +0.027 C 
ENDBRANCH  28  29
ENDBRANCH   1  24
TORSDOF 4
