REMARK  Name = ZINC09597233
REMARK  3 active torsions:
REMARK  status: ('A' for Active; 'I' for Inactive)
REMARK    1  A    between atoms: C_4  and  O_29
REMARK    2  A    between atoms: C_5  and  C_7
REMARK    3  A    between atoms: C_20  and  C_22
REMARK                            x       y       z     vdW  Elec       q    Type
REMARK                         _______ _______ _______ _____ _____    ______ ____
ROOT
ATOM      1  C   UNL     1       3.294   0.711  -2.666  0.00  0.00    +0.072 C 
ATOM      2  N   UNL     1       2.771   1.705  -2.026  0.00  0.00    -0.184 NA
ATOM      3  N   UNL     1       2.138   1.334  -0.854  0.00  0.00    -0.205 N 
ATOM      4  C   UNL     1       2.446  -0.086  -0.569  0.00  0.00    +0.136 C 
ATOM      5  C   UNL     1       3.081  -0.587  -1.873  0.00  0.00    +0.086 C 
ATOM      6  C   UNL     1       1.127  -0.760  -0.291  0.00  0.00    +0.018 A 
ATOM      7  C   UNL     1       1.058  -2.140  -0.309  0.00  0.00    +0.024 A 
ATOM      8  C   UNL     1      -0.130  -2.784  -0.018  0.00  0.00    +0.018 A 
ATOM      9  C   UNL     1      -1.254  -2.038   0.293  0.00  0.00    +0.019 A 
ATOM     10  C   UNL     1      -1.191  -0.662   0.303  0.00  0.00    +0.047 A 
ATOM     11  C   UNL     1       0.002  -0.004   0.002  0.00  0.00    +0.129 A 
ATOM     12  O   UNL     1      -0.016   1.353   0.009  0.00  0.00    -0.465 OA
ATOM     13  C   UNL     1       1.213   2.089   0.002  0.00  0.00    +0.310 C 
ATOM     14 BR   UNL     1      -0.220  -4.672  -0.043  0.00  0.00    -0.050 Br
ENDROOT
BRANCH   1  19
ATOM     15  C   UNL     1       5.187  -0.242  -5.764  0.00  0.00    +0.001 A 
ATOM     16  C   UNL     1       5.331   0.987  -6.383  0.00  0.00    +0.004 A 
ATOM     17  C   UNL     1       4.815   2.129  -5.799  0.00  0.00    +0.046 A 
ATOM     18  C   UNL     1       4.149   2.049  -4.587  0.00  0.00    +0.126 A 
ATOM     19  C   UNL     1       4.001   0.807  -3.957  0.00  0.00    +0.039 A 
ATOM     20  C   UNL     1       4.531  -0.338  -4.554  0.00  0.00    +0.013 A 
BRANCH  18  21
ATOM     21  O   UNL     1       3.643   3.171  -4.012  0.00  0.00    -0.506 OA
ATOM     22  H   UNL     1       4.259   3.622  -3.419  0.00  0.00    +0.292 HD
ENDBRANCH  18  21
ENDBRANCH   1  19
BRANCH  13  23
ATOM     23  C   UNL     1       0.988   3.466  -0.568  0.00  0.00    +0.015 A 
ATOM     24  C   UNL     1       1.128   3.703  -1.927  0.00  0.00    +0.028 A 
ATOM     25  C   UNL     1       0.909   4.978  -2.413  0.00  0.00    +0.111 A 
ATOM     26  N   UNL     1       0.582   5.964  -1.600  0.00  0.00    -0.263 NA
ATOM     27  C   UNL     1       0.446   5.776  -0.302  0.00  0.00    +0.111 A 
ATOM     28  C   UNL     1       0.643   4.527   0.256  0.00  0.00    +0.028 A 
ENDBRANCH  13  23
TORSDOF 3
