REMARK  Name = ZINC36818834
REMARK  8 active torsions:
REMARK  status: ('A' for Active; 'I' for Inactive)
REMARK    1  A    between atoms: C_1  and  C_2
REMARK    2  A    between atoms: C_2  and  C_3
REMARK    3  A    between atoms: C_3  and  C_25
REMARK    4  A    between atoms: N_6  and  C_10
REMARK    5  A    between atoms: C_10  and  C_11
REMARK    6  A    between atoms: N_13  and  C_14
REMARK    7  A    between atoms: C_14  and  C_16
REMARK    8  A    between atoms: C_14  and  C_17
REMARK                            x       y       z     vdW  Elec       q    Type
REMARK                         _______ _______ _______ _____ _____    ______ ____
ROOT
ATOM      1  C   UNL     1      -0.510  -0.340  -0.884  0.00  0.00    +0.138 C 
ATOM      2  C   UNL     1      -0.983   0.277  -2.186  0.00  0.00    +0.251 C 
ATOM      3  O   UNL     1      -2.120   0.324  -2.603  0.00  0.00    -0.272 OA
ATOM      4  N   UNL     1       0.124   0.763  -2.781  0.00  0.00    -0.215 N 
ATOM      5  C   UNL     1       1.218   0.542  -2.045  0.00  0.00    +0.310 C 
ATOM      6  O   UNL     1       2.336   0.889  -2.374  0.00  0.00    -0.252 OA
ATOM      7  N   UNL     1       0.945  -0.108  -0.899  0.00  0.00    -0.281 N 
ATOM      8  H   UNL     1       1.581  -0.372  -0.216  0.00  0.00    +0.152 HD
ENDROOT
BRANCH   1   9
ATOM      9  C   UNL     1      -0.811  -1.817  -0.854  0.00  0.00    -0.015 A 
ATOM     10  C   UNL     1      -1.991  -2.270  -0.295  0.00  0.00    +0.009 A 
ATOM     11  C   UNL     1      -2.268  -3.623  -0.267  0.00  0.00    +0.039 A 
ATOM     12  C   UNL     1      -1.363  -4.526  -0.798  0.00  0.00    +0.123 A 
ATOM     13  C   UNL     1      -0.181  -4.071  -1.358  0.00  0.00    +0.039 A 
ATOM     14  C   UNL     1       0.091  -2.716  -1.390  0.00  0.00    +0.009 A 
ATOM     15  F   UNL     1      -1.633  -5.849  -0.771  0.00  0.00    -0.205 F 
ENDBRANCH   1   9
BRANCH   1  17
ATOM     16  C   UNL     1      -0.880   1.866   0.228  0.00  0.00    +0.007 C 
ATOM     17  C   UNL     1      -1.155   0.364   0.311  0.00  0.00    +0.037 C 
ENDBRANCH   1  17
BRANCH   4  18
ATOM     18  C   UNL     1       0.127   1.450  -4.076  0.00  0.00    +0.213 C 
BRANCH  18  19
ATOM     19  C   UNL     1      -0.064   2.929  -3.861  0.00  0.00    +0.231 C 
ATOM     20  O   UNL     1      -0.191   3.367  -2.737  0.00  0.00    -0.274 OA
ATOM     21  N   UNL     1      -0.094   3.765  -4.917  0.00  0.00    -0.307 N 
ATOM     22  H   UNL     1       0.008   3.415  -5.816  0.00  0.00    +0.149 HD
BRANCH  21  23
ATOM     23  C   UNL     1      -0.280   5.203  -4.708  0.00  0.00    +0.102 C 
ATOM     24  C   UNL     1       1.080   5.864  -4.473  0.00  0.00    +0.033 C 
BRANCH  23  25
ATOM     25  C   UNL     1      -0.928   5.808  -5.926  0.00  0.00    -0.009 A 
ATOM     26  C   UNL     1      -0.752   5.222  -7.166  0.00  0.00    +0.008 A 
ATOM     27  C   UNL     1      -1.347   5.777  -8.284  0.00  0.00    +0.020 A 
ATOM     28  C   UNL     1      -2.119   6.918  -8.162  0.00  0.00    +0.042 A 
ATOM     29  C   UNL     1      -2.296   7.505  -6.922  0.00  0.00    +0.040 A 
ATOM     30  C   UNL     1      -1.705   6.946  -5.803  0.00  0.00    +0.047 A 
ATOM     31 CL   UNL     1      -1.932   7.678  -4.245  0.00  0.00    -0.083 Cl
ATOM     32 CL   UNL     1      -2.865   7.615  -9.567  0.00  0.00    -0.083 Cl
ENDBRANCH  23  25
ENDBRANCH  21  23
ENDBRANCH  18  19
ENDBRANCH   4  18
TORSDOF 6
