REMARK  Name = ZINC08990946
REMARK  5 active torsions:
REMARK  status: ('A' for Active; 'I' for Inactive)
REMARK    1  A    between atoms: C_1  and  C_2
REMARK    2  A    between atoms: C_7  and  C_8
REMARK    3  A    between atoms: C_7  and  N_52
REMARK    4  A    between atoms: C_9  and  O_29
REMARK    5  A    between atoms: C_16  and  C_17
REMARK                            x       y       z     vdW  Elec       q    Type
REMARK                         _______ _______ _______ _____ _____    ______ ____
ROOT
ATOM      1  C   UNL     1       1.201   1.702  -4.875  0.00  0.00    +0.020 A 
ATOM      2  C   UNL     1       0.371   0.723  -5.396  0.00  0.00    +0.122 A 
ATOM      3  C   UNL     1      -0.462   1.003  -6.477  0.00  0.00    +0.046 A 
ATOM      4  C   UNL     1      -0.459   2.247  -7.041  0.00  0.00    +0.019 A 
ATOM      5  C   UNL     1       0.375   3.241  -6.529  0.00  0.00    +0.068 A 
ATOM      6  C   UNL     1       1.216   2.973  -5.437  0.00  0.00    +0.144 A 
ATOM      7  O   UNL     1       1.923   4.080  -5.124  0.00  0.00    -0.451 OA
ATOM      8  C   UNL     1       1.623   5.116  -5.942  0.00  0.00    +0.179 C 
ATOM      9  C   UNL     1       2.162   6.366  -5.888  0.00  0.00    +0.096 C 
ATOM     10  C   UNL     1       0.611   4.649  -6.898  0.00  0.00    +0.232 C 
ATOM     11  O   UNL     1       0.083   5.284  -7.796  0.00  0.00    -0.283 OA
ENDROOT
BRANCH   9  12
ATOM     12  C   UNL     1       3.134   6.676  -4.907  0.00  0.00    +0.133 A 
ATOM     13  C   UNL     1       3.743   7.886  -4.755  0.00  0.00    +0.058 A 
ATOM     14  C   UNL     1       4.639   7.761  -3.664  0.00  0.00    +0.022 A 
ATOM     15  C   UNL     1       5.528   8.641  -3.037  0.00  0.00    +0.027 A 
ATOM     16  C   UNL     1       6.275   8.209  -1.977  0.00  0.00    +0.019 A 
ATOM     17  C   UNL     1       6.158   6.904  -1.518  0.00  0.00    +0.019 A 
ATOM     18  C   UNL     1       5.288   6.021  -2.122  0.00  0.00    +0.048 A 
ATOM     19  C   UNL     1       4.518   6.438  -3.200  0.00  0.00    +0.136 A 
ATOM     20  O   UNL     1       3.599   5.819  -3.971  0.00  0.00    -0.455 OA
ATOM     21 BR   UNL     1       7.477   9.398  -1.129  0.00  0.00    -0.050 Br
ENDBRANCH   9  12
BRANCH   2  22
ATOM     22  O   UNL     1       0.365  -0.518  -4.846  0.00  0.00    -0.506 OA
ATOM     23  H   UNL     1      -0.278  -0.629  -4.133  0.00  0.00    +0.292 HD
ENDBRANCH   2  22
BRANCH   1  24
ATOM     24  C   UNL     1       2.093   1.387  -3.701  0.00  0.00    -0.036 C 
BRANCH  24  31
ATOM     25  C   UNL     1      -0.731   1.581   1.265  0.00  0.00    +0.007 C 
ATOM     26  C   UNL     1      -0.013   1.086   0.008  0.00  0.00    -0.018 C 
ATOM     27  C   UNL     1      -0.746   1.595  -1.236  0.00  0.00    -0.016 C 
ATOM     28  C   UNL     1       0.012   1.147  -2.488  0.00  0.00    -0.078 C 
ATOM     29  C   UNL     1       2.118   1.169  -1.290  0.00  0.00    -0.078 C 
ATOM     30  C   UNL     1       1.423   1.617  -0.003  0.00  0.00    -0.016 C 
ATOM     31  N   UNL     1       1.378   1.711  -2.449  0.00  0.00    +0.383 N 
ATOM     32  H   UNL     1       1.314   2.731  -2.356  0.00  0.00    -0.081 HD
ENDBRANCH  24  31
ENDBRANCH   1  24
TORSDOF 4
