REMARK  Name = ZINC61506496
REMARK  3 active torsions:
REMARK  status: ('A' for Active; 'I' for Inactive)
REMARK    1  A    between atoms: C_13  and  C_16
REMARK    2  A    between atoms: C_16  and  N_17
REMARK    3  A    between atoms: C_18  and  C_20
REMARK                            x       y       z     vdW  Elec       q    Type
REMARK                         _______ _______ _______ _____ _____    ______ ____
ROOT
ATOM      1  C   UNL     1      -0.017   1.362   0.009  0.00  0.00    +0.002 A 
ATOM      2  C   UNL     1       1.167   2.086   0.002  0.00  0.00    +0.002 A 
ATOM      3  C   UNL     1       2.384   1.436  -0.013  0.00  0.00    +0.028 A 
ATOM      4  C   UNL     1       2.422   0.049  -0.021  0.00  0.00    +0.075 A 
ATOM      5  C   UNL     1       1.223  -0.684  -0.013  0.00  0.00    +0.089 A 
ATOM      6  C   UNL     1       0.002  -0.004   0.002  0.00  0.00    +0.030 A 
ATOM      7  N   UNL     1       1.561  -1.999  -0.024  0.00  0.00    -0.235 NA
ATOM      8  C   UNL     1       2.857  -2.119  -0.037  0.00  0.00    +0.206 A 
ATOM      9  N   UNL     1       3.440  -0.886  -0.036  0.00  0.00    -0.283 N 
ATOM     10  C   UNL     1       4.811  -0.619  -0.048  0.00  0.00    +0.139 A 
ATOM     11  C   UNL     1       5.718  -1.672  -0.069  0.00  0.00    +0.047 A 
ATOM     12  C   UNL     1       7.073  -1.393  -0.081  0.00  0.00    +0.010 A 
ATOM     13  C   UNL     1       7.476  -0.064  -0.072  0.00  0.00    -0.012 A 
ATOM     14  C   UNL     1       6.519   0.932  -0.051  0.00  0.00    +0.118 A 
ATOM     15  N   UNL     1       5.234   0.635  -0.046  0.00  0.00    -0.237 NA
ENDROOT
BRANCH  13  16
ATOM     16  C   UNL     1       8.941   0.288  -0.084  0.00  0.00    +0.141 C 
BRANCH  16  17
ATOM     17  N   UNL     1       9.401   0.415  -1.469  0.00  0.00    -0.307 N 
ATOM     18  C   UNL     1      10.687   0.727  -1.725  0.00  0.00    +0.246 C 
ATOM     19  O   UNL     1      11.466   0.902  -0.807  0.00  0.00    -0.270 OA
ATOM     20  H   UNL     1       8.781   0.276  -2.201  0.00  0.00    +0.149 HD
BRANCH  18  21
ATOM     21  C   UNL     1      11.149   0.855  -3.114  0.00  0.00    +0.063 A 
ATOM     22  C   UNL     1      10.400   0.696  -4.242  0.00  0.00    +0.098 A 
ATOM     23  N   UNL     1      11.174   0.893  -5.338  0.00  0.00    -0.345 N 
ATOM     24  H   UNL     1      10.860   0.833  -6.254  0.00  0.00    +0.167 HD
ATOM     25  C   UNL     1      12.467   1.191  -4.970  0.00  0.00    +0.139 A 
ATOM     26  C   UNL     1      12.512   1.188  -3.565  0.00  0.00    +0.031 A 
ATOM     27  C   UNL     1      13.711   1.467  -2.914  0.00  0.00    +0.014 A 
ATOM     28  C   UNL     1      14.823   1.744  -3.689  0.00  0.00    +0.020 A 
ATOM     29  C   UNL     1      14.708   1.734  -5.070  0.00  0.00    +0.113 A 
ATOM     30  N   UNL     1      13.565   1.458  -5.663  0.00  0.00    -0.237 NA
ENDBRANCH  18  21
ENDBRANCH  16  17
ENDBRANCH  13  16
TORSDOF 3
