REMARK  Name = ZINC02501778
REMARK  10 active torsions:
REMARK  status: ('A' for Active; 'I' for Inactive)
REMARK    1  A    between atoms: C_1  and  C_2
REMARK    2  A    between atoms: C_5  and  N_32
REMARK    3  A    between atoms: C_7  and  N_8
REMARK    4  A    between atoms: C_11  and  C_18
REMARK    5  A    between atoms: C_13  and  C_16
REMARK    6  A    between atoms: C_14  and  N_15
REMARK    7  A    between atoms: C_20  and  C_24
REMARK    8  A    between atoms: C_22  and  C_23
REMARK    9  A    between atoms: C_28  and  C_30
REMARK   10  A    between atoms: C_28  and  C_31
REMARK                            x       y       z     vdW  Elec       q    Type
REMARK                         _______ _______ _______ _____ _____    ______ ____
ROOT
ATOM      1  N   UNL     1      -2.083  -1.765  -0.261  0.00  0.00    -0.260 N 
ATOM      2  C   UNL     1      -2.318  -1.267   0.994  0.00  0.00    +0.025 C 
ATOM      3  C   UNL     1      -2.540   0.051   1.180  0.00  0.00    +0.025 C 
ATOM      4  C   UNL     1      -2.521   1.012   0.018  0.00  0.00    +0.098 C 
ATOM      5  C   UNL     1      -2.674   0.288  -1.287  0.00  0.00    +0.077 C 
ATOM      6  C   UNL     1      -2.450  -1.048  -1.378  0.00  0.00    +0.107 C 
ATOM      7  C   UNL     1      -2.797   0.569   2.462  0.00  0.00    +0.162 C 
ATOM      8  O   UNL     1      -2.985   1.761   2.597  0.00  0.00    -0.292 OA
ATOM      9  C   UNL     1      -2.842  -0.327   3.670  0.00  0.00    +0.086 C 
ATOM     10  C   UNL     1      -3.281  -1.729   3.236  0.00  0.00    -0.023 C 
ATOM     11  C   UNL     1      -2.317  -2.227   2.158  0.00  0.00    +0.058 C 
ATOM     12  C   UNL     1      -4.701  -1.670   2.668  0.00  0.00    +0.011 C 
ATOM     13  C   UNL     1      -3.247  -2.678   4.435  0.00  0.00    +0.011 C 
ENDROOT
BRANCH   1  20
ATOM     14  C   UNL     1      -3.741  -4.052  -0.608  0.00  0.00    +0.045 C 
ATOM     15  C   UNL     1      -2.238  -4.154  -0.581  0.00  0.00    -0.029 A 
ATOM     16  C   UNL     1      -1.626  -5.384  -0.727  0.00  0.00    +0.007 A 
ATOM     17  C   UNL     1      -0.247  -5.479  -0.703  0.00  0.00    +0.033 A 
ATOM     18  C   UNL     1       0.524  -4.344  -0.532  0.00  0.00    +0.128 A 
ATOM     19  C   UNL     1      -0.081  -3.111  -0.390  0.00  0.00    +0.056 A 
ATOM     20  C   UNL     1      -1.467  -3.013  -0.409  0.00  0.00    +0.045 A 
BRANCH  18  21
ATOM     21  N   UNL     1       2.000  -4.450  -0.507  0.00  0.00    +0.056 N 
ATOM     22  O   UNL     1       2.535  -5.536  -0.637  0.00  0.00    -0.126 OA
ATOM     23  O   UNL     1       2.680  -3.450  -0.356  0.00  0.00    -0.126 OA
ENDBRANCH  18  21
ENDBRANCH   1  20
BRANCH   4  24
ATOM     24  C   UNL     1      -1.213   1.761   0.018  0.00  0.00    -0.025 A 
ATOM     25  C   UNL     1      -0.013   1.076   0.010  0.00  0.00    +0.015 A 
ATOM     26  C   UNL     1       1.146   1.779   0.003  0.00  0.00    -0.013 A 
ATOM     27  S   UNL     1       0.555   3.464   0.017  0.00  0.00    -0.098 S 
ATOM     28  C   UNL     1      -1.196   3.116   0.031  0.00  0.00    -0.009 A 
ATOM     29  C   UNL     1      -2.355   4.080   0.045  0.00  0.00    +0.052 C 
ATOM     30  C   UNL     1       2.565   1.271  -0.011  0.00  0.00    +0.051 C 
ENDBRANCH   4  24
BRANCH   6  31
ATOM     31  N   UNL     1      -2.589  -1.685  -2.587  0.00  0.00    -0.345 N 
ATOM     32  H   UNL     1      -2.430  -2.640  -2.654  0.00  0.00    +0.144 HD
ATOM     33  H   UNL     1      -2.847  -1.181  -3.375  0.00  0.00    +0.144 HD
ENDBRANCH   6  31
BRANCH   5  34
ATOM     34  C   UNL     1      -3.062   1.019  -2.455  0.00  0.00    +0.099 C 
ATOM     35  N   UNL     1      -3.371   1.598  -3.383  0.00  0.00    -0.191 NA
ENDBRANCH   5  34
TORSDOF 5
