REMARK  Name = ZINC56062470
REMARK  8 active torsions:
REMARK  status: ('A' for Active; 'I' for Inactive)
REMARK    1  A    between atoms: C_1  and  C_2
REMARK    2  A    between atoms: C_5  and  S_9
REMARK    3  A    between atoms: C_7  and  C_8
REMARK    4  A    between atoms: S_9  and  N_12
REMARK    5  A    between atoms: N_12  and  C_13
REMARK    6  A    between atoms: C_13  and  C_14
REMARK    7  A    between atoms: C_22  and  C_29
REMARK    8  A    between atoms: C_25  and  C_28
REMARK                            x       y       z     vdW  Elec       q    Type
REMARK                         _______ _______ _______ _____ _____    ______ ____
ROOT
ATOM      1  C   UNL     1       3.768  -5.528   1.029  0.00  0.00    -0.016 A 
ATOM      2  C   UNL     1       3.810  -6.796   1.594  0.00  0.00    +0.009 A 
ATOM      3  C   UNL     1       4.981  -7.524   1.494  0.00  0.00    +0.042 A 
ATOM      4  C   UNL     1       6.072  -6.965   0.835  0.00  0.00    +0.099 A 
ATOM      5  N   UNL     1       5.992  -5.752   0.310  0.00  0.00    -0.349 N 
ATOM      6  C   UNL     1       4.885  -5.037   0.385  0.00  0.00    +0.089 A 
ATOM      7  N   UNL     1       7.255  -7.685   0.728  0.00  0.00    -0.312 N 
ATOM      8  C   UNL     1       7.419  -8.980   1.408  0.00  0.00    +0.137 C 
ATOM      9  C   UNL     1       8.732  -8.949   2.197  0.00  0.00    +0.133 C 
ATOM     10  O   UNL     1       9.795  -8.550   1.327  0.00  0.00    -0.371 OA
ATOM     11  C   UNL     1       9.649  -7.233   0.791  0.00  0.00    +0.133 C 
ATOM     12  C   UNL     1       8.380  -7.179  -0.075  0.00  0.00    +0.137 C 
ATOM     13  C   UNL     1      10.869  -6.894  -0.069  0.00  0.00    +0.039 C 
ATOM     14  C   UNL     1       9.025 -10.342   2.757  0.00  0.00    +0.039 C 
ATOM     15  H   UNL     1       6.765  -5.381  -0.144  0.00  0.00    +0.167 HD
ENDROOT
BRANCH   1  16
ATOM     16  C   UNL     1       2.512  -4.698   1.114  0.00  0.00    +0.142 C 
BRANCH  16  17
ATOM     17  N   UNL     1       1.662  -4.979  -0.046  0.00  0.00    -0.186 NA
ATOM     18  H   UNL     1       2.030  -5.441  -0.816  0.00  0.00    +0.148 HD
BRANCH  17  19
ATOM     19  S   UNL     1       0.075  -4.507  -0.042  0.00  0.00    +0.059 S 
ATOM     20  O   UNL     1      -0.477  -4.947   1.191  0.00  0.00    -0.153 OA
ATOM     21  O   UNL     1      -0.466  -4.893  -1.299  0.00  0.00    -0.153 OA
BRANCH  19  26
ATOM     22  C   UNL     1       0.002   1.524   0.088  0.00  0.00    +0.044 C 
ATOM     23  C   UNL     1       0.020   0.018   0.055  0.00  0.00    -0.047 A 
ATOM     24  C   UNL     1       0.035  -0.647  -1.157  0.00  0.00    +0.005 A 
ATOM     25  C   UNL     1       0.052  -2.029  -1.187  0.00  0.00    +0.029 A 
ATOM     26  C   UNL     1       0.054  -2.746  -0.004  0.00  0.00    +0.106 A 
ATOM     27  C   UNL     1       0.041  -2.081   1.207  0.00  0.00    +0.032 A 
ATOM     28  C   UNL     1       0.028  -0.699   1.237  0.00  0.00    -0.046 A 
ATOM     29  C   UNL     1       0.019   0.026   2.558  0.00  0.00    +0.044 C 
ENDBRANCH  19  26
ENDBRANCH  17  19
ENDBRANCH  16  17
ENDBRANCH   1  16
TORSDOF 4
