REMARK  Name = ZINC21917877
REMARK  12 active torsions:
REMARK  status: ('A' for Active; 'I' for Inactive)
REMARK    1  A    between atoms: C_1  and  C_2
REMARK    2  A    between atoms: C_2  and  N_3
REMARK    3  A    between atoms: N_3  and  C_4
REMARK    4  A    between atoms: N_3  and  C_6
REMARK    5  A    between atoms: C_4  and  C_5
REMARK    6  A    between atoms: C_6  and  C_8
REMARK    7  A    between atoms: C_6  and  C_29
REMARK    8  A    between atoms: C_8  and  N_9
REMARK    9  A    between atoms: C_10  and  C_12
REMARK   10  A    between atoms: N_15  and  S_18
REMARK   11  A    between atoms: S_18  and  C_21
REMARK   12  A    between atoms: C_26  and  C_27
REMARK                            x       y       z     vdW  Elec       q    Type
REMARK                         _______ _______ _______ _____ _____    ______ ____
ROOT
ATOM      1  N   UNL     1       3.606   3.191   2.651  0.00  0.00    -0.316 N 
ATOM      2  C   UNL     1       2.615   2.723   3.436  0.00  0.00    +0.216 C 
ATOM      3  O   UNL     1       1.462   3.006   3.189  0.00  0.00    -0.276 OA
ATOM      4  H   UNL     1       4.652   2.934   2.875  0.00  0.00    +0.149 HD
ENDROOT
BRANCH   2   5
ATOM      5  C   UNL     1       2.939   1.849   4.619  0.00  0.00    +0.077 C 
ATOM      6  C   UNL     1       1.644   1.458   5.335  0.00  0.00    +0.030 C 
ATOM      7  C   UNL     1       1.980   0.598   6.557  0.00  0.00    +0.110 C 
ATOM      8  N   UNL     1       2.796  -0.543   6.122  0.00  0.00    -0.177 NA
ATOM      9  C   UNL     1       4.018  -0.283   5.347  0.00  0.00    +0.110 C 
ATOM     10  C   UNL     1       3.659   0.587   4.138  0.00  0.00    +0.030 C 
BRANCH   8  11
ATOM     11  S   UNL     1       2.349  -2.093   6.498  0.00  0.00    +0.062 S 
ATOM     12  O   UNL     1       3.533  -2.877   6.462  0.00  0.00    -0.153 OA
ATOM     13  O   UNL     1       1.526  -2.009   7.653  0.00  0.00    -0.153 OA
BRANCH  11  14
ATOM     14  C   UNL     1       1.322  -2.670   5.188  0.00  0.00    +0.123 A 
ATOM     15  C   UNL     1       1.742  -3.713   4.388  0.00  0.00    +0.030 A 
ATOM     16  C   UNL     1       0.934  -4.171   3.362  0.00  0.00    +0.002 A 
ATOM     17  C   UNL     1      -0.294  -3.580   3.124  0.00  0.00    +0.001 A 
ATOM     18  C   UNL     1      -0.724  -2.533   3.912  0.00  0.00    +0.021 A 
ATOM     19  C   UNL     1       0.084  -2.069   4.953  0.00  0.00    +0.078 A 
BRANCH  19  20
ATOM     20  C   UNL     1      -0.356  -0.982   5.775  0.00  0.00    +0.101 C 
ATOM     21  N   UNL     1      -0.705  -0.120   6.427  0.00  0.00    -0.191 NA
ENDBRANCH  19  20
ENDBRANCH  11  14
ENDBRANCH   8  11
ENDBRANCH   2   5
BRANCH   1  22
ATOM     22  C   UNL     1       3.291   4.041   1.501  0.00  0.00    +0.093 C 
BRANCH  22  23
ATOM     23  C   UNL     1       4.586   4.431   0.785  0.00  0.00    -0.020 C 
BRANCH  23  24
ATOM     24  C   UNL     1       4.282   5.450  -0.283  0.00  0.00    -0.059 A 
ATOM     25  C   UNL     1       3.872   6.721   0.070  0.00  0.00    +0.002 A 
ATOM     26  C   UNL     1       3.597   7.657  -0.910  0.00  0.00    +0.000 A 
ATOM     27  C   UNL     1       3.723   7.317  -2.244  0.00  0.00    +0.000 A 
ATOM     28  C   UNL     1       4.129   6.044  -2.598  0.00  0.00    +0.000 A 
ATOM     29  C   UNL     1       4.407   5.110  -1.618  0.00  0.00    +0.002 A 
ENDBRANCH  23  24
BRANCH  23  30
ATOM     30  N   UNL     1       5.527   5.006   1.755  0.00  0.00    +0.385 N 
ATOM     31  H   UNL     1       5.542   4.353   2.640  0.00  0.00    -0.081 HD
BRANCH  30  33
ATOM     32  C   UNL     1       7.403   3.624   1.000  0.00  0.00    -0.017 C 
ATOM     33  C   UNL     1       6.889   5.051   1.205  0.00  0.00    -0.081 C 
ENDBRANCH  30  33
BRANCH  30  34
ATOM     34  C   UNL     1       5.090   6.340   2.187  0.00  0.00    -0.081 C 
ATOM     35  C   UNL     1       3.747   6.227   2.911  0.00  0.00    -0.017 C 
ENDBRANCH  30  34
ENDBRANCH  23  30
ENDBRANCH  22  23
ENDBRANCH   1  22
TORSDOF 10
