REMARK  Name = ZINC13723905
REMARK  12 active torsions:
REMARK  status: ('A' for Active; 'I' for Inactive)
REMARK    1  A    between atoms: C_1  and  N_2
REMARK    2  A    between atoms: C_6  and  C_13
REMARK    3  A    between atoms: N_9  and  C_12
REMARK    4  A    between atoms: C_13  and  C_15
REMARK    5  A    between atoms: C_13  and  O_32
REMARK    6  A    between atoms: C_15  and  O_16
REMARK    7  A    between atoms: O_16  and  C_17
REMARK    8  A    between atoms: C_20  and  C_23
REMARK    9  A    between atoms: C_23  and  N_64
REMARK   10  A    between atoms: C_24  and  C_25
REMARK   11  A    between atoms: C_24  and  N_64
REMARK   12  A    between atoms: C_25  and  C_26
REMARK                            x       y       z     vdW  Elec       q    Type
REMARK                         _______ _______ _______ _____ _____    ______ ____
ROOT
ATOM      1  C   UNL     1      -4.634  -0.443   2.680  0.00  0.00    +0.121 A 
ATOM      2  C   UNL     1      -3.881  -0.235   3.827  0.00  0.00    +0.046 A 
ATOM      3  C   UNL     1      -4.370  -0.639   5.054  0.00  0.00    +0.005 A 
ATOM      4  C   UNL     1      -5.602  -1.260   5.139  0.00  0.00    -0.064 A 
ATOM      5  C   UNL     1      -6.352  -1.473   3.997  0.00  0.00    +0.005 A 
ATOM      6  C   UNL     1      -5.870  -1.066   2.768  0.00  0.00    +0.046 A 
ENDROOT
BRANCH   1   7
ATOM      7  O   UNL     1      -4.159  -0.042   1.472  0.00  0.00    -0.489 OA
BRANCH   7   8
ATOM      8  C   UNL     1      -2.878   0.593   1.457  0.00  0.00    +0.265 C 
BRANCH   8   9
ATOM      9  C   UNL     1      -2.513   0.971   0.020  0.00  0.00    +0.182 C 
BRANCH   9  15
ATOM     10  C   UNL     1       3.599   3.880  -0.013  0.00  0.00    +0.154 C 
ATOM     11  N   UNL     1       2.156   4.136   0.002  0.00  0.00    -0.295 N 
ATOM     12  C   UNL     1       1.157   3.166   0.008  0.00  0.00    +0.070 A 
ATOM     13  C   UNL     1       1.176   1.780   0.000  0.00  0.00    +0.028 A 
ATOM     14  C   UNL     1      -0.013   1.076   0.008  0.00  0.00    +0.008 A 
ATOM     15  C   UNL     1      -1.222   1.749   0.017  0.00  0.00    -0.014 A 
ATOM     16  C   UNL     1      -1.251   3.129   0.031  0.00  0.00    +0.034 A 
ATOM     17  C   UNL     1      -0.064   3.845   0.022  0.00  0.00    +0.070 A 
ATOM     18  N   UNL     1       0.233   5.206   0.026  0.00  0.00    -0.295 N 
ATOM     19  C   UNL     1       1.571   5.348   0.013  0.00  0.00    +0.330 A 
ATOM     20  O   UNL     1       2.163   6.412   0.012  0.00  0.00    -0.246 OA
ATOM     21  C   UNL     1      -0.746   6.296   0.040  0.00  0.00    +0.154 C 
ENDBRANCH   9  15
BRANCH   9  22
ATOM     22  O   UNL     1      -2.356  -0.216  -0.760  0.00  0.00    -0.384 OA
ATOM     23  H   UNL     1      -1.664  -0.810  -0.437  0.00  0.00    +0.210 HD
ENDBRANCH   9  22
ENDBRANCH   8   9
ENDBRANCH   7   8
ENDBRANCH   1   7
BRANCH   4  24
ATOM     24  C   UNL     1      -6.129  -1.705   6.479  0.00  0.00    -0.047 C 
BRANCH  24  25
ATOM     25  N   UNL     1      -5.686  -3.088   6.738  0.00  0.00    +0.382 N 
ATOM     26  H   UNL     1      -4.659  -3.119   6.739  0.00  0.00    -0.085 HD
ATOM     27  H   UNL     1      -6.046  -3.703   6.000  0.00  0.00    -0.085 HD
BRANCH  25  28
ATOM     28  C   UNL     1      -6.188  -3.550   8.046  0.00  0.00    -0.078 C 
BRANCH  28  29
ATOM     29  C   UNL     1      -5.713  -4.985   8.286  0.00  0.00    +0.011 C 
BRANCH  29  30
ATOM     30  C   UNL     1      -6.223  -5.465   9.621  0.00  0.00    -0.075 C 
ATOM     31  C   UNL     1      -7.325  -6.143   9.641  0.00  0.00    -0.028 C 
ATOM     32  C   UNL     1      -7.960  -6.678  10.891  0.00  0.00    +0.027 C 
ATOM     33  C   UNL     1      -6.944  -6.689  12.035  0.00  0.00    +0.004 C 
ATOM     34  C   UNL     1      -6.273  -5.311  12.100  0.00  0.00    +0.005 C 
ATOM     35  C   UNL     1      -5.417  -5.133  10.842  0.00  0.00    +0.030 C 
ENDBRANCH  29  30
ENDBRANCH  28  29
ENDBRANCH  25  28
ENDBRANCH  24  25
ENDBRANCH   4  24
TORSDOF 10
