REMARK  Name = ZINC67296951
REMARK  8 active torsions:
REMARK  status: ('A' for Active; 'I' for Inactive)
REMARK    1  A    between atoms: C_1  and  C_2
REMARK    2  A    between atoms: C_2  and  O_3
REMARK    3  A    between atoms: O_3  and  C_4
REMARK    4  A    between atoms: C_4  and  C_6
REMARK    5  A    between atoms: C_10  and  N_12
REMARK    6  A    between atoms: C_14  and  C_23
REMARK    7  A    between atoms: N_25  and  C_26
REMARK    8  A    between atoms: C_31  and  C_32
REMARK                            x       y       z     vdW  Elec       q    Type
REMARK                         _______ _______ _______ _____ _____    ______ ____
ROOT
ATOM      1  N   UNL     1       1.705  -6.096  -3.661  0.00  0.00    -0.325 N 
ATOM      2  C   UNL     1       1.819  -6.216  -4.966  0.00  0.00    +0.212 A 
ATOM      3  C   UNL     1       2.460  -7.403  -5.567  0.00  0.00    +0.098 A 
ATOM      4  C   UNL     1       2.066  -7.751  -6.853  0.00  0.00    +0.030 A 
ATOM      5  C   UNL     1       1.052  -6.912  -7.496  0.00  0.00    +0.018 A 
ATOM      6  C   UNL     1       0.409  -7.334  -8.666  0.00  0.00    +0.011 A 
ATOM      7  C   UNL     1      -0.535  -6.535  -9.246  0.00  0.00    +0.001 A 
ATOM      8  C   UNL     1      -0.863  -5.309  -8.685  0.00  0.00    +0.004 A 
ATOM      9  C   UNL     1      -0.240  -4.874  -7.532  0.00  0.00    +0.047 A 
ATOM     10  C   UNL     1       0.724  -5.667  -6.927  0.00  0.00    +0.137 A 
ATOM     11  O   UNL     1       1.346  -5.256  -5.800  0.00  0.00    -0.439 OA
ATOM     12  H   UNL     1       1.940  -6.840  -3.083  0.00  0.00    +0.169 HD
ENDROOT
BRANCH   1  17
ATOM     13  C   UNL     1      -0.154  -3.745  -1.557  0.00  0.00    +0.061 A 
ATOM     14  C   UNL     1       0.352  -2.531  -2.029  0.00  0.00    +0.015 A 
ATOM     15  C   UNL     1       1.298  -2.518  -3.034  0.00  0.00    +0.003 A 
ATOM     16  C   UNL     1       1.752  -3.702  -3.581  0.00  0.00    +0.026 A 
ATOM     17  C   UNL     1       1.255  -4.924  -3.118  0.00  0.00    +0.043 A 
ATOM     18  C   UNL     1       0.303  -4.945  -2.099  0.00  0.00    +0.040 A 
BRANCH  13  19
ATOM     19  C   UNL     1      -1.167  -3.757  -0.481  0.00  0.00    +0.339 C 
ATOM     20  O   UNL     1      -1.603  -4.814  -0.069  0.00  0.00    -0.245 OA
BRANCH  19  21
ATOM     21  O   UNL     1      -1.608  -2.597   0.042  0.00  0.00    -0.461 OA
BRANCH  21  23
ATOM     22  C   UNL     1      -2.963  -1.275   1.544  0.00  0.00    +0.048 C 
ATOM     23  C   UNL     1      -2.588  -2.683   1.078  0.00  0.00    +0.229 C 
ENDBRANCH  21  23
ENDBRANCH  19  21
ENDBRANCH  13  19
ENDBRANCH   1  17
BRANCH   3  24
ATOM     24  C   UNL     1       3.473  -8.183  -4.836  0.00  0.00    +0.253 C 
ATOM     25  O   UNL     1       3.910  -9.211  -5.315  0.00  0.00    -0.270 OA
ATOM     26  N   UNL     1       3.914  -7.757  -3.636  0.00  0.00    -0.281 N 
ATOM     27  H   UNL     1       3.529  -6.963  -3.231  0.00  0.00    +0.155 HD
BRANCH  26  28
ATOM     28  C   UNL     1       4.926  -8.459  -2.974  0.00  0.00    +0.037 A 
ATOM     29  C   UNL     1       5.179  -9.786  -3.298  0.00  0.00    +0.023 A 
ATOM     30  C   UNL     1       6.180 -10.476  -2.643  0.00  0.00    +0.002 A 
ATOM     31  C   UNL     1       6.931  -9.847  -1.666  0.00  0.00    +0.000 A 
ATOM     32  C   UNL     1       6.681  -8.526  -1.341  0.00  0.00    +0.005 A 
ATOM     33  C   UNL     1       5.685  -7.829  -1.997  0.00  0.00    -0.029 A 
ATOM     34  C   UNL     1       5.418  -6.387  -1.647  0.00  0.00    +0.045 C 
ENDBRANCH  26  28
ENDBRANCH   3  24
TORSDOF 6
