REMARK  Name = ZINC15670842
REMARK  9 active torsions:
REMARK  status: ('A' for Active; 'I' for Inactive)
REMARK    1  A    between atoms: C_1  and  C_2
REMARK    2  A    between atoms: C_3  and  C_31
REMARK    3  A    between atoms: C_9  and  C_12
REMARK    4  A    between atoms: C_15  and  S_17
REMARK    5  A    between atoms: S_17  and  C_18
REMARK    6  A    between atoms: C_18  and  C_19
REMARK    7  A    between atoms: N_21  and  C_22
REMARK    8  A    between atoms: C_25  and  C_28
REMARK    9  A    between atoms: C_28  and  C_30
REMARK                            x       y       z     vdW  Elec       q    Type
REMARK                         _______ _______ _______ _____ _____    ______ ____
ROOT
ATOM      1  C   UNL     1       5.997   2.758   0.368  0.00  0.00    +0.249 A 
ATOM      2  N   UNL     1       5.123   3.718   0.190  0.00  0.00    -0.106 NA
ATOM      3  N   UNL     1       3.937   3.220   0.178  0.00  0.00    -0.101 NA
ATOM      4  C   UNL     1       4.007   1.921   0.349  0.00  0.00    +0.278 A 
ATOM      5  O   UNL     1       5.309   1.600   0.479  0.00  0.00    -0.411 OA
ENDROOT
BRANCH   1  14
ATOM      6  C   UNL     1       9.963   6.889   0.091  0.00  0.00    +0.046 C 
ATOM      7  C   UNL     1      10.342   5.445   0.301  0.00  0.00    -0.022 A 
ATOM      8  C   UNL     1      11.584   4.958   0.443  0.00  0.00    +0.017 A 
ATOM      9  N   UNL     1      11.537   3.601   0.614  0.00  0.00    -0.358 N 
ATOM     10  H   UNL     1      12.310   3.028   0.738  0.00  0.00    +0.166 HD
ATOM     11  C   UNL     1      10.229   3.170   0.586  0.00  0.00    +0.047 A 
ATOM     12  C   UNL     1       9.423   4.307   0.389  0.00  0.00    +0.004 A 
ATOM     13  C   UNL     1       8.037   4.175   0.317  0.00  0.00    +0.023 A 
ATOM     14  C   UNL     1       7.465   2.913   0.442  0.00  0.00    +0.039 A 
ATOM     15  C   UNL     1       8.278   1.790   0.645  0.00  0.00    +0.015 A 
ATOM     16  C   UNL     1       9.635   1.917   0.709  0.00  0.00    +0.027 A 
ATOM     17  C   UNL     1      12.845   5.783   0.417  0.00  0.00    +0.063 C 
ENDBRANCH   1  14
BRANCH   4  18
ATOM     18  S   UNL     1       2.647   0.802   0.406  0.00  0.00    -0.056 S 
BRANCH  18  19
ATOM     19  C   UNL     1       1.277   1.960   0.169  0.00  0.00    +0.175 C 
BRANCH  19  20
ATOM     20  C   UNL     1      -0.028   1.206   0.183  0.00  0.00    +0.228 C 
ATOM     21  O   UNL     1      -0.030   0.003   0.338  0.00  0.00    -0.275 OA
ATOM     22  N   UNL     1      -1.191   1.867   0.018  0.00  0.00    -0.285 N 
ATOM     23  H   UNL     1      -1.195   2.835  -0.029  0.00  0.00    +0.155 HD
BRANCH  22  24
ATOM     24  C   UNL     1      -2.386   1.158  -0.086  0.00  0.00    +0.033 A 
ATOM     25  C   UNL     1      -3.560   1.699   0.431  0.00  0.00    +0.024 A 
ATOM     26  C   UNL     1      -4.739   1.008   0.328  0.00  0.00    +0.013 A 
ATOM     27  C   UNL     1      -4.760  -0.249  -0.290  0.00  0.00    +0.017 A 
ATOM     28  C   UNL     1      -3.575  -0.791  -0.804  0.00  0.00    +0.013 A 
ATOM     29  C   UNL     1      -2.401  -0.091  -0.700  0.00  0.00    +0.024 A 
BRANCH  27  30
ATOM     30  C   UNL     1      -6.019  -0.996  -0.399  0.00  0.00    +0.160 C 
ATOM     31  O   UNL     1      -6.035  -2.084  -0.935  0.00  0.00    -0.292 OA
ATOM     32  C   UNL     1      -7.293  -0.410   0.155  0.00  0.00    +0.091 C 
ENDBRANCH  27  30
ENDBRANCH  22  24
ENDBRANCH  19  20
ENDBRANCH  18  19
ENDBRANCH   4  18
TORSDOF 6
