REMARK  Name = ZINC60811094
REMARK  7 active torsions:
REMARK  status: ('A' for Active; 'I' for Inactive)
REMARK    1  A    between atoms: C_1  and  C_2
REMARK    2  A    between atoms: C_6  and  N_9
REMARK    3  A    between atoms: C_7  and  C_8
REMARK    4  A    between atoms: C_10  and  C_12
REMARK    5  A    between atoms: C_12  and  N_13
REMARK    6  A    between atoms: C_16  and  C_20
REMARK    7  A    between atoms: C_16  and  C_21
REMARK                            x       y       z     vdW  Elec       q    Type
REMARK                         _______ _______ _______ _____ _____    ______ ____
ROOT
ATOM      1  N   UNL     1      -2.326  -5.835   1.654  0.00  0.00    -0.215 N 
ATOM      2  C   UNL     1      -2.232  -7.134   1.306  0.00  0.00    +0.251 C 
ATOM      3  O   UNL     1      -2.153  -7.587   0.184  0.00  0.00    -0.272 OA
ATOM      4  C   UNL     1      -2.244  -7.910   2.608  0.00  0.00    +0.140 C 
ATOM      5  N   UNL     1      -2.354  -6.860   3.635  0.00  0.00    -0.281 N 
ATOM      6  C   UNL     1      -2.390  -5.684   2.982  0.00  0.00    +0.310 C 
ATOM      7  O   UNL     1      -2.475  -4.606   3.536  0.00  0.00    -0.252 OA
ATOM      8  C   UNL     1      -0.942  -8.696   2.778  0.00  0.00    +0.047 C 
ATOM      9  H   UNL     1      -2.390  -6.991   4.596  0.00  0.00    +0.152 HD
ENDROOT
BRANCH   4  10
ATOM     10  C   UNL     1      -3.434  -8.833   2.664  0.00  0.00    +0.055 A 
ATOM     11  C   UNL     1      -4.593  -8.430   3.303  0.00  0.00    +0.132 A 
ATOM     12  C   UNL     1      -5.686  -9.280   3.353  0.00  0.00    +0.039 A 
ATOM     13  C   UNL     1      -5.619 -10.529   2.767  0.00  0.00    +0.006 A 
ATOM     14  C   UNL     1      -4.461 -10.932   2.129  0.00  0.00    +0.039 A 
ATOM     15  C   UNL     1      -3.369 -10.082   2.071  0.00  0.00    +0.132 A 
ATOM     16  F   UNL     1      -2.240 -10.475   1.442  0.00  0.00    -0.205 F 
ATOM     17  F   UNL     1      -4.660  -7.209   3.877  0.00  0.00    -0.205 F 
ENDBRANCH   4  10
BRANCH   1  18
ATOM     18  C   UNL     1      -2.349  -4.726   0.698  0.00  0.00    +0.213 C 
BRANCH  18  20
ATOM     19  N   UNL     1      -0.715  -3.247  -0.425  0.00  0.00    -0.311 N 
ATOM     20  C   UNL     1      -0.940  -4.265   0.430  0.00  0.00    +0.231 C 
ATOM     21  O   UNL     1      -0.008  -4.809   0.983  0.00  0.00    -0.274 OA
ATOM     22  H   UNL     1      -1.460  -2.812  -0.868  0.00  0.00    +0.149 HD
BRANCH  19  28
ATOM     23  C   UNL     1      -0.213   0.251  -2.870  0.00  0.00    +0.008 C 
ATOM     24  C   UNL     1      -0.194  -1.211  -2.417  0.00  0.00    -0.009 C 
ATOM     25  C   UNL     1       0.426  -2.077  -3.516  0.00  0.00    +0.003 C 
ATOM     26  C   UNL     1       0.445  -3.538  -3.063  0.00  0.00    +0.002 C 
ATOM     27  C   UNL     1       1.275  -3.665  -1.784  0.00  0.00    +0.022 C 
ATOM     28  C   UNL     1       0.655  -2.799  -0.686  0.00  0.00    +0.076 C 
ATOM     29  C   UNL     1       0.636  -1.337  -1.139  0.00  0.00    +0.009 C 
ATOM     30  C   UNL     1       0.016  -0.471  -0.040  0.00  0.00    +0.009 C 
ENDBRANCH  19  28
ENDBRANCH  18  20
ENDBRANCH   1  18
TORSDOF 4
