REMARK  Name = ZINC06149363
REMARK  14 active torsions:
REMARK  status: ('A' for Active; 'I' for Inactive)
REMARK    1  A    between atoms: C_1  and  C_2
REMARK    2  A    between atoms: C_2  and  C_3
REMARK    3  A    between atoms: C_3  and  C_4
REMARK    4  A    between atoms: C_3  and  C_5
REMARK    5  A    between atoms: C_3  and  N_6
REMARK    6  A    between atoms: C_7  and  C_11
REMARK    7  A    between atoms: C_11  and  C_13
REMARK    8  A    between atoms: C_11  and  N_72
REMARK    9  A    between atoms: C_17  and  C_26
REMARK   10  A    between atoms: C_18  and  C_25
REMARK   11  A    between atoms: C_27  and  C_28
REMARK   12  A    between atoms: C_27  and  N_72
REMARK   13  A    between atoms: C_34  and  C_35
REMARK   14  A    between atoms: C_34  and  N_72
REMARK                            x       y       z     vdW  Elec       q    Type
REMARK                         _______ _______ _______ _____ _____    ______ ____
ROOT
ATOM      1  C   UNL     1       4.967  -1.211  -2.561  0.00  0.00    +0.040 C 
ENDROOT
BRANCH   1   2
ATOM      2  C   UNL     1       5.256  -0.922  -4.012  0.00  0.00    +0.011 A 
ATOM      3  C   UNL     1       5.095  -1.898  -4.940  0.00  0.00    +0.017 A 
ATOM      4  C   UNL     1       5.379  -1.584  -6.341  0.00  0.00    -0.001 A 
ATOM      5  C   UNL     1       5.227  -2.547  -7.344  0.00  0.00    +0.013 A 
ATOM      6  C   UNL     1       5.504  -2.223  -8.642  0.00  0.00    -0.047 A 
ATOM      7  C   UNL     1       5.935  -0.946  -8.975  0.00  0.00    -0.046 A 
ATOM      8  C   UNL     1       6.093   0.018  -8.004  0.00  0.00    +0.030 A 
ATOM      9  C   UNL     1       5.816  -0.288  -6.675  0.00  0.00    +0.049 A 
ATOM     10  N   UNL     1       5.965   0.658  -5.683  0.00  0.00    -0.322 N 
ATOM     11  H   UNL     1       6.276   1.578  -5.922  0.00  0.00    +0.169 HD
ATOM     12  C   UNL     1       5.697   0.361  -4.399  0.00  0.00    +0.251 A 
ATOM     13  O   UNL     1       5.839   1.223  -3.549  0.00  0.00    -0.268 OA
ATOM     14  C   UNL     1       6.235  -0.612 -10.413  0.00  0.00    +0.044 C 
ATOM     15  C   UNL     1       5.340  -3.261  -9.722  0.00  0.00    +0.044 C 
ENDBRANCH   1   2
BRANCH   1  17
ATOM     16  N   UNL     1       7.005  -2.006  -1.250  0.00  0.00    -0.225 N 
ATOM     17  C   UNL     1       6.227  -1.030  -1.753  0.00  0.00    +0.143 A 
ATOM     18  N   UNL     1       6.780   0.107  -1.409  0.00  0.00    -0.115 NA
ATOM     19  N   UNL     1       7.838  -0.157  -0.723  0.00  0.00    -0.023 NA
ATOM     20  N   UNL     1       7.979  -1.433  -0.628  0.00  0.00    -0.043 NA
BRANCH  16  21
ATOM     21  C   UNL     1       6.788  -3.449  -1.384  0.00  0.00    +0.061 C 
ATOM     22  C   UNL     1       5.492  -3.838  -0.669  0.00  0.00    +0.036 C 
ATOM     23  C   UNL     1       6.682  -3.813  -2.866  0.00  0.00    +0.036 C 
BRANCH  21  25
ATOM     24  C   UNL     1       7.735  -5.709  -0.896  0.00  0.00    +0.006 C 
ATOM     25  C   UNL     1       7.963  -4.202  -0.757  0.00  0.00    +0.026 C 
ENDBRANCH  21  25
ENDBRANCH  16  21
ENDBRANCH   1  17
BRANCH   1  26
ATOM     26  N   UNL     1       3.948  -0.259  -2.072  0.00  0.00    +0.397 N 
ATOM     27  H   UNL     1       4.358   0.681  -2.037  0.00  0.00    -0.079 HD
BRANCH  26  28
ATOM     28  C   UNL     1       2.790  -0.243  -2.991  0.00  0.00    -0.041 C 
BRANCH  28  29
ATOM     29  C   UNL     1       1.871   0.884  -2.596  0.00  0.00    -0.064 A 
ATOM     30  C   UNL     1       2.053   2.144  -3.134  0.00  0.00    +0.002 A 
ATOM     31  C   UNL     1       1.210   3.179  -2.772  0.00  0.00    +0.000 A 
ATOM     32  C   UNL     1       0.186   2.953  -1.871  0.00  0.00    +0.000 A 
ATOM     33  C   UNL     1       0.004   1.692  -1.334  0.00  0.00    +0.000 A 
ATOM     34  C   UNL     1       0.847   0.658  -1.696  0.00  0.00    +0.002 A 
ENDBRANCH  28  29
ENDBRANCH  26  28
BRANCH  26  35
ATOM     35  C   UNL     1       3.509  -0.642  -0.714  0.00  0.00    -0.001 C 
BRANCH  35  36
ATOM     36  C   UNL     1       4.577  -0.239   0.270  0.00  0.00    +0.089 A 
ATOM     37  C   UNL     1       4.740   0.988   0.796  0.00  0.00    +0.042 A 
ATOM     38  C   UNL     1       5.854   0.917   1.664  0.00  0.00    +0.041 A 
ATOM     39  C   UNL     1       6.306  -0.348   1.616  0.00  0.00    +0.195 A 
ATOM     40  O   UNL     1       5.525  -1.046   0.775  0.00  0.00    -0.470 OA
ENDBRANCH  35  36
ENDBRANCH  26  35
ENDBRANCH   1  26
TORSDOF 9
