REMARK  Name = ZINC08815902
REMARK  8 active torsions:
REMARK  status: ('A' for Active; 'I' for Inactive)
REMARK    1  A    between atoms: C_1  and  C_2
REMARK    2  A    between atoms: C_4  and  C_29
REMARK    3  A    between atoms: C_5  and  N_9
REMARK    4  A    between atoms: C_6  and  C_8
REMARK    5  A    between atoms: C_10  and  C_12
REMARK    6  A    between atoms: C_12  and  C_13
REMARK    7  A    between atoms: N_17  and  C_28
REMARK    8  A    between atoms: N_19  and  C_20
REMARK                            x       y       z     vdW  Elec       q    Type
REMARK                         _______ _______ _______ _____ _____    ______ ____
ROOT
ATOM      1  C   UNL     1      -6.978   1.296  -0.658  0.00  0.00    +0.149 C 
ATOM      2  C   UNL     1      -7.897   0.987  -1.829  0.00  0.00    +0.235 C 
ATOM      3  O   UNL     1      -8.098   1.787  -2.718  0.00  0.00    -0.274 OA
ATOM      4  N   UNL     1      -8.462  -0.208  -1.817  0.00  0.00    -0.253 N 
ATOM      5  C   UNL     1      -8.237  -1.121  -0.809  0.00  0.00    +0.164 C 
ATOM      6  N   UNL     1      -8.733  -2.329  -0.684  0.00  0.00    -0.226 NA
ATOM      7  S   UNL     1      -7.109  -0.273   0.287  0.00  0.00    -0.077 S 
ATOM      8  C   UNL     1      -9.360  -0.575  -2.915  0.00  0.00    +0.140 C 
ENDROOT
BRANCH   6   9
ATOM      9  C   UNL     1      -9.442  -2.888  -1.714  0.00  0.00    +0.067 A 
ATOM     10  C   UNL     1     -10.805  -3.152  -1.565  0.00  0.00    +0.029 A 
ATOM     11  C   UNL     1     -11.514  -3.710  -2.609  0.00  0.00    +0.016 A 
ATOM     12  C   UNL     1     -10.875  -4.019  -3.797  0.00  0.00    +0.014 A 
ATOM     13  C   UNL     1      -9.523  -3.765  -3.949  0.00  0.00    +0.016 A 
ATOM     14  C   UNL     1      -8.803  -3.202  -2.915  0.00  0.00    +0.029 A 
ATOM     15  I   UNL     1     -11.959  -4.875  -5.372  0.00  0.00    -0.044 I 
ENDBRANCH   6   9
BRANCH   1  16
ATOM     16  C   UNL     1      -5.543   1.542  -1.128  0.00  0.00    +0.120 C 
BRANCH  16  18
ATOM     17  N   UNL     1      -3.342   2.021  -0.107  0.00  0.00    -0.285 N 
ATOM     18  C   UNL     1      -4.657   1.781   0.067  0.00  0.00    +0.219 C 
ATOM     19  O   UNL     1      -5.127   1.758   1.185  0.00  0.00    -0.275 OA
ATOM     20  H   UNL     1      -2.949   1.952  -0.991  0.00  0.00    +0.155 HD
BRANCH  17  25
ATOM     21  C   UNL     1      -0.097   3.429   4.328  0.00  0.00    +0.044 C 
ATOM     22  C   UNL     1      -0.961   3.057   3.151  0.00  0.00    -0.050 A 
ATOM     23  C   UNL     1      -1.047   3.905   2.063  0.00  0.00    +0.008 A 
ATOM     24  C   UNL     1      -1.838   3.566   0.982  0.00  0.00    -0.029 A 
ATOM     25  C   UNL     1      -2.544   2.370   0.988  0.00  0.00    +0.039 A 
ATOM     26  C   UNL     1      -2.459   1.523   2.085  0.00  0.00    -0.029 A 
ATOM     27  C   UNL     1      -1.666   1.867   3.162  0.00  0.00    +0.008 A 
ATOM     28  C   UNL     1      -3.227   0.226   2.098  0.00  0.00    +0.045 C 
ATOM     29  C   UNL     1      -1.930   4.490  -0.205  0.00  0.00    +0.045 C 
ENDBRANCH  17  25
ENDBRANCH  16  18
ENDBRANCH   1  16
TORSDOF 4
