REMARK  Name = ZINC49700074
REMARK  7 active torsions:
REMARK  status: ('A' for Active; 'I' for Inactive)
REMARK    1  A    between atoms: C_1  and  C_2
REMARK    2  A    between atoms: N_5  and  S_18
REMARK    3  A    between atoms: C_7  and  C_17
REMARK    4  A    between atoms: N_9  and  C_10
REMARK    5  A    between atoms: C_10  and  C_11
REMARK    6  A    between atoms: S_18  and  C_21
REMARK    7  A    between atoms: C_25  and  N_27
REMARK                            x       y       z     vdW  Elec       q    Type
REMARK                         _______ _______ _______ _____ _____    ______ ____
ROOT
ATOM      1  C   UNL     1      -0.151   1.685   0.371  0.00  0.00    +0.025 C 
ATOM      2  C   UNL     1      -0.105   0.175   0.130  0.00  0.00    +0.070 C 
ATOM      3  C   UNL     1      -1.516  -0.408   0.265  0.00  0.00    +0.128 C 
ATOM      4  N   UNL     1      -1.427  -1.873   0.178  0.00  0.00    -0.174 NA
ATOM      5  C   UNL     1      -0.461  -2.564   1.046  0.00  0.00    +0.128 C 
ATOM      6  C   UNL     1       0.908  -1.897   0.880  0.00  0.00    +0.070 C 
ATOM      7  N   UNL     1       0.779  -0.454   1.121  0.00  0.00    -0.290 NA
ATOM      8  C   UNL     1       1.894  -2.496   1.885  0.00  0.00    +0.025 C 
ENDROOT
BRANCH   4   9
ATOM      9  S   UNL     1      -2.388  -2.722  -0.870  0.00  0.00    +0.061 S 
ATOM     10  O   UNL     1      -2.488  -4.041  -0.351  0.00  0.00    -0.153 OA
ATOM     11  O   UNL     1      -3.529  -1.913  -1.121  0.00  0.00    -0.153 OA
BRANCH   9  12
ATOM     12  C   UNL     1      -1.514  -2.846  -2.395  0.00  0.00    +0.108 A 
ATOM     13  C   UNL     1      -1.667  -1.869  -3.361  0.00  0.00    +0.028 A 
ATOM     14  C   UNL     1      -0.981  -1.967  -4.557  0.00  0.00    +0.004 A 
ATOM     15  C   UNL     1      -0.142  -3.041  -4.787  0.00  0.00    +0.033 A 
ATOM     16  C   UNL     1       0.012  -4.017  -3.821  0.00  0.00    +0.128 A 
ATOM     17  C   UNL     1      -0.670  -3.918  -2.623  0.00  0.00    +0.061 A 
BRANCH  16  18
ATOM     18  N   UNL     1       0.910  -5.168  -4.067  0.00  0.00    +0.056 N 
ATOM     19  O   UNL     1       1.509  -5.253  -5.114  0.00  0.00    -0.126 OA
ATOM     20  O   UNL     1       1.045  -6.022  -3.222  0.00  0.00    -0.126 OA
ENDBRANCH  16  18
ENDBRANCH   9  12
ENDBRANCH   4   9
BRANCH   7  21
ATOM     21  C   UNL     1       2.095   0.198   1.140  0.00  0.00    +0.120 C 
BRANCH  21  22
ATOM     22  C   UNL     1       2.779  -0.012  -0.187  0.00  0.00    -0.033 A 
ATOM     23  C   UNL     1       3.671  -1.056  -0.347  0.00  0.00    +0.005 A 
ATOM     24  C   UNL     1       4.298  -1.249  -1.564  0.00  0.00    +0.000 A 
ATOM     25  C   UNL     1       4.033  -0.398  -2.620  0.00  0.00    +0.000 A 
ATOM     26  C   UNL     1       3.140   0.645  -2.460  0.00  0.00    +0.000 A 
ATOM     27  C   UNL     1       2.510   0.836  -1.245  0.00  0.00    +0.005 A 
ENDBRANCH  21  22
ENDBRANCH   7  21
TORSDOF 5
