REMARK  Name = ZINC21272523
REMARK  7 active torsions:
REMARK  status: ('A' for Active; 'I' for Inactive)
REMARK    1  A    between atoms: C_1  and  C_2
REMARK    2  A    between atoms: C_10  and  C_13
REMARK    3  A    between atoms: C_13  and  S_14
REMARK    4  A    between atoms: S_14  and  C_15
REMARK    5  A    between atoms: C_18  and  C_21
REMARK    6  A    between atoms: N_19  and  N_20
REMARK    7  A    between atoms: C_25  and  C_26
REMARK                            x       y       z     vdW  Elec       q    Type
REMARK                         _______ _______ _______ _____ _____    ______ ____
ROOT
ATOM      1  S   UNL     1      -1.693  -3.167  -2.970  0.00  0.00    -0.078 S 
ENDROOT
BRANCH   1   2
ATOM      2  C   UNL     1      -1.407  -4.029  -4.481  0.00  0.00    +0.209 A 
ATOM      3  N   UNL     1      -0.237  -4.304  -5.011  0.00  0.00    -0.121 NA
ATOM      4  N   UNL     1      -0.392  -4.946  -6.113  0.00  0.00    -0.127 NA
ATOM      5  C   UNL     1      -1.671  -5.112  -6.360  0.00  0.00    +0.185 A 
ATOM      6  N   UNL     1      -2.361  -4.529  -5.322  0.00  0.00    -0.224 N 
BRANCH   5   7
ATOM      7  C   UNL     1      -2.259  -5.795  -7.532  0.00  0.00    +0.061 A 
ATOM      8  C   UNL     1      -3.685  -5.987  -7.824  0.00  0.00    +0.053 A 
ATOM      9  C   UNL     1      -3.739  -6.655  -8.988  0.00  0.00    +0.196 A 
ATOM     10  O   UNL     1      -2.490  -6.881  -9.421  0.00  0.00    -0.467 OA
ATOM     11  C   UNL     1      -1.590  -6.370  -8.568  0.00  0.00    +0.112 A 
ATOM     12  C   UNL     1      -0.093  -6.426  -8.728  0.00  0.00    +0.087 C 
ENDBRANCH   5   7
BRANCH   6  13
ATOM     13  N   UNL     1      -3.716  -4.465  -5.165  0.00  0.00    -0.295 N 
ATOM     14  H   UNL     1      -4.379  -4.911  -5.921  0.00  0.00    +0.163 HD
ATOM     15  H   UNL     1      -4.144  -3.967  -4.283  0.00  0.00    +0.163 HD
ENDBRANCH   6  13
ENDBRANCH   1   2
BRANCH   1  16
ATOM     16  C   UNL     1       0.015  -2.845  -2.464  0.00  0.00    +0.134 C 
BRANCH  16  26
ATOM     17  C   UNL     1      -0.018   1.503   0.010  0.00  0.00    +0.046 C 
ATOM     18  C   UNL     1       0.002  -0.004   0.002  0.00  0.00    -0.021 A 
ATOM     19  C   UNL     1       0.023  -0.734   1.205  0.00  0.00    +0.005 A 
ATOM     20  C   UNL     1       0.026  -0.088   2.452  0.00  0.00    +0.010 A 
ATOM     21  C   UNL     1       0.048  -0.829   3.594  0.00  0.00    +0.001 A 
ATOM     22  C   UNL     1       0.066  -2.221   3.542  0.00  0.00    +0.002 A 
ATOM     23  C   UNL     1       0.063  -2.880   2.352  0.00  0.00    +0.028 A 
ATOM     24  C   UNL     1       0.042  -2.150   1.150  0.00  0.00    +0.072 A 
ATOM     25  N   UNL     1       0.038  -2.770  -0.034  0.00  0.00    -0.249 NA
ATOM     26  C   UNL     1       0.018  -2.095  -1.157  0.00  0.00    +0.071 A 
ATOM     27  C   UNL     1      -0.005  -0.700  -1.174  0.00  0.00    +0.067 A 
ATOM     28 CL   UNL     1      -0.038   0.150  -2.687  0.00  0.00    -0.081 Cl
ENDBRANCH  16  26
ENDBRANCH   1  16
TORSDOF 5
