REMARK  Name = ZINC45914753
REMARK  8 active torsions:
REMARK  status: ('A' for Active; 'I' for Inactive)
REMARK    1  A    between atoms: C_1  and  O_2
REMARK    2  A    between atoms: O_2  and  C_3
REMARK    3  A    between atoms: C_7  and  C_15
REMARK    4  A    between atoms: C_11  and  O_13
REMARK    5  A    between atoms: O_13  and  C_14
REMARK    6  A    between atoms: C_15  and  O_17
REMARK    7  A    between atoms: O_17  and  C_18
REMARK    8  A    between atoms: C_18  and  C_19
REMARK                            x       y       z     vdW  Elec       q    Type
REMARK                         _______ _______ _______ _____ _____    ______ ____
ROOT
ATOM      1  C   UNL     1      -5.031  -5.316   0.031  0.00  0.00    +0.356 C 
ATOM      2  O   UNL     1      -4.482  -6.401   0.025  0.00  0.00    -0.243 OA
ENDROOT
BRANCH   1   7
ATOM      3  C   UNL     1      -1.201  -0.638   0.010  0.00  0.00    +0.124 A 
ATOM      4  C   UNL     1      -1.250  -2.015   0.009  0.00  0.00    +0.056 A 
ATOM      5  C   UNL     1      -2.491  -2.669   0.018  0.00  0.00    +0.008 A 
ATOM      6  C   UNL     1      -2.869  -4.033   0.018  0.00  0.00    +0.043 A 
ATOM      7  C   UNL     1      -4.227  -4.087   0.028  0.00  0.00    +0.125 A 
ATOM      8  N   UNL     1      -4.731  -2.801   0.034  0.00  0.00    -0.346 N 
ATOM      9  H   UNL     1      -5.671  -2.562   0.041  0.00  0.00    +0.166 HD
ATOM     10  C   UNL     1      -3.677  -1.913   0.028  0.00  0.00    +0.090 A 
ATOM     11  C   UNL     1      -3.607  -0.518   0.029  0.00  0.00    +0.147 A 
ATOM     12  C   UNL     1      -2.377   0.109   0.025  0.00  0.00    +0.093 A 
BRANCH   3  14
ATOM     13  C   UNL     1      -0.017   1.425   0.010  0.00  0.00    +0.277 C 
ATOM     14  O   UNL     1       0.002  -0.004   0.002  0.00  0.00    -0.495 OA
ENDBRANCH   3  14
BRANCH  11  15
ATOM     15  O   UNL     1      -4.748   0.221   0.038  0.00  0.00    -0.493 OA
ATOM     16  C   UNL     1      -4.600   1.642   0.039  0.00  0.00    +0.277 C 
ENDBRANCH  11  15
ENDBRANCH   1   7
BRANCH   1  17
ATOM     17  O   UNL     1      -6.377  -5.242   0.041  0.00  0.00    -0.455 OA
BRANCH  17  18
ATOM     18  C   UNL     1      -7.096  -6.477   0.044  0.00  0.00    +0.269 C 
BRANCH  18  19
ATOM     19  C   UNL     1      -8.576  -6.197   0.055  0.00  0.00    +0.007 A 
ATOM     20  C   UNL     1      -9.045  -4.924   0.055  0.00  0.00    +0.099 A 
ATOM     21  C   UNL     1     -10.437  -4.688   0.065  0.00  0.00    +0.338 A 
ATOM     22  O   UNL     1     -10.845  -3.541   0.065  0.00  0.00    -0.245 OA
ATOM     23  O   UNL     1     -11.322  -5.697   0.073  0.00  0.00    -0.422 OA
ATOM     24  C   UNL     1     -10.922  -6.986   0.074  0.00  0.00    +0.140 A 
ATOM     25  C   UNL     1      -9.550  -7.293   0.059  0.00  0.00    +0.024 A 
ATOM     26  C   UNL     1      -9.133  -8.628   0.055  0.00  0.00    +0.013 A 
ATOM     27  C   UNL     1     -10.063  -9.629   0.060  0.00  0.00    +0.016 A 
ATOM     28  C   UNL     1     -11.419  -9.330   0.069  0.00  0.00    +0.021 A 
ATOM     29  C   UNL     1     -11.851  -8.018   0.083  0.00  0.00    +0.062 A 
ATOM     30 BR   UNL     1     -12.687 -10.732   0.074  0.00  0.00    -0.050 Br
ENDBRANCH  18  19
ENDBRANCH  17  18
ENDBRANCH   1  17
TORSDOF 6
