REMARK  Name = ZINC63573176
REMARK  5 active torsions:
REMARK  status: ('A' for Active; 'I' for Inactive)
REMARK    1  A    between atoms: C_1  and  C_2
REMARK    2  A    between atoms: C_5  and  N_9
REMARK    3  A    between atoms: C_18  and  O_34
REMARK    4  A    between atoms: C_25  and  C_27
REMARK    5  A    between atoms: O_34  and  C_35
REMARK                            x       y       z     vdW  Elec       q    Type
REMARK                         _______ _______ _______ _____ _____    ______ ____
ROOT
ATOM      1  N   UNL     1       1.830  -4.660  -0.313  0.00  0.00    -0.268 N 
ATOM      2  C   UNL     1       1.125  -5.136  -1.358  0.00  0.00    +0.307 C 
ATOM      3  O   UNL     1       1.010  -4.468  -2.368  0.00  0.00    -0.252 OA
ATOM      4  N   UNL     1       0.547  -6.351  -1.284  0.00  0.00    -0.276 N 
ATOM      5  C   UNL     1       0.585  -7.097  -0.022  0.00  0.00    +0.114 C 
ATOM      6  C   UNL     1      -0.852  -7.417   0.428  0.00  0.00    +0.052 C 
ATOM      7  C   UNL     1      -1.585  -7.922  -0.790  0.00  0.00    -0.035 C 
ATOM      8  C   UNL     1      -2.302  -9.021  -0.990  0.00  0.00    +0.003 A 
ATOM      9  C   UNL     1      -2.737 -10.090  -0.077  0.00  0.00    +0.055 A 
ATOM     10  C   UNL     1      -3.461 -11.104  -0.626  0.00  0.00    +0.121 A 
ATOM     11  C   UNL     1      -3.803 -11.177  -1.984  0.00  0.00    +0.047 A 
ATOM     12  C   UNL     1      -3.462 -10.244  -2.909  0.00  0.00    +0.029 A 
ATOM     13  C   UNL     1      -2.683  -9.092  -2.434  0.00  0.00    +0.043 A 
ATOM     14  N   UNL     1      -2.242  -8.052  -3.074  0.00  0.00    -0.375 N 
ATOM     15  C   UNL     1      -1.584  -7.165  -2.113  0.00  0.00    +0.131 C 
ATOM     16  C   UNL     1      -0.121  -6.913  -2.469  0.00  0.00    +0.134 C 
ATOM     17  H   UNL     1       1.982  -5.220   0.465  0.00  0.00    +0.156 HD
ATOM     18  H   UNL     1      -2.332  -7.890  -4.026  0.00  0.00    +0.160 HD
ENDROOT
BRANCH   1  23
ATOM     19  C   UNL     1       3.908   0.618  -0.460  0.00  0.00    +0.044 C 
ATOM     20  C   UNL     1       3.357  -0.784  -0.420  0.00  0.00    -0.049 A 
ATOM     21  C   UNL     1       3.180  -1.489  -1.597  0.00  0.00    +0.005 A 
ATOM     22  C   UNL     1       2.675  -2.774  -1.564  0.00  0.00    +0.025 A 
ATOM     23  C   UNL     1       2.343  -3.358  -0.349  0.00  0.00    +0.053 A 
ATOM     24  C   UNL     1       2.522  -2.647   0.832  0.00  0.00    +0.062 A 
ATOM     25  C   UNL     1       3.033  -1.363   0.792  0.00  0.00    +0.025 A 
ATOM     26 CL   UNL     1       2.108  -3.372   2.354  0.00  0.00    -0.082 Cl
ENDBRANCH   1  23
BRANCH  16  27
ATOM     27  C   UNL     1      -0.037  -5.936  -3.613  0.00  0.00    -0.025 A 
ATOM     28  C   UNL     1      -0.826  -4.800  -3.610  0.00  0.00    +0.008 A 
ATOM     29  C   UNL     1      -0.750  -3.903  -4.659  0.00  0.00    +0.038 A 
ATOM     30  C   UNL     1       0.116  -4.142  -5.712  0.00  0.00    +0.123 A 
ATOM     31  C   UNL     1       0.905  -5.280  -5.714  0.00  0.00    +0.038 A 
ATOM     32  C   UNL     1       0.831  -6.173  -4.662  0.00  0.00    +0.008 A 
ATOM     33  F   UNL     1       0.190  -3.266  -6.738  0.00  0.00    -0.205 F 
ENDBRANCH  16  27
BRANCH  10  34
ATOM     34  O   UNL     1      -3.877 -12.106   0.192  0.00  0.00    -0.495 OA
ATOM     35  C   UNL     1      -4.636 -13.159  -0.406  0.00  0.00    +0.277 C 
ENDBRANCH  10  34
TORSDOF 3
