REMARK  Name = ZINC06537856
REMARK  2 active torsions:
REMARK  status: ('A' for Active; 'I' for Inactive)
REMARK    1  A    between atoms: C_4  and  C_7
REMARK    2  A    between atoms: N_14  and  N_19
REMARK                            x       y       z     vdW  Elec       q    Type
REMARK                         _______ _______ _______ _____ _____    ______ ____
ROOT
ATOM      1  C   UNL     1       1.324  -0.297  -0.012  0.00  0.00    +0.004 A 
ATOM      2  C   UNL     1       0.002  -0.004   0.002  0.00  0.00    +0.056 A 
ATOM      3  S   UNL     1      -0.022   1.778   0.012  0.00  0.00    -0.078 S 
ATOM      4  C   UNL     1       1.725   2.080  -0.003  0.00  0.00    +0.093 A 
ATOM      5  C   UNL     1       2.286   0.802  -0.015  0.00  0.00    +0.079 A 
ATOM      6  C   UNL     1       3.763   0.754  -0.030  0.00  0.00    +0.280 A 
ATOM      7  O   UNL     1       4.344  -0.316  -0.042  0.00  0.00    -0.265 OA
ATOM      8  N   UNL     1       4.458   1.905  -0.031  0.00  0.00    -0.209 N 
ATOM      9  C   UNL     1       3.849   3.102  -0.019  0.00  0.00    +0.179 A 
ATOM     10  S   UNL     1       4.797   4.527  -0.020  0.00  0.00    -0.011 S 
ATOM     11  N   UNL     1       2.505   3.202  -0.005  0.00  0.00    -0.328 N 
ATOM     12  H   UNL     1       2.088   4.078   0.004  0.00  0.00    +0.168 HD
ENDROOT
BRANCH   1  16
ATOM     13  C   UNL     1       2.648  -4.336  -0.046  0.00  0.00    +0.000 A 
ATOM     14  C   UNL     1       1.710  -3.926   0.884  0.00  0.00    +0.001 A 
ATOM     15  C   UNL     1       1.276  -2.616   0.900  0.00  0.00    +0.008 A 
ATOM     16  C   UNL     1       1.786  -1.705  -0.024  0.00  0.00    -0.017 A 
ATOM     17  C   UNL     1       2.728  -2.125  -0.962  0.00  0.00    +0.008 A 
ATOM     18  C   UNL     1       3.158  -3.436  -0.965  0.00  0.00    +0.001 A 
ENDBRANCH   1  16
BRANCH   8  19
ATOM     19  N   UNL     1       5.823   1.856  -0.045  0.00  0.00    -0.293 N 
ATOM     20  H   UNL     1       6.218   2.784  -0.045  0.00  0.00    +0.163 HD
ATOM     21  H   UNL     1       6.173   1.313   0.730  0.00  0.00    +0.163 HD
ENDBRANCH   8  19
TORSDOF 2
