REMARK  Name = ZINC67271529
REMARK  7 active torsions:
REMARK  status: ('A' for Active; 'I' for Inactive)
REMARK    1  A    between atoms: C_1  and  C_2
REMARK    2  A    between atoms: C_2  and  C_3
REMARK    3  A    between atoms: C_2  and  C_4
REMARK    4  A    between atoms: C_4  and  C_5
REMARK    5  A    between atoms: C_7  and  N_11
REMARK    6  A    between atoms: N_8  and  C_10
REMARK    7  A    between atoms: C_12  and  C_14
REMARK                            x       y       z     vdW  Elec       q    Type
REMARK                         _______ _______ _______ _____ _____    ______ ____
ROOT
ATOM      1  N   UNL     1       5.707  -0.632  -1.302  0.00  0.00    -0.270 N 
ATOM      2  C   UNL     1       5.951  -1.946  -1.481  0.00  0.00    +0.221 C 
ATOM      3  O   UNL     1       5.028  -2.726  -1.581  0.00  0.00    -0.275 OA
ATOM      4  H   UNL     1       6.445  -0.008  -1.222  0.00  0.00    +0.156 HD
ENDROOT
BRANCH   2   5
ATOM      5  C   UNL     1       7.371  -2.445  -1.556  0.00  0.00    +0.075 C 
ATOM      6  C   UNL     1       8.100  -2.104  -0.255  0.00  0.00    +0.015 C 
ATOM      7  C   UNL     1       9.546  -2.602  -0.336  0.00  0.00    +0.036 C 
ATOM      8  C   UNL     1       9.553  -4.110  -0.563  0.00  0.00    +0.112 C 
ATOM      9  C   UNL     1       8.811  -4.466  -1.847  0.00  0.00    +0.036 C 
ATOM     10  C   UNL     1       7.369  -3.961  -1.760  0.00  0.00    +0.015 C 
ATOM     11  C   UNL     1      10.972  -4.629  -0.613  0.00  0.00    +0.244 C 
ATOM     12  O   UNL     1      11.837  -4.327  -1.406  0.00  0.00    -0.273 OA
ATOM     13  N   UNL     1      11.072  -5.500   0.413  0.00  0.00    -0.238 N 
ATOM     14  C   UNL     1       9.923  -5.598   1.091  0.00  0.00    +0.307 C 
ATOM     15  O   UNL     1       9.767  -6.320   2.057  0.00  0.00    -0.252 OA
ATOM     16  N   UNL     1       8.958  -4.806   0.585  0.00  0.00    -0.285 N 
ATOM     17  H   UNL     1      11.878  -5.995   0.631  0.00  0.00    +0.159 HD
ATOM     18  H   UNL     1       8.050  -4.714   0.913  0.00  0.00    +0.151 HD
ENDBRANCH   2   5
BRANCH   1  21
ATOM     19  C   UNL     1       2.165  -0.079  -1.208  0.00  0.00    +0.065 A 
ATOM     20  C   UNL     1       3.267  -0.930  -1.329  0.00  0.00    +0.068 A 
ATOM     21  C   UNL     1       4.393  -0.171  -1.233  0.00  0.00    +0.123 A 
ATOM     22  N   UNL     1       4.005   1.113  -1.058  0.00  0.00    -0.253 N 
ATOM     23  N   UNL     1       2.605   1.143  -1.051  0.00  0.00    -0.175 NA
ATOM     24  C   UNL     1       4.893   2.269  -0.907  0.00  0.00    +0.174 C 
BRANCH  19  25
ATOM     25  C   UNL     1       0.718  -0.497  -1.257  0.00  0.00    +0.060 C 
BRANCH  25  27
ATOM     26  C   UNL     1      -0.019   1.526   0.010  0.00  0.00    +0.007 C 
ATOM     27  C   UNL     1       0.002  -0.004   0.002  0.00  0.00    -0.011 C 
ATOM     28  C   UNL     1      -1.433  -0.534   0.013  0.00  0.00    +0.007 C 
ENDBRANCH  25  27
ENDBRANCH  19  25
ENDBRANCH   1  21
TORSDOF 4
