REMARK  Name = ZINC08694103
REMARK  8 active torsions:
REMARK  status: ('A' for Active; 'I' for Inactive)
REMARK    1  A    between atoms: C_1  and  C_2
REMARK    2  A    between atoms: C_5  and  S_8
REMARK    3  A    between atoms: S_8  and  N_11
REMARK    4  A    between atoms: N_14  and  C_17
REMARK    5  A    between atoms: C_17  and  C_19
REMARK    6  A    between atoms: C_17  and  C_20
REMARK    7  A    between atoms: N_22  and  C_23
REMARK    8  A    between atoms: C_28  and  C_29
REMARK                            x       y       z     vdW  Elec       q    Type
REMARK                         _______ _______ _______ _____ _____    ______ ____
ROOT
ATOM      1  C   UNL     1       5.742  -4.155  -0.034  0.00  0.00    +0.017 C 
ATOM      2  C   UNL     1       6.446  -4.857  -1.197  0.00  0.00    -0.004 C 
ENDROOT
BRANCH   1   6
ATOM      3  N   UNL     1       1.568  -4.441  -0.043  0.00  0.00    -0.180 NA
ATOM      4  C   UNL     1       2.281  -5.040  -1.182  0.00  0.00    +0.091 C 
ATOM      5  C   UNL     1       3.691  -4.442  -1.240  0.00  0.00    -0.060 C 
ATOM      6  N   UNL     1       4.354  -4.628   0.056  0.00  0.00    +0.389 N 
ATOM      7  C   UNL     1       3.646  -3.868   1.094  0.00  0.00    -0.060 C 
ATOM      8  C   UNL     1       2.237  -4.432   1.267  0.00  0.00    +0.091 C 
ATOM      9  H   UNL     1       4.351  -5.608   0.297  0.00  0.00    -0.081 HD
BRANCH   3  10
ATOM     10  S   UNL     1       0.057  -3.788  -0.232  0.00  0.00    +0.061 S 
ATOM     11  O   UNL     1      -0.559  -3.814   1.048  0.00  0.00    -0.153 OA
ATOM     12  O   UNL     1      -0.518  -4.419  -1.368  0.00  0.00    -0.153 OA
BRANCH  10  17
ATOM     13  C   UNL     1       0.789   2.024  -1.675  0.00  0.00    +0.044 C 
ATOM     14  C   UNL     1       0.607   0.572  -1.315  0.00  0.00    -0.050 A 
ATOM     15  C   UNL     1       0.543  -0.384  -2.311  0.00  0.00    +0.005 A 
ATOM     16  C   UNL     1       0.376  -1.716  -1.980  0.00  0.00    +0.029 A 
ATOM     17  C   UNL     1       0.272  -2.091  -0.653  0.00  0.00    +0.105 A 
ATOM     18  C   UNL     1       0.336  -1.135   0.342  0.00  0.00    +0.029 A 
ATOM     19  C   UNL     1       0.508   0.197   0.012  0.00  0.00    +0.005 A 
ENDBRANCH  10  17
ENDBRANCH   3  10
ENDBRANCH   1   6
BRANCH   1  20
ATOM     20  C   UNL     1       6.464  -4.466   1.252  0.00  0.00    +0.203 C 
ATOM     21  O   UNL     1       5.969  -5.228   2.055  0.00  0.00    -0.277 OA
ATOM     22  N   UNL     1       7.658  -3.897   1.509  0.00  0.00    -0.286 N 
ATOM     23  H   UNL     1       8.018  -3.231   0.904  0.00  0.00    +0.155 HD
BRANCH  22  24
ATOM     24  C   UNL     1       8.378  -4.269   2.648  0.00  0.00    +0.041 A 
ATOM     25  C   UNL     1       7.709  -4.609   3.815  0.00  0.00    +0.024 A 
ATOM     26  C   UNL     1       8.422  -4.975   4.939  0.00  0.00    +0.002 A 
ATOM     27  C   UNL     1       9.806  -5.006   4.910  0.00  0.00    +0.001 A 
ATOM     28  C   UNL     1      10.485  -4.671   3.756  0.00  0.00    +0.010 A 
ATOM     29  C   UNL     1       9.777  -4.305   2.614  0.00  0.00    +0.003 A 
BRANCH  29  30
ATOM     30  C   UNL     1      10.501  -3.949   1.370  0.00  0.00    -0.016 A 
ATOM     31  C   UNL     1      10.134  -4.529   0.157  0.00  0.00    +0.008 A 
ATOM     32  C   UNL     1      10.812  -4.194  -0.998  0.00  0.00    +0.001 A 
ATOM     33  C   UNL     1      11.853  -3.285  -0.953  0.00  0.00    +0.000 A 
ATOM     34  C   UNL     1      12.222  -2.707   0.248  0.00  0.00    +0.001 A 
ATOM     35  C   UNL     1      11.548  -3.030   1.409  0.00  0.00    +0.008 A 
ENDBRANCH  29  30
ENDBRANCH  22  24
ENDBRANCH   1  20
TORSDOF 6
