REMARK  Name = ZINC38611435
REMARK  9 active torsions:
REMARK  status: ('A' for Active; 'I' for Inactive)
REMARK    1  A    between atoms: C_1  and  C_2
REMARK    2  A    between atoms: C_4  and  C_16
REMARK    3  A    between atoms: C_6  and  C_14
REMARK    4  A    between atoms: C_7  and  N_13
REMARK    5  A    between atoms: C_18  and  O_32
REMARK    6  A    between atoms: C_19  and  O_23
REMARK    7  A    between atoms: O_23  and  C_24
REMARK    8  A    between atoms: C_24  and  C_25
REMARK    9  A    between atoms: O_32  and  C_33
REMARK                            x       y       z     vdW  Elec       q    Type
REMARK                         _______ _______ _______ _____ _____    ______ ____
ROOT
ATOM      1  C   UNL     1      -3.201  -0.585   1.227  0.00  0.00    -0.030 A 
ATOM      2  C   UNL     1      -3.862   0.513   1.748  0.00  0.00    +0.054 A 
ATOM      3  C   UNL     1      -4.473   0.429   2.988  0.00  0.00    +0.163 A 
ATOM      4  C   UNL     1      -4.421  -0.761   3.708  0.00  0.00    +0.176 A 
ATOM      5  C   UNL     1      -3.757  -1.857   3.181  0.00  0.00    +0.063 A 
ATOM      6  C   UNL     1      -3.153  -1.768   1.939  0.00  0.00    +0.023 A 
ATOM      7 BR   UNL     1      -3.683  -3.476   4.155  0.00  0.00    -0.046 Br
ENDROOT
BRANCH   1  11
ATOM      8  C   UNL     1      -0.018   1.503   0.010  0.00  0.00    +0.067 C 
ATOM      9  C   UNL     1       0.002  -0.004   0.002  0.00  0.00    +0.066 C 
ATOM     10  C   UNL     1      -1.064  -0.768   0.003  0.00  0.00    +0.030 C 
ATOM     11  C   UNL     1      -2.537  -0.492  -0.122  0.00  0.00    +0.098 C 
ATOM     12  C   UNL     1      -3.075  -1.565  -1.050  0.00  0.00    +0.097 C 
ATOM     13  C   UNL     1      -2.317  -2.612  -1.438  0.00  0.00    +0.195 C 
ATOM     14  O   UNL     1      -1.033  -2.841  -1.107  0.00  0.00    -0.448 OA
ATOM     15  C   UNL     1      -0.528  -2.199   0.066  0.00  0.00    +0.343 C 
ATOM     16  N   UNL     1       0.921  -1.985   0.002  0.00  0.00    -0.138 NA
ATOM     17  N   UNL     1       1.127  -0.765  -0.013  0.00  0.00    -0.155 NA
BRANCH  13  18
ATOM     18  N   UNL     1      -2.917  -3.538  -2.254  0.00  0.00    -0.329 N 
ATOM     19  H   UNL     1      -3.842  -3.421  -2.523  0.00  0.00    +0.145 HD
ATOM     20  H   UNL     1      -2.417  -4.310  -2.562  0.00  0.00    +0.145 HD
ENDBRANCH  13  18
BRANCH  12  21
ATOM     21  C   UNL     1      -4.422  -1.466  -1.525  0.00  0.00    +0.101 C 
ATOM     22  N   UNL     1      -5.491  -1.387  -1.903  0.00  0.00    -0.191 NA
ENDBRANCH  12  21
ENDBRANCH   1  11
BRANCH   3  23
ATOM     23  O   UNL     1      -5.123   1.508   3.502  0.00  0.00    -0.491 OA
ATOM     24  C   UNL     1      -5.136   2.696   2.708  0.00  0.00    +0.277 C 
ENDBRANCH   3  23
BRANCH   4  25
ATOM     25  O   UNL     1      -5.019  -0.847   4.927  0.00  0.00    -0.483 OA
BRANCH  25  26
ATOM     26  C   UNL     1      -6.383  -1.273   4.951  0.00  0.00    +0.264 C 
BRANCH  26  27
ATOM     27  C   UNL     1      -6.872  -1.308   6.376  0.00  0.00    -0.010 A 
ATOM     28  C   UNL     1      -6.735  -2.462   7.125  0.00  0.00    +0.008 A 
ATOM     29  C   UNL     1      -7.184  -2.495   8.432  0.00  0.00    +0.020 A 
ATOM     30  C   UNL     1      -7.771  -1.373   8.990  0.00  0.00    +0.041 A 
ATOM     31  C   UNL     1      -7.909  -0.219   8.239  0.00  0.00    +0.020 A 
ATOM     32  C   UNL     1      -7.454  -0.185   6.935  0.00  0.00    +0.008 A 
ATOM     33 CL   UNL     1      -8.335  -1.414  10.631  0.00  0.00    -0.084 Cl
ENDBRANCH  26  27
ENDBRANCH  25  26
ENDBRANCH   4  25
TORSDOF 7
