REMARK  Name = ZINC09323834
REMARK  7 active torsions:
REMARK  status: ('A' for Active; 'I' for Inactive)
REMARK    1  A    between atoms: C_1  and  O_2
REMARK    2  A    between atoms: O_2  and  C_3
REMARK    3  A    between atoms: C_5  and  C_13
REMARK    4  A    between atoms: C_8  and  O_9
REMARK    5  A    between atoms: O_9  and  C_10
REMARK    6  A    between atoms: C_10  and  C_11
REMARK    7  A    between atoms: N_19  and  C_20
REMARK                            x       y       z     vdW  Elec       q    Type
REMARK                         _______ _______ _______ _____ _____    ______ ____
ROOT
ATOM      1  C   UNL     1       1.176   3.558   0.009  0.00  0.00    +0.028 C 
ATOM      2  C   UNL     1       2.139   4.242   0.678  0.00  0.00    +0.078 C 
ATOM      3  C   UNL     1       3.337   3.732   1.374  0.00  0.00    +0.256 C 
ATOM      4  O   UNL     1       3.591   2.543   1.415  0.00  0.00    -0.269 OA
ATOM      5  N   UNL     1       4.121   4.627   1.951  0.00  0.00    -0.260 N 
ATOM      6  C   UNL     1       3.816   5.970   1.893  0.00  0.00    +0.166 C 
ATOM      7  N   UNL     1       4.479   6.981   2.406  0.00  0.00    -0.224 NA
ATOM      8  S   UNL     1       2.303   6.001   0.946  0.00  0.00    -0.049 S 
ATOM      9  H   UNL     1       4.919   4.335   2.419  0.00  0.00    +0.157 HD
ENDROOT
BRANCH   7  10
ATOM     10  C   UNL     1       4.015   8.258   2.243  0.00  0.00    +0.086 A 
ATOM     11  C   UNL     1       2.647   8.524   2.335  0.00  0.00    +0.049 A 
ATOM     12  C   UNL     1       2.185   9.814   2.168  0.00  0.00    +0.043 A 
ATOM     13  C   UNL     1       3.075  10.844   1.911  0.00  0.00    +0.021 A 
ATOM     14  C   UNL     1       4.431  10.588   1.819  0.00  0.00    +0.023 A 
ATOM     15  C   UNL     1       4.907   9.303   1.989  0.00  0.00    +0.066 A 
ATOM     16 CL   UNL     1       6.611   8.985   1.880  0.00  0.00    -0.081 Cl
ATOM     17 CL   UNL     1       0.485  10.147   2.283  0.00  0.00    -0.083 Cl
ENDBRANCH   7  10
BRANCH   1  20
ATOM     18  C   UNL     1       0.391  -0.091  -0.360  0.00  0.00    +0.162 A 
ATOM     19  C   UNL     1       0.235   1.261  -0.124  0.00  0.00    +0.057 A 
ATOM     20  C   UNL     1       1.335   2.119  -0.240  0.00  0.00    -0.020 A 
ATOM     21  C   UNL     1       2.587   1.602  -0.595  0.00  0.00    +0.012 A 
ATOM     22  C   UNL     1       2.733   0.253  -0.828  0.00  0.00    +0.050 A 
ATOM     23  C   UNL     1       1.641  -0.598  -0.713  0.00  0.00    +0.163 A 
BRANCH  18  25
ATOM     24  C   UNL     1      -1.926  -0.340   0.115  0.00  0.00    +0.277 C 
ATOM     25  O   UNL     1      -0.675  -0.928  -0.249  0.00  0.00    -0.491 OA
ENDBRANCH  18  25
BRANCH  23  26
ATOM     26  O   UNL     1       1.792  -1.928  -0.945  0.00  0.00    -0.477 OA
BRANCH  26  27
ATOM     27  C   UNL     1       3.099  -2.381  -1.302  0.00  0.00    +0.354 C 
BRANCH  27  28
ATOM     28  C   UNL     1       3.073  -3.872  -1.519  0.00  0.00    +0.393 C 
ATOM     29  O   UNL     1       2.040  -4.484  -1.382  0.00  0.00    -0.243 OA
ATOM     30  O   UNL     1       4.197  -4.519  -1.864  0.00  0.00    -0.243 OA
ENDBRANCH  27  28
ENDBRANCH  26  27
ENDBRANCH  23  26
ENDBRANCH   1  20
TORSDOF 6
