REMARK  Name = ZINC13065082
REMARK  13 active torsions:
REMARK  status: ('A' for Active; 'I' for Inactive)
REMARK    1  A    between atoms: C_1  and  C_2
REMARK    2  A    between atoms: C_2  and  C_3
REMARK    3  A    between atoms: C_3  and  C_5
REMARK    4  A    between atoms: C_3  and  N_73
REMARK    5  A    between atoms: N_9  and  C_10
REMARK    6  A    between atoms: C_10  and  C_11
REMARK    7  A    between atoms: C_14  and  O_17
REMARK    8  A    between atoms: O_17  and  C_18
REMARK    9  A    between atoms: C_19  and  C_20
REMARK   10  A    between atoms: C_19  and  N_73
REMARK   11  A    between atoms: C_25  and  C_33
REMARK   12  A    between atoms: C_26  and  C_32
REMARK   13  A    between atoms: C_34  and  N_73
REMARK                            x       y       z     vdW  Elec       q    Type
REMARK                         _______ _______ _______ _____ _____    ______ ____
ROOT
ATOM      1  N   UNL     1      -1.150   0.753   2.340  0.00  0.00    +0.391 N 
ATOM      2  H   UNL     1      -1.216   1.421   3.117  0.00  0.00    -0.080 HD
ENDROOT
BRANCH   1   3
ATOM      3  C   UNL     1      -0.089   1.198   1.413  0.00  0.00    -0.067 C 
ATOM      4  C   UNL     1      -0.537   2.475   0.659  0.00  0.00    -0.015 C 
ATOM      5  C   UNL     1       0.810   3.134   0.271  0.00  0.00    -0.002 C 
ATOM      6  C   UNL     1       1.721   2.878   1.489  0.00  0.00    -0.002 C 
ATOM      7  C   UNL     1       1.149   1.648   2.215  0.00  0.00    -0.015 C 
ENDBRANCH   1   3
BRANCH   1   8
ATOM      8  C   UNL     1      -2.449   0.706   1.636  0.00  0.00    +0.003 C 
BRANCH   8   9
ATOM      9  C   UNL     1      -2.380  -0.234   0.461  0.00  0.00    +0.138 A 
ATOM     10  N   UNL     1      -1.550  -1.237   0.309  0.00  0.00    -0.115 NA
ATOM     11  N   UNL     1      -1.805  -1.797  -0.823  0.00  0.00    -0.023 NA
ATOM     12  N   UNL     1      -2.777  -1.178  -1.397  0.00  0.00    -0.044 NA
ATOM     13  N   UNL     1      -3.162  -0.211  -0.634  0.00  0.00    -0.226 N 
BRANCH  13  14
ATOM     14  C   UNL     1      -4.245   0.736  -0.910  0.00  0.00    +0.182 C 
BRANCH  14  15
ATOM     15  C   UNL     1      -3.721   1.864  -1.762  0.00  0.00    -0.026 A 
ATOM     16  C   UNL     1      -3.299   3.039  -1.169  0.00  0.00    +0.009 A 
ATOM     17  C   UNL     1      -2.813   4.072  -1.947  0.00  0.00    +0.046 A 
ATOM     18  C   UNL     1      -2.760   3.933  -3.326  0.00  0.00    +0.120 A 
ATOM     19  C   UNL     1      -3.190   2.755  -3.920  0.00  0.00    +0.046 A 
ATOM     20  C   UNL     1      -3.670   1.723  -3.137  0.00  0.00    +0.009 A 
BRANCH  18  21
ATOM     21  O   UNL     1      -2.287   4.949  -4.095  0.00  0.00    -0.495 OA
ATOM     22  C   UNL     1      -1.862   6.133  -3.416  0.00  0.00    +0.277 C 
ENDBRANCH  18  21
ENDBRANCH  14  15
ENDBRANCH  13  14
ENDBRANCH   8   9
BRANCH   8  24
ATOM     23  C   UNL     1      -3.597   1.180   3.804  0.00  0.00    +0.002 C 
ATOM     24  C   UNL     1      -3.526   0.225   2.611  0.00  0.00    -0.011 C 
ENDBRANCH   8  24
ENDBRANCH   1   8
BRANCH   1  25
ATOM     25  C   UNL     1      -0.820  -0.583   2.881  0.00  0.00    -0.036 C 
BRANCH  25  26
ATOM     26  C   UNL     1       0.209  -0.421   3.970  0.00  0.00    +0.001 A 
ATOM     27  C   UNL     1      -0.163   0.044   5.188  0.00  0.00    +0.017 A 
ATOM     28  C   UNL     1       0.861   0.190   6.224  0.00  0.00    -0.001 A 
ATOM     29  C   UNL     1       0.537   0.664   7.499  0.00  0.00    +0.010 A 
ATOM     30  C   UNL     1       1.516   0.788   8.444  0.00  0.00    +0.004 A 
ATOM     31  C   UNL     1       2.829   0.446   8.150  0.00  0.00    -0.046 A 
ATOM     32  C   UNL     1       3.171  -0.023   6.900  0.00  0.00    -0.024 A 
ATOM     33  C   UNL     1       2.191  -0.158   5.922  0.00  0.00    +0.052 A 
ATOM     34  N   UNL     1       2.504  -0.626   4.664  0.00  0.00    -0.322 N 
ATOM     35  H   UNL     1       3.421  -0.865   4.457  0.00  0.00    +0.169 HD
ATOM     36  C   UNL     1       1.556  -0.761   3.720  0.00  0.00    +0.251 A 
ATOM     37  O   UNL     1       1.868  -1.183   2.620  0.00  0.00    -0.268 OA
ATOM     38  C   UNL     1       4.600  -0.389   6.595  0.00  0.00    +0.046 C 
ATOM     39  C   UNL     1       3.892   0.591   9.209  0.00  0.00    +0.044 C 
ENDBRANCH  25  26
ENDBRANCH   1  25
TORSDOF 9
