REMARK  Name = ZINC35004625
REMARK  9 active torsions:
REMARK  status: ('A' for Active; 'I' for Inactive)
REMARK    1  A    between atoms: C_1  and  C_2
REMARK    2  A    between atoms: C_2  and  C_3
REMARK    3  A    between atoms: C_3  and  C_5
REMARK    4  A    between atoms: C_3  and  C_6
REMARK    5  A    between atoms: C_6  and  C_8
REMARK    6  A    between atoms: C_6  and  N_27
REMARK    7  A    between atoms: C_14  and  C_17
REMARK    8  A    between atoms: N_20  and  C_21
REMARK    9  A    between atoms: N_30  and  C_31
REMARK                            x       y       z     vdW  Elec       q    Type
REMARK                         _______ _______ _______ _____ _____    ______ ____
ROOT
ATOM      1  C   UNL     1      -0.404  -0.028  -2.938  0.00  0.00    +0.163 C 
ENDROOT
BRANCH   1   2
ATOM      2  C   UNL     1      -0.584   1.461  -3.083  0.00  0.00    +0.236 C 
ATOM      3  O   UNL     1      -0.037   2.052  -3.990  0.00  0.00    -0.274 OA
ATOM      4  N   UNL     1      -1.354   2.136  -2.207  0.00  0.00    -0.297 N 
ATOM      5  C   UNL     1      -1.927   1.456  -1.036  0.00  0.00    +0.127 C 
ATOM      6  C   UNL     1      -3.447   1.659  -1.047  0.00  0.00    +0.128 C 
ATOM      7  N   UNL     1      -3.728   3.088  -1.243  0.00  0.00    -0.280 N 
ATOM      8  C   UNL     1      -3.155   3.768  -2.413  0.00  0.00    +0.092 C 
ATOM      9  C   UNL     1      -1.630   3.566  -2.400  0.00  0.00    +0.130 C 
ATOM     10  C   UNL     1      -3.748   3.175  -3.693  0.00  0.00    +0.030 C 
ATOM     11  C   UNL     1      -4.497   3.763  -0.366  0.00  0.00    +0.303 C 
ATOM     12  O   UNL     1      -4.802   4.919  -0.589  0.00  0.00    -0.253 OA
ATOM     13  N   UNL     1      -4.930   3.157   0.757  0.00  0.00    -0.296 N 
ATOM     14  H   UNL     1      -4.626   2.261   0.972  0.00  0.00    +0.151 HD
BRANCH  13  15
ATOM     15  C   UNL     1      -5.857   3.850   1.654  0.00  0.00    +0.074 C 
ATOM     16  C   UNL     1      -5.067   4.742   2.614  0.00  0.00    +0.022 C 
ATOM     17  C   UNL     1      -6.036   5.467   3.551  0.00  0.00    +0.002 C 
ATOM     18  C   UNL     1      -6.837   4.438   4.351  0.00  0.00    +0.000 C 
ATOM     19  C   UNL     1      -7.627   3.546   3.391  0.00  0.00    +0.002 C 
ATOM     20  C   UNL     1      -6.658   2.822   2.454  0.00  0.00    +0.022 C 
ENDBRANCH  13  15
ENDBRANCH   1   2
BRANCH   1  21
ATOM     21  N   UNL     1      -0.063  -0.609  -4.239  0.00  0.00    -0.288 N 
ATOM     22  C   UNL     1      -0.339  -1.903  -4.492  0.00  0.00    +0.305 C 
ATOM     23  O   UNL     1      -0.870  -2.590  -3.641  0.00  0.00    -0.252 OA
ATOM     24  N   UNL     1      -0.025  -2.437  -5.689  0.00  0.00    -0.268 N 
ATOM     25  H   UNL     1       0.361  -0.061  -4.918  0.00  0.00    +0.151 HD
ATOM     26  H   UNL     1       0.466  -1.913  -6.341  0.00  0.00    +0.156 HD
BRANCH  24  27
ATOM     27  C   UNL     1      -0.408  -3.750  -5.992  0.00  0.00    +0.053 A 
ATOM     28  C   UNL     1      -1.589  -4.267  -5.477  0.00  0.00    +0.026 A 
ATOM     29  C   UNL     1      -1.964  -5.561  -5.777  0.00  0.00    +0.022 A 
ATOM     30  C   UNL     1      -1.165  -6.344  -6.592  0.00  0.00    +0.042 A 
ATOM     31  C   UNL     1       0.013  -5.833  -7.107  0.00  0.00    +0.041 A 
ATOM     32  C   UNL     1       0.390  -4.536  -6.814  0.00  0.00    +0.064 A 
ATOM     33 CL   UNL     1       1.864  -3.891  -7.468  0.00  0.00    -0.082 Cl
ATOM     34 CL   UNL     1      -1.641  -7.971  -6.967  0.00  0.00    -0.083 Cl
ENDBRANCH  24  27
ENDBRANCH   1  21
BRANCH   1  35
ATOM     35  C   UNL     1       0.723  -0.311  -1.942  0.00  0.00    +0.015 C 
ATOM     36  C   UNL     1       2.052   0.172  -2.526  0.00  0.00    +0.010 C 
BRANCH  35  38
ATOM     37  C   UNL     1      -0.484  -2.277  -0.983  0.00  0.00    +0.004 C 
ATOM     38  C   UNL     1       0.801  -1.815  -1.673  0.00  0.00    +0.002 C 
ENDBRANCH  35  38
ENDBRANCH   1  35
TORSDOF 6
