REMARK  Name = ZINC20205696
REMARK  8 active torsions:
REMARK  status: ('A' for Active; 'I' for Inactive)
REMARK    1  A    between atoms: C_1  and  C_2
REMARK    2  A    between atoms: C_2  and  O_3
REMARK    3  A    between atoms: O_3  and  C_4
REMARK    4  A    between atoms: C_4  and  C_6
REMARK    5  A    between atoms: C_7  and  C_12
REMARK    6  A    between atoms: C_12  and  N_13
REMARK    7  A    between atoms: C_17  and  C_20
REMARK    8  A    between atoms: C_20  and  C_21
REMARK                            x       y       z     vdW  Elec       q    Type
REMARK                         _______ _______ _______ _____ _____    ______ ____
ROOT
ATOM      1  N   UNL     1      -1.712  -5.186   1.369  0.00  0.00    -0.293 NA
ATOM      2  C   UNL     1      -0.879  -4.059   1.814  0.00  0.00    +0.113 C 
ATOM      3  C   UNL     1      -0.421  -4.309   3.254  0.00  0.00    +0.175 C 
ATOM      4  O   UNL     1       0.276  -5.555   3.318  0.00  0.00    -0.374 OA
ATOM      5  C   UNL     1      -0.505  -6.675   2.891  0.00  0.00    +0.137 C 
ATOM      6  C   UNL     1      -0.964  -6.450   1.448  0.00  0.00    +0.116 C 
ENDROOT
BRANCH   1   7
ATOM      7  C   UNL     1      -2.220  -4.960   0.009  0.00  0.00    +0.123 C 
BRANCH   7   9
ATOM      8  C   UNL     1      -2.853  -2.419   0.016  0.00  0.00    +0.173 A 
ATOM      9  C   UNL     1      -3.178  -3.797   0.018  0.00  0.00    +0.018 A 
ATOM     10  C   UNL     1      -4.530  -3.849   0.029  0.00  0.00    +0.110 A 
ATOM     11  N   UNL     1      -4.980  -2.576   0.034  0.00  0.00    -0.284 N 
ATOM     12  H   UNL     1      -5.915  -2.319   0.042  0.00  0.00    +0.188 HD
ATOM     13  N   UNL     1      -3.992  -1.756   0.031  0.00  0.00    -0.167 NA
BRANCH   8  14
ATOM     14  C   UNL     1      -1.497  -1.837   0.006  0.00  0.00    +0.360 C 
ATOM     15  O   UNL     1      -0.524  -2.563  -0.007  0.00  0.00    -0.243 OA
BRANCH  14  16
ATOM     16  O   UNL     1      -1.339  -0.499   0.012  0.00  0.00    -0.460 OA
BRANCH  16  18
ATOM     17  C   UNL     1      -0.019   1.526   0.010  0.00  0.00    +0.048 C 
ATOM     18  C   UNL     1       0.002  -0.004   0.002  0.00  0.00    +0.229 C 
ENDBRANCH  16  18
ENDBRANCH  14  16
ENDBRANCH   8  14
ENDBRANCH   7   9
ENDBRANCH   1   7
BRANCH   5  19
ATOM     19  C   UNL     1       0.341  -7.947   2.967  0.00  0.00    +0.068 C 
BRANCH  19  20
ATOM     20  C   UNL     1       0.694  -8.232   4.404  0.00  0.00    -0.037 A 
ATOM     21  C   UNL     1       1.877  -7.798   4.917  0.00  0.00    +0.004 A 
ATOM     22  C   UNL     1       2.220  -8.052   6.243  0.00  0.00    +0.001 A 
ATOM     23  C   UNL     1       1.382  -8.741   7.065  0.00  0.00    +0.008 A 
ATOM     24  C   UNL     1       0.151  -9.205   6.571  0.00  0.00    -0.018 A 
ATOM     25  C   UNL     1      -0.201  -8.941   5.223  0.00  0.00    -0.015 A 
ATOM     26  C   UNL     1      -1.435  -9.400   4.731  0.00  0.00    +0.009 A 
ATOM     27  C   UNL     1      -2.276 -10.084   5.553  0.00  0.00    +0.001 A 
ATOM     28  C   UNL     1      -1.933 -10.337   6.880  0.00  0.00    +0.001 A 
ATOM     29  C   UNL     1      -0.741  -9.920   7.388  0.00  0.00    +0.008 A 
ENDBRANCH  19  20
ENDBRANCH   5  19
TORSDOF 7
