REMARK  Name = ZINC29396366
REMARK  11 active torsions:
REMARK  status: ('A' for Active; 'I' for Inactive)
REMARK    1  A    between atoms: C_1  and  C_2
REMARK    2  A    between atoms: C_2  and  C_3
REMARK    3  A    between atoms: C_2  and  C_4
REMARK    4  A    between atoms: C_2  and  O_5
REMARK    5  A    between atoms: O_5  and  C_6
REMARK    6  A    between atoms: N_8  and  C_9
REMARK    7  A    between atoms: N_12  and  C_15
REMARK    8  A    between atoms: C_15  and  C_16
REMARK    9  A    between atoms: N_18  and  C_19
REMARK   10  A    between atoms: C_29  and  C_31
REMARK   11  A    between atoms: C_31  and  C_32
REMARK                            x       y       z     vdW  Elec       q    Type
REMARK                         _______ _______ _______ _____ _____    ______ ____
ROOT
ATOM      1  C   UNL     1      -4.918   2.297  -2.312  0.00  0.00    +0.197 C 
ATOM      2  O   UNL     1      -5.962   2.228  -1.698  0.00  0.00    -0.278 OA
ATOM      3  N   UNL     1      -3.751   2.048  -1.688  0.00  0.00    -0.313 N 
ATOM      4  H   UNL     1      -2.804   2.110  -2.245  0.00  0.00    +0.149 HD
ENDROOT
BRANCH   3   5
ATOM      5  C   UNL     1      -3.741   1.694  -0.266  0.00  0.00    +0.081 C 
ATOM      6  C   UNL     1      -3.751   2.971   0.584  0.00  0.00    +0.027 C 
ATOM      7  C   UNL     1      -2.654   3.901   0.069  0.00  0.00    +0.037 C 
ATOM      8  C   UNL     1      -1.342   3.168  -0.029  0.00  0.00    -0.041 A 
ATOM      9  C   UNL     1      -0.182   3.928  -0.114  0.00  0.00    +0.042 A 
ATOM     10  C   UNL     1       1.052   3.316  -0.213  0.00  0.00    +0.124 A 
ATOM     11  C   UNL     1       1.134   1.933  -0.231  0.00  0.00    +0.038 A 
ATOM     12  C   UNL     1      -0.018   1.179  -0.146  0.00  0.00    +0.007 A 
ATOM     13  C   UNL     1      -1.260   1.794  -0.048  0.00  0.00    -0.039 A 
ATOM     14  C   UNL     1      -2.473   0.908   0.061  0.00  0.00    +0.044 C 
ATOM     15  F   UNL     1       2.175   4.062  -0.294  0.00  0.00    -0.205 F 
BRANCH  14  16
ATOM     16  C   UNL     1      -2.334  -0.256  -0.922  0.00  0.00    +0.046 C 
BRANCH  16  17
ATOM     17  C   UNL     1      -3.462  -1.232  -0.709  0.00  0.00    -0.029 A 
ATOM     18  C   UNL     1      -3.369  -2.209   0.271  0.00  0.00    +0.006 A 
ATOM     19  C   UNL     1      -4.433  -3.083   0.435  0.00  0.00    +0.020 A 
ATOM     20  C   UNL     1      -5.539  -2.957  -0.384  0.00  0.00    +0.111 A 
ATOM     21  N   UNL     1      -5.591  -2.019  -1.309  0.00  0.00    -0.263 NA
ATOM     22  C   UNL     1      -4.600  -1.168  -1.490  0.00  0.00    +0.114 A 
ENDBRANCH  16  17
ENDBRANCH  14  16
ENDBRANCH   3   5
BRANCH   1  23
ATOM     23  C   UNL     1      -4.928   2.660  -3.775  0.00  0.00    +0.019 C 
BRANCH  23  27
ATOM     24  C   UNL     1      -8.649   2.545  -5.878  0.00  0.00    +0.073 C 
ATOM     25  C   UNL     1      -7.793   3.814  -5.929  0.00  0.00    +0.004 C 
ATOM     26  C   UNL     1      -6.349   3.464  -5.562  0.00  0.00    -0.076 C 
ATOM     27  N   UNL     1      -6.312   2.881  -4.215  0.00  0.00    +0.385 N 
ATOM     28  C   UNL     1      -7.089   1.636  -4.154  0.00  0.00    -0.076 C 
ATOM     29  C   UNL     1      -8.555   1.931  -4.479  0.00  0.00    +0.004 C 
ATOM     30  H   UNL     1      -6.777   3.600  -3.526  0.00  0.00    -0.081 HD
BRANCH  24  33
ATOM     31  C   UNL     1     -10.873   1.948  -6.674  0.00  0.00    +0.401 C 
ATOM     32  O   UNL     1     -10.464   0.823  -6.885  0.00  0.00    -0.226 OA
ATOM     33  N   UNL     1     -10.044   2.884  -6.171  0.00  0.00    -0.278 N 
ATOM     34  H   UNL     1     -10.414   3.902  -5.981  0.00  0.00    +0.152 HD
BRANCH  31  35
ATOM     35  O   UNL     1     -12.155   2.259  -6.944  0.00  0.00    -0.445 OA
BRANCH  35  37
ATOM     36  C   UNL     1     -13.050   0.041  -6.489  0.00  0.00    +0.055 C 
ATOM     37  C   UNL     1     -12.991   1.202  -7.484  0.00  0.00    +0.107 C 
ATOM     38  C   UNL     1     -14.403   1.740  -7.724  0.00  0.00    +0.055 C 
ATOM     39  C   UNL     1     -12.400   0.710  -8.807  0.00  0.00    +0.055 C 
ENDBRANCH  35  37
ENDBRANCH  31  35
ENDBRANCH  24  33
ENDBRANCH  23  27
ENDBRANCH   1  23
TORSDOF 8
