REMARK  Name = ZINC03110000
REMARK  5 active torsions:
REMARK  status: ('A' for Active; 'I' for Inactive)
REMARK    1  A    between atoms: C_1  and  N_2
REMARK    2  A    between atoms: C_11  and  C_12
REMARK    3  A    between atoms: N_13  and  N_14
REMARK    4  A    between atoms: C_17  and  C_27
REMARK    5  A    between atoms: C_19  and  C_21
REMARK                            x       y       z     vdW  Elec       q    Type
REMARK                         _______ _______ _______ _____ _____    ______ ____
ROOT
ATOM      1  N   UNL     1       5.656  -0.413  -0.065  0.00  0.00    -0.205 N 
ATOM      2  C   UNL     1       6.339  -1.620  -0.082  0.00  0.00    +0.236 A 
ATOM      3  N   UNL     1       5.649  -2.750  -0.077  0.00  0.00    -0.213 NA
ATOM      4  C   UNL     1       6.269  -3.928  -0.098  0.00  0.00    +0.077 A 
ATOM      5  C   UNL     1       7.664  -3.960  -0.114  0.00  0.00    +0.057 A 
ATOM      6  C   UNL     1       8.354  -2.748  -0.113  0.00  0.00    +0.077 A 
ATOM      7  N   UNL     1       7.663  -1.610  -0.097  0.00  0.00    -0.213 NA
ATOM      8  H   UNL     1       6.148   0.423  -0.065  0.00  0.00    +0.177 HD
ENDROOT
BRANCH   6   9
ATOM      9  C   UNL     1       9.837  -2.727  -0.129  0.00  0.00    +0.001 A 
ATOM     10  C   UNL     1      10.554  -3.922  -0.140  0.00  0.00    +0.010 A 
ATOM     11  C   UNL     1      11.934  -3.896  -0.161  0.00  0.00    +0.001 A 
ATOM     12  C   UNL     1      12.605  -2.687  -0.159  0.00  0.00    +0.000 A 
ATOM     13  C   UNL     1      11.899  -1.498  -0.142  0.00  0.00    +0.001 A 
ATOM     14  C   UNL     1      10.520  -1.511  -0.127  0.00  0.00    +0.010 A 
ENDBRANCH   6   9
BRANCH   4  15
ATOM     15  C   UNL     1       5.488  -5.189  -0.099  0.00  0.00    +0.001 A 
ATOM     16  C   UNL     1       6.144  -6.418  -0.121  0.00  0.00    +0.010 A 
ATOM     17  C   UNL     1       5.412  -7.588  -0.117  0.00  0.00    +0.001 A 
ATOM     18  C   UNL     1       4.029  -7.542  -0.101  0.00  0.00    +0.000 A 
ATOM     19  C   UNL     1       3.373  -6.325  -0.084  0.00  0.00    +0.001 A 
ATOM     20  C   UNL     1       4.095  -5.149  -0.083  0.00  0.00    +0.010 A 
ENDBRANCH   4  15
BRANCH   1  22
ATOM     21  C   UNL     1       3.615   0.730  -0.034  0.00  0.00    +0.171 C 
ATOM     22  N   UNL     1       4.255  -0.402  -0.049  0.00  0.00    -0.185 NA
BRANCH  21  31
ATOM     23  C   UNL     1       1.952   3.262   0.004  0.00  0.00    +0.131 C 
ATOM     24  N   UNL     1       1.409   1.901  -0.001  0.00  0.00    -0.310 N 
ATOM     25  C   UNL     1      -0.019   1.545   0.011  0.00  0.00    +0.124 C 
ATOM     26  C   UNL     1      -0.623   2.212   1.225  0.00  0.00    -0.002 C 
ATOM     27  C   UNL     1      -1.106   1.475   2.212  0.00  0.00    -0.003 C 
ATOM     28  C   UNL     1      -1.093   0.013   2.201  0.00  0.00    -0.002 C 
ATOM     29  C   UNL     1      -0.593  -0.700   1.205  0.00  0.00    -0.001 C 
ATOM     30  C   UNL     1       0.002  -0.004   0.002  0.00  0.00    +0.128 C 
ATOM     31  C   UNL     1       2.146   0.742  -0.017  0.00  0.00    +0.116 C 
ATOM     32  N   UNL     1       1.434  -0.344  -0.017  0.00  0.00    -0.363 N 
ATOM     33  H   UNL     1       1.813  -1.298  -0.027  0.00  0.00    +0.162 HD
ENDBRANCH  21  31
ENDBRANCH   1  22
TORSDOF 4
