REMARK  Name = ZINC60343168
REMARK  13 active torsions:
REMARK  status: ('A' for Active; 'I' for Inactive)
REMARK    1  A    between atoms: C_1  and  C_2
REMARK    2  A    between atoms: C_2  and  C_4
REMARK    3  A    between atoms: C_2  and  N_27
REMARK    4  A    between atoms: N_10  and  C_11
REMARK    5  A    between atoms: C_11  and  C_12
REMARK    6  A    between atoms: C_12  and  C_13
REMARK    7  A    between atoms: N_15  and  C_16
REMARK    8  A    between atoms: C_17  and  C_25
REMARK    9  A    between atoms: C_28  and  O_30
REMARK   10  A    between atoms: O_30  and  C_31
REMARK   11  A    between atoms: C_31  and  C_32
REMARK   12  A    between atoms: C_31  and  C_33
REMARK   13  A    between atoms: C_31  and  C_34
REMARK                            x       y       z     vdW  Elec       q    Type
REMARK                         _______ _______ _______ _____ _____    ______ ____
ROOT
ATOM      1  C   UNL     1      -1.433  -0.534   0.013  0.00  0.00    -0.048 C 
ATOM      2  C   UNL     1      -2.109  -0.146   1.330  0.00  0.00    -0.014 C 
ATOM      3  C   UNL     1      -3.545  -0.678   1.336  0.00  0.00    -0.003 C 
ATOM      4  C   UNL     1      -4.289  -0.126   0.117  0.00  0.00    -0.019 C 
ATOM      5  C   UNL     1      -3.533  -0.514  -1.155  0.00  0.00    -0.078 C 
ATOM      6  N   UNL     1      -2.177   0.047  -1.112  0.00  0.00    +0.383 N 
ATOM      7  H   UNL     1      -2.231   1.048  -0.997  0.00  0.00    -0.081 HD
ENDROOT
BRANCH   1   9
ATOM      8  C   UNL     1      -0.019   1.526   0.010  0.00  0.00    +0.026 C 
ATOM      9  C   UNL     1       0.002  -0.004   0.002  0.00  0.00    +0.060 C 
BRANCH   9  10
ATOM     10  N   UNL     1       0.711  -0.489   1.189  0.00  0.00    -0.280 N 
ATOM     11  C   UNL     1       2.054  -0.600   1.174  0.00  0.00    +0.401 C 
ATOM     12  O   UNL     1       2.677  -0.297   0.175  0.00  0.00    -0.226 OA
ATOM     13  H   UNL     1       0.213  -0.731   1.986  0.00  0.00    +0.152 HD
BRANCH  11  14
ATOM     14  O   UNL     1       2.705  -1.046   2.264  0.00  0.00    -0.445 OA
BRANCH  14  15
ATOM     15  C   UNL     1       4.128  -1.138   2.178  0.00  0.00    +0.107 C 
ATOM     16  C   UNL     1       4.712   0.247   1.888  0.00  0.00    +0.055 C 
ATOM     17  C   UNL     1       4.687  -1.659   3.503  0.00  0.00    +0.055 C 
ATOM     18  C   UNL     1       4.510  -2.098   1.050  0.00  0.00    +0.055 C 
ENDBRANCH  14  15
ENDBRANCH  11  14
ENDBRANCH   9  10
ENDBRANCH   1   9
BRANCH   6  19
ATOM     19  C   UNL     1      -1.481  -0.262  -2.368  0.00  0.00    -0.069 C 
BRANCH  19  20
ATOM     20  C   UNL     1      -2.185   0.447  -3.528  0.00  0.00    +0.077 C 
BRANCH  20  21
ATOM     21  C   UNL     1      -1.471   0.130  -4.817  0.00  0.00    +0.216 C 
ATOM     22  O   UNL     1      -0.496  -0.591  -4.809  0.00  0.00    -0.276 OA
ATOM     23  N   UNL     1      -1.917   0.648  -5.978  0.00  0.00    -0.279 N 
ATOM     24  H   UNL     1      -2.697   1.225  -5.985  0.00  0.00    +0.155 HD
BRANCH  23  25
ATOM     25  C   UNL     1      -1.260   0.356  -7.166  0.00  0.00    +0.090 A 
ATOM     26  C   UNL     1      -1.569   0.800  -8.441  0.00  0.00    +0.084 A 
ATOM     27  C   UNL     1      -0.717   0.347  -9.527  0.00  0.00    -0.018 A 
ATOM     28  C   UNL     1       0.288  -0.467  -9.137  0.00  0.00    -0.004 A 
ATOM     29  S   UNL     1       0.097  -0.608  -7.385  0.00  0.00    -0.077 S 
ATOM     30  C   UNL     1       1.327  -1.096 -10.014  0.00  0.00    +0.043 C 
ATOM     31  C   UNL     1       0.859  -0.984 -11.472  0.00  0.00    +0.005 C 
ATOM     32  C   UNL     1       0.401   0.453 -11.737  0.00  0.00    +0.005 C 
ATOM     33  C   UNL     1      -0.903   0.731 -10.987  0.00  0.00    +0.037 C 
BRANCH  26  34
ATOM     34  C   UNL     1      -2.683   1.667  -8.679  0.00  0.00    +0.102 C 
ATOM     35  N   UNL     1      -3.566   2.356  -8.868  0.00  0.00    -0.191 NA
ENDBRANCH  26  34
ENDBRANCH  23  25
ENDBRANCH  20  21
ENDBRANCH  19  20
ENDBRANCH   6  19
TORSDOF 9
