REMARK  Name = ZINC01204605
REMARK  10 active torsions:
REMARK  status: ('A' for Active; 'I' for Inactive)
REMARK    1  A    between atoms: C_1  and  C_2
REMARK    2  A    between atoms: C_3  and  C_32
REMARK    3  A    between atoms: C_4  and  C_23
REMARK    4  A    between atoms: C_10  and  C_15
REMARK    5  A    between atoms: C_18  and  O_21
REMARK    6  A    between atoms: O_21  and  C_22
REMARK    7  A    between atoms: C_27  and  N_29
REMARK    8  A    between atoms: C_32  and  O_34
REMARK    9  A    between atoms: O_34  and  C_35
REMARK   10  A    between atoms: C_35  and  C_36
REMARK                            x       y       z     vdW  Elec       q    Type
REMARK                         _______ _______ _______ _____ _____    ______ ____
ROOT
ATOM      1  C   UNL     1       3.167   3.161  -0.646  0.00  0.00    +0.061 C 
ATOM      2  C   UNL     1       1.749   2.656  -0.720  0.00  0.00    +0.016 C 
ATOM      3  C   UNL     1       1.434   1.468  -0.175  0.00  0.00    +0.065 C 
ATOM      4  C   UNL     1       0.031   0.937  -0.224  0.00  0.00    +0.092 C 
ATOM      5  C   UNL     1      -0.782   1.650  -1.274  0.00  0.00    +0.024 C 
ATOM      6  C   UNL     1      -0.375   2.837  -1.773  0.00  0.00    +0.016 C 
ATOM      7  N   UNL     1       0.792   3.409  -1.342  0.00  0.00    -0.321 N 
ATOM      8  C   UNL     1      -1.193   3.565  -2.811  0.00  0.00    +0.059 C 
ATOM      9  C   UNL     1      -1.942   2.553  -3.679  0.00  0.00    +0.032 C 
ATOM     10  C   UNL     1      -2.828   1.693  -2.771  0.00  0.00    +0.088 C 
ATOM     11  C   UNL     1      -1.970   1.045  -1.719  0.00  0.00    +0.162 C 
ATOM     12  O   UNL     1      -2.311  -0.021  -1.246  0.00  0.00    -0.292 OA
ATOM     13  H   UNL     1       0.955   4.485  -1.500  0.00  0.00    +0.152 HD
ENDROOT
BRANCH   9  14
ATOM     14  C   UNL     1      -2.799   3.281  -4.681  0.00  0.00    -0.043 A 
ATOM     15  C   UNL     1      -3.780   4.152  -4.247  0.00  0.00    +0.007 A 
ATOM     16  C   UNL     1      -4.564   4.826  -5.164  0.00  0.00    +0.046 A 
ATOM     17  C   UNL     1      -4.372   4.618  -6.522  0.00  0.00    +0.120 A 
ATOM     18  C   UNL     1      -3.390   3.739  -6.956  0.00  0.00    +0.046 A 
ATOM     19  C   UNL     1      -2.606   3.073  -6.035  0.00  0.00    +0.007 A 
BRANCH  17  20
ATOM     20  O   UNL     1      -5.145   5.276  -7.427  0.00  0.00    -0.495 OA
ATOM     21  C   UNL     1      -6.136   6.165  -6.908  0.00  0.00    +0.277 C 
ENDBRANCH  17  20
ENDBRANCH   9  14
BRANCH   4  22
ATOM     22  C   UNL     1      -0.619   1.133   1.122  0.00  0.00    -0.033 A 
ATOM     23  C   UNL     1      -0.770   2.407   1.637  0.00  0.00    +0.005 A 
ATOM     24  C   UNL     1      -1.367   2.587   2.870  0.00  0.00    +0.003 A 
ATOM     25  C   UNL     1      -1.812   1.494   3.590  0.00  0.00    +0.033 A 
ATOM     26  C   UNL     1      -1.660   0.220   3.075  0.00  0.00    +0.126 A 
ATOM     27  C   UNL     1      -1.068   0.040   1.839  0.00  0.00    +0.037 A 
BRANCH  26  28
ATOM     28  N   UNL     1      -2.137  -0.951   3.845  0.00  0.00    +0.056 N 
ATOM     29  O   UNL     1      -2.663  -0.792   4.932  0.00  0.00    -0.126 OA
ATOM     30  O   UNL     1      -2.003  -2.073   3.391  0.00  0.00    -0.126 OA
ENDBRANCH  26  28
ENDBRANCH   4  22
BRANCH   3  31
ATOM     31  C   UNL     1       2.444   0.705   0.455  0.00  0.00    +0.338 C 
ATOM     32  O   UNL     1       3.605   1.063   0.395  0.00  0.00    -0.245 OA
BRANCH  31  33
ATOM     33  O   UNL     1       2.120  -0.422   1.124  0.00  0.00    -0.457 OA
BRANCH  33  34
ATOM     34  C   UNL     1       3.190  -1.144   1.736  0.00  0.00    +0.268 C 
BRANCH  34  35
ATOM     35  C   UNL     1       2.641  -2.363   2.431  0.00  0.00    -0.010 A 
ATOM     36  C   UNL     1       2.250  -2.287   3.755  0.00  0.00    +0.007 A 
ATOM     37  C   UNL     1       1.742  -3.404   4.391  0.00  0.00    +0.000 A 
ATOM     38  C   UNL     1       1.634  -4.600   3.706  0.00  0.00    +0.000 A 
ATOM     39  C   UNL     1       2.031  -4.678   2.384  0.00  0.00    +0.000 A 
ATOM     40  C   UNL     1       2.534  -3.559   1.746  0.00  0.00    +0.007 A 
ENDBRANCH  34  35
ENDBRANCH  33  34
ENDBRANCH  31  33
ENDBRANCH   3  31
TORSDOF 8
