REMARK  Name = ZINC12879459
REMARK  5 active torsions:
REMARK  status: ('A' for Active; 'I' for Inactive)
REMARK    1  A    between atoms: C_1  and  C_2
REMARK    2  A    between atoms: C_2  and  C_4
REMARK    3  A    between atoms: C_2  and  N_10
REMARK    4  A    between atoms: C_12  and  C_17
REMARK    5  A    between atoms: C_22  and  N_25
REMARK                            x       y       z     vdW  Elec       q    Type
REMARK                         _______ _______ _______ _____ _____    ______ ____
ROOT
ATOM      1  C   UNL     1       1.978   3.468  -0.981  0.00  0.00    +0.221 C 
ATOM      2  O   UNL     1       1.458   4.383  -1.585  0.00  0.00    -0.275 OA
ATOM      3  N   UNL     1       3.306   3.263  -1.080  0.00  0.00    -0.301 N 
ATOM      4  C   UNL     1       3.950   2.163  -0.350  0.00  0.00    +0.110 C 
ATOM      5  C   UNL     1       5.104   2.724   0.480  0.00  0.00    +0.044 C 
ATOM      6  C   UNL     1       6.048   3.512  -0.431  0.00  0.00    +0.095 C 
ATOM      7  C   UNL     1       5.291   4.683  -1.062  0.00  0.00    +0.044 C 
ATOM      8  C   UNL     1       4.139   4.141  -1.914  0.00  0.00    +0.110 C 
ENDROOT
BRANCH   6   9
ATOM      9  N   UNL     1       7.170   4.026   0.358  0.00  0.00    -0.289 N 
ATOM     10  C   UNL     1       8.516   3.732   0.148  0.00  0.00    +0.070 A 
ATOM     11  C   UNL     1       9.185   2.941  -0.774  0.00  0.00    +0.028 A 
ATOM     12  C   UNL     1      10.562   2.846  -0.727  0.00  0.00    +0.002 A 
ATOM     13  C   UNL     1      11.277   3.537   0.236  0.00  0.00    +0.002 A 
ATOM     14  C   UNL     1      10.620   4.327   1.159  0.00  0.00    +0.028 A 
ATOM     15  C   UNL     1       9.237   4.428   1.120  0.00  0.00    +0.067 A 
ATOM     16  N   UNL     1       8.308   5.123   1.890  0.00  0.00    -0.306 N 
ATOM     17  H   UNL     1       8.512   5.698   2.644  0.00  0.00    +0.170 HD
ATOM     18  C   UNL     1       7.078   4.867   1.405  0.00  0.00    +0.328 A 
ATOM     19  O   UNL     1       6.041   5.324   1.848  0.00  0.00    -0.247 OA
ENDBRANCH   6   9
BRANCH   1  22
ATOM     20  N   UNL     1      -1.055   1.588  -0.217  0.00  0.00    -0.294 N 
ATOM     21  C   UNL     1      -0.365   2.883  -0.278  0.00  0.00    +0.121 C 
ATOM     22  C   UNL     1       1.137   2.559  -0.122  0.00  0.00    +0.101 C 
ATOM     23  C   UNL     1       1.200   1.101  -0.631  0.00  0.00    +0.110 C 
ATOM     24  C   UNL     1      -0.199   0.570  -0.411  0.00  0.00    +0.217 C 
ATOM     25  O   UNL     1      -0.506  -0.604  -0.416  0.00  0.00    -0.276 OA
BRANCH  20  27
ATOM     26  C   UNL     1      -2.873   2.163   1.315  0.00  0.00    +0.033 C 
ATOM     27  C   UNL     1      -2.490   1.427   0.029  0.00  0.00    +0.103 C 
BRANCH  27  28
ATOM     28  C   UNL     1      -3.265   2.000  -1.128  0.00  0.00    -0.027 A 
ATOM     29  C   UNL     1      -3.039   3.302  -1.535  0.00  0.00    +0.005 A 
ATOM     30  C   UNL     1      -3.747   3.826  -2.600  0.00  0.00    +0.000 A 
ATOM     31  C   UNL     1      -4.689   3.052  -3.252  0.00  0.00    +0.000 A 
ATOM     32  C   UNL     1      -4.920   1.753  -2.841  0.00  0.00    +0.000 A 
ATOM     33  C   UNL     1      -4.208   1.227  -1.780  0.00  0.00    +0.005 A 
ENDBRANCH  27  28
ENDBRANCH  20  27
ENDBRANCH   1  22
TORSDOF 4
