REMARK  Name = ZINC39684128
REMARK  9 active torsions:
REMARK  status: ('A' for Active; 'I' for Inactive)
REMARK    1  A    between atoms: C_1  and  C_2
REMARK    2  A    between atoms: C_7  and  C_11
REMARK    3  A    between atoms: C_11  and  C_12
REMARK    4  A    between atoms: C_12  and  N_13
REMARK    5  A    between atoms: C_14  and  C_16
REMARK    6  A    between atoms: C_27  and  C_29
REMARK    7  A    between atoms: C_29  and  C_31
REMARK    8  A    between atoms: C_29  and  O_32
REMARK    9  A    between atoms: O_32  and  C_33
REMARK                            x       y       z     vdW  Elec       q    Type
REMARK                         _______ _______ _______ _____ _____    ______ ____
ROOT
ATOM      1  C   UNL     1      -8.677   1.760  -6.205  0.00  0.00    +0.100 C 
ATOM      2  C   UNL     1      -8.176   2.879  -7.145  0.00  0.00    +0.121 C 
ATOM      3  N   UNL     1      -7.804   2.177  -8.397  0.00  0.00    -0.297 N 
ATOM      4  C   UNL     1      -8.857   1.147  -8.569  0.00  0.00    +0.115 C 
ATOM      5  C   UNL     1      -9.126   0.627  -7.143  0.00  0.00    -0.004 C 
ATOM      6  C   UNL     1     -10.614   0.345  -6.956  0.00  0.00    -0.010 C 
ATOM      7  C   UNL     1     -11.025  -0.824  -7.856  0.00  0.00    -0.082 C 
ATOM      8  N   UNL     1     -10.234  -2.011  -7.511  0.00  0.00    +0.379 N 
ATOM      9  C   UNL     1      -8.813  -1.762  -7.782  0.00  0.00    -0.082 C 
ATOM     10  C   UNL     1      -8.309  -0.633  -6.878  0.00  0.00    -0.010 C 
ATOM     11  C   UNL     1      -6.748   2.420  -9.198  0.00  0.00    +0.256 C 
ATOM     12  O   UNL     1      -5.915   3.240  -8.871  0.00  0.00    -0.272 OA
ATOM     13  H   UNL     1     -10.356  -2.222  -6.531  0.00  0.00    -0.086 HD
ATOM     14  H   UNL     1     -10.548  -2.795  -8.062  0.00  0.00    -0.086 HD
ENDROOT
BRANCH   1  16
ATOM     15  N   UNL     1      -7.838   0.817  -4.077  0.00  0.00    -0.315 N 
ATOM     16  C   UNL     1      -7.561   1.288  -5.309  0.00  0.00    +0.218 C 
ATOM     17  O   UNL     1      -6.412   1.332  -5.697  0.00  0.00    -0.275 OA
ATOM     18  H   UNL     1      -8.756   0.782  -3.767  0.00  0.00    +0.149 HD
BRANCH  15  19
ATOM     19  C   UNL     1      -6.753   0.358  -3.207  0.00  0.00    +0.109 C 
BRANCH  19  20
ATOM     20  C   UNL     1      -7.335  -0.123  -1.876  0.00  0.00    +0.056 C 
BRANCH  20  27
ATOM     21  C   UNL     1      -2.600  -1.048   2.130  0.00  0.00    +0.046 C 
ATOM     22  C   UNL     1      -3.575  -0.126   1.443  0.00  0.00    -0.027 A 
ATOM     23  C   UNL     1      -3.558   1.224   1.714  0.00  0.00    +0.005 A 
ATOM     24  C   UNL     1      -4.451   2.083   1.089  0.00  0.00    +0.001 A 
ATOM     25  C   UNL     1      -5.364   1.603   0.192  0.00  0.00    +0.010 A 
ATOM     26  C   UNL     1      -5.398   0.238  -0.098  0.00  0.00    +0.003 A 
ATOM     27  C   UNL     1      -6.218  -0.595  -0.981  0.00  0.00    -0.021 A 
ATOM     28  C   UNL     1      -5.787  -1.858  -0.841  0.00  0.00    +0.087 A 
ATOM     29  N   UNL     1      -4.758  -1.903   0.060  0.00  0.00    -0.360 N 
ATOM     30  C   UNL     1      -4.491  -0.636   0.529  0.00  0.00    +0.050 A 
ATOM     31  H   UNL     1      -4.284  -2.707   0.326  0.00  0.00    +0.165 HD
ENDBRANCH  20  27
ENDBRANCH  19  20
ENDBRANCH  15  19
ENDBRANCH   1  16
BRANCH  11  32
ATOM     32  C   UNL     1      -6.601   1.674 -10.498  0.00  0.00    +0.256 C 
ATOM     33  C   UNL     1      -7.695   2.122 -11.470  0.00  0.00    +0.062 C 
BRANCH  32  34
ATOM     34  O   UNL     1      -5.319   1.952 -11.065  0.00  0.00    -0.480 OA
BRANCH  34  35
ATOM     35  C   UNL     1      -4.803   1.021 -11.910  0.00  0.00    +0.122 A 
ATOM     36  C   UNL     1      -3.513   1.165 -12.399  0.00  0.00    +0.045 A 
ATOM     37  C   UNL     1      -2.990   0.218 -13.258  0.00  0.00    +0.004 A 
ATOM     38  C   UNL     1      -3.753  -0.874 -13.631  0.00  0.00    +0.000 A 
ATOM     39  C   UNL     1      -5.040  -1.020 -13.146  0.00  0.00    +0.004 A 
ATOM     40  C   UNL     1      -5.564  -0.078 -12.282  0.00  0.00    +0.045 A 
ENDBRANCH  34  35
ENDBRANCH  32  34
ENDBRANCH  11  32
TORSDOF 7
