REMARK  Name = ZINC40727565
REMARK  10 active torsions:
REMARK  status: ('A' for Active; 'I' for Inactive)
REMARK    1  A    between atoms: C_1  and  C_2
REMARK    2  A    between atoms: C_2  and  C_3
REMARK    3  A    between atoms: C_2  and  C_4
REMARK    4  A    between atoms: C_7  and  O_10
REMARK    5  A    between atoms: O_10  and  C_11
REMARK    6  A    between atoms: C_12  and  N_26
REMARK    7  A    between atoms: C_13  and  N_17
REMARK    8  A    between atoms: N_17  and  C_18
REMARK    9  A    between atoms: N_17  and  C_19
REMARK   10  A    between atoms: N_22  and  C_25
REMARK                            x       y       z     vdW  Elec       q    Type
REMARK                         _______ _______ _______ _____ _____    ______ ____
ROOT
ATOM      1  C   UNL     1      -5.703  -2.720  -0.925  0.00  0.00    +0.246 A 
ATOM      2  C   UNL     1      -7.018  -3.173  -1.018  0.00  0.00    +0.128 A 
ATOM      3  C   UNL     1      -7.453  -3.693  -2.240  0.00  0.00    +0.149 A 
ATOM      4  N   UNL     1      -6.601  -3.735  -3.261  0.00  0.00    -0.219 NA
ATOM      5  C   UNL     1      -5.365  -3.296  -3.130  0.00  0.00    +0.227 A 
ATOM      6  N   UNL     1      -4.919  -2.794  -1.997  0.00  0.00    -0.199 NA
ENDROOT
BRANCH   2   7
ATOM      7  N   UNL     1      -7.882  -3.109   0.087  0.00  0.00    -0.351 N 
ATOM      8  H   UNL     1      -7.594  -2.670   0.902  0.00  0.00    +0.143 HD
ATOM      9  H   UNL     1      -8.766  -3.505   0.034  0.00  0.00    +0.143 HD
ENDBRANCH   2   7
BRANCH   3  10
ATOM     10  N   UNL     1      -8.753  -4.158  -2.386  0.00  0.00    -0.314 N 
ATOM     11  C   UNL     1      -9.075  -5.548  -2.054  0.00  0.00    +0.131 C 
BRANCH  10  12
ATOM     12  C   UNL     1      -9.803  -3.259  -2.872  0.00  0.00    +0.071 C 
ATOM     13  C   UNL     1     -10.910  -3.148  -1.819  0.00  0.00    +0.004 C 
ATOM     14  C   UNL     1     -12.039  -2.272  -2.365  0.00  0.00    -0.077 C 
ATOM     15  N   UNL     1     -12.584  -2.874  -3.588  0.00  0.00    +0.378 N 
ATOM     16  C   UNL     1     -11.546  -2.918  -4.626  0.00  0.00    -0.077 C 
ATOM     17  C   UNL     1     -10.398  -3.819  -4.167  0.00  0.00    +0.004 C 
ATOM     18  C   UNL     1     -13.717  -2.071  -4.065  0.00  0.00    -0.096 C 
ATOM     19  H   UNL     1     -12.898  -3.812  -3.389  0.00  0.00    -0.082 HD
ENDBRANCH  10  12
ENDBRANCH   3  10
BRANCH   1  20
ATOM     20  O   UNL     1      -5.232  -2.206   0.238  0.00  0.00    -0.436 OA
BRANCH  20  24
ATOM     21  C   UNL     1      -1.430  -0.605   0.251  0.00  0.00    -0.045 A 
ATOM     22  C   UNL     1      -2.479   0.113  -0.293  0.00  0.00    +0.007 A 
ATOM     23  C   UNL     1      -3.753  -0.421  -0.298  0.00  0.00    +0.046 A 
ATOM     24  C   UNL     1      -3.979  -1.679   0.242  0.00  0.00    +0.130 A 
ATOM     25  C   UNL     1      -2.925  -2.397   0.787  0.00  0.00    +0.046 A 
ATOM     26  C   UNL     1      -1.652  -1.861   0.786  0.00  0.00    +0.007 A 
BRANCH  21  28
ATOM     27  C   UNL     1       0.400   0.258  -1.183  0.00  0.00    +0.012 C 
ATOM     28  C   UNL     1      -0.041  -0.020   0.256  0.00  0.00    +0.013 C 
ATOM     29  C   UNL     1      -0.041   1.287   1.051  0.00  0.00    +0.012 C 
ENDBRANCH  21  28
ENDBRANCH  20  24
ENDBRANCH   1  20
TORSDOF 6
