REMARK  Name = ZINC09881632
REMARK  8 active torsions:
REMARK  status: ('A' for Active; 'I' for Inactive)
REMARK    1  A    between atoms: C_1  and  C_2
REMARK    2  A    between atoms: C_2  and  C_4
REMARK    3  A    between atoms: C_2  and  S_18
REMARK    4  A    between atoms: N_6  and  C_7
REMARK    5  A    between atoms: S_18  and  C_19
REMARK    6  A    between atoms: C_22  and  C_31
REMARK    7  A    between atoms: N_23  and  C_24
REMARK    8  A    between atoms: C_31  and  N_67
REMARK                            x       y       z     vdW  Elec       q    Type
REMARK                         _______ _______ _______ _____ _____    ______ ____
ROOT
ATOM      1  C   UNL     1       8.480   3.389   1.723  0.00  0.00    +0.197 A 
ATOM      2  N   UNL     1       8.351   3.126   3.003  0.00  0.00    -0.122 NA
ATOM      3  N   UNL     1       9.282   3.713   3.666  0.00  0.00    -0.135 NA
ATOM      4  C   UNL     1      10.052   4.387   2.859  0.00  0.00    +0.122 A 
ATOM      5  N   UNL     1       9.569   4.205   1.590  0.00  0.00    -0.276 N 
ENDROOT
BRANCH   5   6
ATOM      6  C   UNL     1      10.085   4.745   0.401  0.00  0.00    +0.050 A 
ATOM      7  C   UNL     1      11.348   4.376  -0.039  0.00  0.00    +0.029 A 
ATOM      8  C   UNL     1      11.851   4.905  -1.212  0.00  0.00    +0.040 A 
ATOM      9  C   UNL     1      11.101   5.810  -1.942  0.00  0.00    +0.124 A 
ATOM     10  C   UNL     1       9.842   6.183  -1.502  0.00  0.00    +0.040 A 
ATOM     11  C   UNL     1       9.333   5.653  -0.333  0.00  0.00    +0.029 A 
ATOM     12  F   UNL     1      11.597   6.330  -3.087  0.00  0.00    -0.205 F 
ENDBRANCH   5   6
BRANCH   1  13
ATOM     13  S   UNL     1       7.442   2.806   0.423  0.00  0.00    -0.073 S 
BRANCH  13  15
ATOM     14  C   UNL     1       5.464   2.729   2.306  0.00  0.00    +0.029 C 
ATOM     15  C   UNL     1       6.268   1.815   1.380  0.00  0.00    +0.137 C 
BRANCH  15  16
ATOM     16  C   UNL     1       5.330   1.102   0.440  0.00  0.00    +0.227 C 
ATOM     17  O   UNL     1       5.190   1.503  -0.696  0.00  0.00    -0.275 OA
ATOM     18  N   UNL     1       4.648   0.019   0.862  0.00  0.00    -0.308 N 
ATOM     19  H   UNL     1       4.761  -0.302   1.770  0.00  0.00    +0.149 HD
BRANCH  18  20
ATOM     20  C   UNL     1       3.736  -0.674  -0.052  0.00  0.00    +0.103 C 
ATOM     21  C   UNL     1       3.607  -2.134   0.377  0.00  0.00    +0.027 C 
ATOM     22  C   UNL     1       2.493  -2.785  -0.452  0.00  0.00    +0.007 C 
ATOM     23  C   UNL     1       1.155  -2.199  -0.006  0.00  0.00    +0.035 C 
ATOM     24  C   UNL     1       1.208  -0.693  -0.013  0.00  0.00    -0.042 A 
ATOM     25  C   UNL     1       2.393   0.007  -0.025  0.00  0.00    -0.024 A 
ATOM     26  C   UNL     1       2.372   1.395  -0.015  0.00  0.00    +0.006 A 
ATOM     27  C   UNL     1       1.174   2.078   0.002  0.00  0.00    +0.000 A 
ATOM     28  C   UNL     1      -0.017   1.375   0.010  0.00  0.00    +0.000 A 
ATOM     29  C   UNL     1       0.002  -0.004   0.002  0.00  0.00    +0.004 A 
ENDBRANCH  18  20
ENDBRANCH  15  16
ENDBRANCH  13  15
ENDBRANCH   1  13
BRANCH   4  30
ATOM     30  C   UNL     1      11.251   5.212   3.249  0.00  0.00    -0.001 C 
BRANCH  30  36
ATOM     31  C   UNL     1      10.328   7.243   2.309  0.00  0.00    -0.078 C 
ATOM     32  C   UNL     1       9.761   8.621   2.663  0.00  0.00    -0.019 C 
ATOM     33  C   UNL     1      10.862   9.470   3.305  0.00  0.00    -0.004 C 
ATOM     34  C   UNL     1      11.398   8.745   4.543  0.00  0.00    -0.019 C 
ATOM     35  C   UNL     1      11.916   7.365   4.135  0.00  0.00    -0.078 C 
ATOM     36  N   UNL     1      10.804   6.589   3.546  0.00  0.00    +0.384 N 
ATOM     37  H   UNL     1      10.031   6.550   4.221  0.00  0.00    -0.081 HD
ENDBRANCH  30  36
ENDBRANCH   4  30
TORSDOF 7
