REMARK  Name = ZINC63533207
REMARK  6 active torsions:
REMARK  status: ('A' for Active; 'I' for Inactive)
REMARK    1  A    between atoms: C_2  and  N_7
REMARK    2  A    between atoms: C_8  and  C_10
REMARK    3  A    between atoms: C_10  and  N_11
REMARK    4  A    between atoms: C_12  and  C_14
REMARK    5  A    between atoms: C_14  and  N_15
REMARK    6  A    between atoms: C_16  and  C_18
REMARK                            x       y       z     vdW  Elec       q    Type
REMARK                         _______ _______ _______ _____ _____    ______ ____
ROOT
ATOM      1  N   UNL     1       4.941   4.888  -0.019  0.00  0.00    -0.305 N 
ATOM      2  C   UNL     1       5.580   6.075  -0.020  0.00  0.00    +0.231 C 
ATOM      3  O   UNL     1       4.942   7.106  -0.008  0.00  0.00    -0.274 OA
ATOM      4  H   UNL     1       5.452   4.063  -0.029  0.00  0.00    +0.149 HD
ENDROOT
BRANCH   1   5
ATOM      5  C   UNL     1       3.477   4.843  -0.006  0.00  0.00    +0.200 C 
BRANCH   5   7
ATOM      6  N   UNL     1       1.701   3.122   0.002  0.00  0.00    -0.282 N 
ATOM      7  C   UNL     1       3.018   3.408  -0.009  0.00  0.00    +0.234 C 
ATOM      8  O   UNL     1       3.834   2.510  -0.021  0.00  0.00    -0.274 OA
ATOM      9  H   UNL     1       1.049   3.840   0.012  0.00  0.00    +0.155 HD
BRANCH   6  11
ATOM     10  C   UNL     1      -0.016   1.354   0.009  0.00  0.00    +0.128 A 
ATOM     11  C   UNL     1       1.272   1.781  -0.001  0.00  0.00    +0.071 A 
ATOM     12  C   UNL     1       2.100   0.649  -0.015  0.00  0.00    +0.157 A 
ATOM     13  N   UNL     1       1.341  -0.416  -0.013  0.00  0.00    -0.180 NA
ATOM     14  N   UNL     1       0.002  -0.004   0.002  0.00  0.00    -0.283 N 
ATOM     15  H   UNL     1      -0.774  -0.586   0.006  0.00  0.00    +0.188 HD
ENDBRANCH   6  11
ENDBRANCH   5   7
ENDBRANCH   1   5
BRANCH   2  16
ATOM     16  C   UNL     1       7.086   6.120  -0.034  0.00  0.00    +0.200 C 
BRANCH  16  17
ATOM     17  N   UNL     1       7.532   7.516  -0.031  0.00  0.00    -0.306 N 
ATOM     18  C   UNL     1       8.849   7.802  -0.042  0.00  0.00    +0.220 C 
ATOM     19  O   UNL     1       9.665   6.904  -0.054  0.00  0.00    -0.275 OA
ATOM     20  H   UNL     1       6.880   8.234  -0.021  0.00  0.00    +0.149 HD
BRANCH  18  21
ATOM     21  C   UNL     1       9.309   9.237  -0.039  0.00  0.00    +0.048 C 
ATOM     22  C   UNL     1       8.765   9.949  -1.280  0.00  0.00    +0.019 C 
ATOM     23  C   UNL     1       9.231  11.406  -1.277  0.00  0.00    -0.009 C 
ATOM     24  C   UNL     1      10.761  11.453  -1.291  0.00  0.00    +0.007 C 
ATOM     25  C   UNL     1      11.304  10.741  -0.050  0.00  0.00    -0.009 C 
ATOM     26  C   UNL     1      10.838   9.284  -0.053  0.00  0.00    +0.019 C 
ATOM     27  C   UNL     1      10.784  11.440   1.208  0.00  0.00    +0.007 C 
ATOM     28  C   UNL     1       9.255  11.394   1.222  0.00  0.00    -0.009 C 
ATOM     29  C   UNL     1       8.712  12.106  -0.019  0.00  0.00    +0.007 C 
ATOM     30  C   UNL     1       8.789   9.937   1.219  0.00  0.00    +0.019 C 
ENDBRANCH  18  21
ENDBRANCH  16  17
ENDBRANCH   2  16
TORSDOF 6
