REMARK  Name = ZINC00665433
REMARK  10 active torsions:
REMARK  status: ('A' for Active; 'I' for Inactive)
REMARK    1  A    between atoms: C_1  and  C_2
REMARK    2  A    between atoms: C_2  and  O_3
REMARK    3  A    between atoms: O_3  and  C_4
REMARK    4  A    between atoms: C_4  and  C_6
REMARK    5  A    between atoms: C_7  and  C_37
REMARK    6  A    between atoms: C_14  and  C_15
REMARK    7  A    between atoms: C_16  and  C_25
REMARK    8  A    between atoms: C_27  and  C_29
REMARK    9  A    between atoms: C_34  and  O_35
REMARK   10  A    between atoms: O_35  and  C_36
REMARK                            x       y       z     vdW  Elec       q    Type
REMARK                         _______ _______ _______ _____ _____    ______ ____
ROOT
ATOM      1  C   UNL     1       1.272   1.746   0.132  0.00  0.00    +0.085 C 
ATOM      2  C   UNL     1       1.575   2.315   1.338  0.00  0.00    +0.053 C 
ATOM      3  N   UNL     1       0.651   2.424   2.284  0.00  0.00    -0.228 NA
ATOM      4  C   UNL     1      -0.587   2.019   2.165  0.00  0.00    +0.178 A 
ATOM      5  N   UNL     1      -1.101   1.420   1.036  0.00  0.00    -0.275 N 
ATOM      6  C   UNL     1      -2.387   1.051   1.046  0.00  0.00    +0.268 A 
ATOM      7  O   UNL     1      -2.881   0.518   0.068  0.00  0.00    -0.266 OA
ATOM      8  C   UNL     1      -3.170   1.287   2.207  0.00  0.00    +0.081 A 
ATOM      9  C   UNL     1      -4.482   0.999   2.438  0.00  0.00    +0.030 C 
ATOM     10  S   UNL     1      -1.974   2.062   3.284  0.00  0.00    -0.046 S 
ATOM     11  C   UNL     1      -0.139   1.250  -0.088  0.00  0.00    +0.165 C 
ATOM     12  C   UNL     1       2.971   2.821   1.595  0.00  0.00    +0.066 C 
ENDROOT
BRANCH   9  13
ATOM     13  C   UNL     1      -5.088   1.336   3.725  0.00  0.00    +0.004 A 
ATOM     14  C   UNL     1      -4.596   1.038   4.966  0.00  0.00    +0.021 A 
ATOM     15  N   UNL     1      -5.438   1.514   5.918  0.00  0.00    -0.358 N 
ATOM     16  H   UNL     1      -5.300   1.424   6.874  0.00  0.00    +0.166 HD
ATOM     17  C   UNL     1      -6.518   2.146   5.334  0.00  0.00    +0.047 A 
ATOM     18  C   UNL     1      -6.349   2.071   3.942  0.00  0.00    +0.007 A 
ATOM     19  C   UNL     1      -7.296   2.637   3.093  0.00  0.00    +0.010 A 
ATOM     20  C   UNL     1      -8.397   3.273   3.625  0.00  0.00    +0.001 A 
ATOM     21  C   UNL     1      -8.563   3.351   5.000  0.00  0.00    +0.002 A 
ATOM     22  C   UNL     1      -7.637   2.788   5.852  0.00  0.00    +0.026 A 
ATOM     23  C   UNL     1      -3.315   0.292   5.235  0.00  0.00    +0.064 C 
ENDBRANCH   9  13
BRANCH  11  24
ATOM     24  C   UNL     1      -0.700   1.966  -1.289  0.00  0.00    +0.022 A 
ATOM     25  C   UNL     1      -1.423   3.132  -1.124  0.00  0.00    +0.009 A 
ATOM     26  C   UNL     1      -1.934   3.792  -2.226  0.00  0.00    +0.001 A 
ATOM     27  C   UNL     1      -1.733   3.281  -3.495  0.00  0.00    +0.004 A 
ATOM     28  C   UNL     1      -1.015   2.114  -3.666  0.00  0.00    +0.046 A 
ATOM     29  C   UNL     1      -0.497   1.452  -2.562  0.00  0.00    +0.126 A 
BRANCH  29  30
ATOM     30  O   UNL     1       0.210   0.303  -2.726  0.00  0.00    -0.495 OA
ATOM     31  C   UNL     1       0.461  -0.117  -4.069  0.00  0.00    +0.277 C 
ENDBRANCH  29  30
ENDBRANCH  11  24
BRANCH   1  32
ATOM     32  C   UNL     1       2.244   1.627  -0.875  0.00  0.00    +0.339 C 
ATOM     33  O   UNL     1       2.798   0.559  -1.062  0.00  0.00    -0.245 OA
BRANCH  32  34
ATOM     34  O   UNL     1       2.564   2.697  -1.635  0.00  0.00    -0.462 OA
BRANCH  34  36
ATOM     35  C   UNL     1       3.627   3.766  -3.524  0.00  0.00    +0.048 C 
ATOM     36  C   UNL     1       3.480   2.479  -2.709  0.00  0.00    +0.229 C 
ENDBRANCH  34  36
ENDBRANCH  32  34
ENDBRANCH   1  32
TORSDOF 6
