REMARK  Name = ZINC09871043
REMARK  4 active torsions:
REMARK  status: ('A' for Active; 'I' for Inactive)
REMARK    1  A    between atoms: C_7  and  C_13
REMARK    2  A    between atoms: N_15  and  C_16
REMARK    3  A    between atoms: C_16  and  C_17
REMARK    4  A    between atoms: C_20  and  C_22
REMARK                            x       y       z     vdW  Elec       q    Type
REMARK                         _______ _______ _______ _____ _____    ______ ____
ROOT
ATOM      1  C   UNL     1      -1.726   2.454  -1.394  0.00  0.00    +0.221 C 
ATOM      2  O   UNL     1      -1.013   2.126  -2.319  0.00  0.00    -0.275 OA
ATOM      3  N   UNL     1      -2.874   3.120  -1.631  0.00  0.00    -0.308 N 
ATOM      4  H   UNL     1      -3.444   3.382  -0.891  0.00  0.00    +0.149 HD
ENDROOT
BRANCH   1  11
ATOM      5  C   UNL     1       1.208  -0.680  -0.013  0.00  0.00    +0.000 A 
ATOM      6  C   UNL     1       2.399   0.025  -0.020  0.00  0.00    +0.002 A 
ATOM      7  C   UNL     1       2.387   1.405  -0.013  0.00  0.00    +0.023 A 
ATOM      8  C   UNL     1       1.177   2.087   0.002  0.00  0.00    +0.037 A 
ATOM      9  C   UNL     1      -0.017   1.377   0.010  0.00  0.00    -0.014 A 
ATOM     10  C   UNL     1       0.002  -0.004   0.002  0.00  0.00    +0.006 A 
ATOM     11  C   UNL     1      -1.329   2.116   0.020  0.00  0.00    +0.115 C 
ATOM     12  C   UNL     1      -1.179   3.405   0.836  0.00  0.00    +0.113 C 
ATOM     13  C   UNL     1       0.051   4.149   0.391  0.00  0.00    +0.218 C 
ATOM     14  O   UNL     1       0.045   5.362   0.377  0.00  0.00    -0.275 OA
ATOM     15  N   UNL     1       1.157   3.485   0.009  0.00  0.00    -0.285 N 
ATOM     16  H   UNL     1       1.946   3.979  -0.263  0.00  0.00    +0.155 HD
ENDBRANCH   1  11
BRANCH   3  17
ATOM     17  C   UNL     1      -3.260   3.448  -3.006  0.00  0.00    +0.178 C 
BRANCH  17  18
ATOM     18  C   UNL     1      -4.572   4.188  -2.996  0.00  0.00    +0.123 A 
ATOM     19  C   UNL     1      -4.720   5.526  -2.909  0.00  0.00    +0.047 A 
ATOM     20  C   UNL     1      -6.101   5.793  -2.935  0.00  0.00    +0.052 A 
ATOM     21  C   UNL     1      -6.731   4.587  -3.031  0.00  0.00    +0.160 A 
ATOM     22  O   UNL     1      -5.788   3.624  -3.066  0.00  0.00    -0.456 OA
BRANCH  21  23
ATOM     23  C   UNL     1      -8.185   4.375  -3.084  0.00  0.00    +0.144 A 
ATOM     24  N   UNL     1      -8.852   3.242  -3.176  0.00  0.00    -0.236 NA
ATOM     25  C   UNL     1     -10.197   3.197  -3.216  0.00  0.00    +0.079 A 
ATOM     26  C   UNL     1     -11.031   2.057  -3.312  0.00  0.00    +0.029 A 
ATOM     27  C   UNL     1     -12.385   2.184  -3.340  0.00  0.00    +0.002 A 
ATOM     28  C   UNL     1     -13.002   3.425  -3.277  0.00  0.00    +0.001 A 
ATOM     29  C   UNL     1     -12.224   4.565  -3.184  0.00  0.00    +0.017 A 
ATOM     30  C   UNL     1     -10.856   4.448  -3.153  0.00  0.00    +0.040 A 
ATOM     31  S   UNL     1      -9.498   5.586  -3.035  0.00  0.00    -0.064 S 
ENDBRANCH  21  23
ENDBRANCH  17  18
ENDBRANCH   3  17
TORSDOF 4
