REMARK  Name = ZINC43283625
REMARK  5 active torsions:
REMARK  status: ('A' for Active; 'I' for Inactive)
REMARK    1  A    between atoms: C_8  and  S_10
REMARK    2  A    between atoms: S_10  and  C_11
REMARK    3  A    between atoms: C_11  and  C_13
REMARK    4  A    between atoms: C_11  and  C_15
REMARK    5  A    between atoms: C_13  and  N_14
REMARK                            x       y       z     vdW  Elec       q    Type
REMARK                         _______ _______ _______ _____ _____    ______ ____
ROOT
ATOM      1  C   UNL     1       5.508  -3.063  -0.219  0.00  0.00    +0.075 C 
ENDROOT
BRANCH   1   2
ATOM      2  C   UNL     1       6.301  -4.342  -0.293  0.00  0.00    +0.002 A 
ATOM      3  C   UNL     1       7.311  -4.767   0.505  0.00  0.00    +0.013 A 
ATOM      4  C   UNL     1       7.900  -5.991   0.247  0.00  0.00    +0.023 A 
ATOM      5  C   UNL     1       7.450  -6.730  -0.797  0.00  0.00    +0.055 A 
ATOM      6  S   UNL     1       6.150  -5.694  -1.449  0.00  0.00    -0.085 S 
ATOM      7 BR   UNL     1       8.040  -8.421  -1.402  0.00  0.00    -0.043 Br
ENDBRANCH   1   2
BRANCH   1   8
ATOM      8  S   UNL     1       3.753  -3.454   0.027  0.00  0.00    -0.060 S 
BRANCH   8  16
ATOM      9  C   UNL     1       0.478   1.782   1.035  0.00  0.00    +0.002 A 
ATOM     10  C   UNL     1       1.727   2.385   1.026  0.00  0.00    +0.004 A 
ATOM     11  C   UNL     1       2.867   1.631   0.829  0.00  0.00    +0.048 A 
ATOM     12  C   UNL     1       2.766   0.263   0.640  0.00  0.00    +0.156 A 
ATOM     13  C   UNL     1       1.505  -0.352   0.649  0.00  0.00    +0.110 A 
ATOM     14  C   UNL     1       0.360   0.422   0.849  0.00  0.00    +0.031 A 
ATOM     15  N   UNL     1       1.717  -1.680   0.441  0.00  0.00    -0.203 NA
ATOM     16  C   UNL     1       3.003  -1.885   0.312  0.00  0.00    +0.258 A 
ATOM     17  O   UNL     1       3.669  -0.722   0.428  0.00  0.00    -0.431 OA
ENDBRANCH   8  16
ENDBRANCH   1   8
BRANCH   1  18
ATOM     18  C   UNL     1       5.678  -2.282  -1.523  0.00  0.00    -0.066 C 
BRANCH  18  19
ATOM     19  N   UNL     1       7.077  -1.855  -1.659  0.00  0.00    +0.379 N 
ATOM     20  H   UNL     1       7.206  -1.407  -2.554  0.00  0.00    -0.090 HD
ATOM     21  H   UNL     1       7.303  -1.205  -0.922  0.00  0.00    -0.090 HD
ATOM     22  H   UNL     1       7.682  -2.660  -1.596  0.00  0.00    -0.090 HD
ENDBRANCH  18  19
ENDBRANCH   1  18
TORSDOF 5
