REMARK  Name = ZINC38683940
REMARK  13 active torsions:
REMARK  status: ('A' for Active; 'I' for Inactive)
REMARK    1  A    between atoms: C_1  and  C_2
REMARK    2  A    between atoms: C_2  and  C_3
REMARK    3  A    between atoms: C_3  and  O_4
REMARK    4  A    between atoms: O_4  and  C_5
REMARK    5  A    between atoms: C_8  and  C_14
REMARK    6  A    between atoms: C_10  and  O_11
REMARK    7  A    between atoms: O_11  and  C_12
REMARK    8  A    between atoms: C_12  and  C_13
REMARK    9  A    between atoms: C_19  and  O_28
REMARK   10  A    between atoms: C_23  and  N_27
REMARK   11  A    between atoms: C_24  and  C_25
REMARK   12  A    between atoms: O_28  and  C_29
REMARK   13  A    between atoms: C_29  and  C_31
REMARK                            x       y       z     vdW  Elec       q    Type
REMARK                         _______ _______ _______ _____ _____    ______ ____
ROOT
ATOM      1  C   UNL     1      -6.388  -4.643   0.065  0.00  0.00    +0.098 C 
ATOM      2  C   UNL     1      -7.151  -4.236   1.298  0.00  0.00    +0.008 A 
ATOM      3  C   UNL     1      -6.877  -4.858   2.504  0.00  0.00    +0.012 A 
ATOM      4  C   UNL     1      -7.566  -4.498   3.644  0.00  0.00    +0.047 A 
ATOM      5  C   UNL     1      -8.538  -3.509   3.585  0.00  0.00    +0.135 A 
ATOM      6  C   UNL     1      -8.815  -2.884   2.380  0.00  0.00    +0.093 A 
ATOM      7  C   UNL     1      -8.120  -3.248   1.233  0.00  0.00    +0.138 A 
ATOM      8  O   UNL     1      -8.403  -2.627   0.061  0.00  0.00    -0.441 OA
ATOM      9  C   UNL     1      -8.050  -3.200  -1.103  0.00  0.00    +0.199 C 
ATOM     10  C   UNL     1      -7.102  -4.159  -1.166  0.00  0.00    +0.098 C 
ENDROOT
BRANCH   1  14
ATOM     11  C   UNL     1      -2.472  -2.931   0.195  0.00  0.00    +0.162 A 
ATOM     12  C   UNL     1      -3.590  -2.112   0.200  0.00  0.00    +0.050 A 
ATOM     13  C   UNL     1      -4.854  -2.668   0.157  0.00  0.00    +0.008 A 
ATOM     14  C   UNL     1      -5.007  -4.042   0.111  0.00  0.00    -0.031 A 
ATOM     15  C   UNL     1      -3.896  -4.864   0.107  0.00  0.00    +0.054 A 
ATOM     16  C   UNL     1      -2.626  -4.313   0.143  0.00  0.00    +0.162 A 
BRANCH  11  17
ATOM     17  O   UNL     1      -1.227  -2.385   0.237  0.00  0.00    -0.488 OA
BRANCH  17  18
ATOM     18  C   UNL     1      -1.145  -0.959   0.289  0.00  0.00    +0.229 C 
BRANCH  18  20
ATOM     19  C   UNL     1       0.411   0.993   0.387  0.00  0.00    +0.007 C 
ATOM     20  C   UNL     1       0.324  -0.534   0.330  0.00  0.00    +0.038 C 
ENDBRANCH  18  20
ENDBRANCH  17  18
ENDBRANCH  11  17
BRANCH  16  21
ATOM     21  O   UNL     1      -1.532  -5.120   0.133  0.00  0.00    -0.489 OA
BRANCH  21  22
ATOM     22  C   UNL     1      -1.766  -6.529   0.078  0.00  0.00    +0.226 C 
ATOM     23  C   UNL     1      -0.426  -7.269   0.075  0.00  0.00    +0.048 C 
ENDBRANCH  21  22
ENDBRANCH  16  21
ENDBRANCH   1  14
BRANCH   9  24
ATOM     24  N   UNL     1      -8.671  -2.796  -2.259  0.00  0.00    -0.328 N 
ATOM     25  H   UNL     1      -9.353  -2.107  -2.228  0.00  0.00    +0.145 HD
ATOM     26  H   UNL     1      -8.427  -3.200  -3.106  0.00  0.00    +0.145 HD
ENDBRANCH   9  24
BRANCH  10  27
ATOM     27  C   UNL     1      -6.770  -4.728  -2.438  0.00  0.00    +0.101 C 
ATOM     28  N   UNL     1      -6.508  -5.179  -3.447  0.00  0.00    -0.191 NA
ENDBRANCH  10  27
BRANCH   5  29
ATOM     29  O   UNL     1      -9.218  -3.154   4.707  0.00  0.00    -0.422 OA
BRANCH  29  30
ATOM     30  C   UNL     1      -8.546  -2.501   5.674  0.00  0.00    +0.344 C 
ATOM     31  O   UNL     1      -7.397  -2.154   5.487  0.00  0.00    -0.245 OA
BRANCH  30  32
ATOM     32  C   UNL     1      -9.205  -2.207   6.963  0.00  0.00    +0.061 A 
ATOM     33  C   UNL     1     -10.524  -2.610   7.183  0.00  0.00    +0.015 A 
ATOM     34  C   UNL     1     -11.135  -2.332   8.389  0.00  0.00    +0.002 A 
ATOM     35  C   UNL     1     -10.444  -1.655   9.379  0.00  0.00    +0.020 A 
ATOM     36  C   UNL     1      -9.136  -1.253   9.167  0.00  0.00    +0.042 A 
ATOM     37  C   UNL     1      -8.511  -1.530   7.967  0.00  0.00    +0.035 A 
ATOM     38 CL   UNL     1      -8.278  -0.405  10.415  0.00  0.00    -0.084 Cl
ENDBRANCH  30  32
ENDBRANCH  29  30
ENDBRANCH   5  29
TORSDOF 11
