REMARK  Name = ZINC09155192
REMARK  7 active torsions:
REMARK  status: ('A' for Active; 'I' for Inactive)
REMARK    1  A    between atoms: C_1  and  C_2
REMARK    2  A    between atoms: C_2  and  C_3
REMARK    3  A    between atoms: C_3  and  C_29
REMARK    4  A    between atoms: N_6  and  N_10
REMARK    5  A    between atoms: C_11  and  C_13
REMARK    6  A    between atoms: C_13  and  N_62
REMARK    7  A    between atoms: C_17  and  C_19
REMARK                            x       y       z     vdW  Elec       q    Type
REMARK                         _______ _______ _______ _____ _____    ______ ____
ROOT
ATOM      1  N   UNL     1      -3.431   6.160   2.755  0.00  0.00    -0.225 N 
ATOM      2  C   UNL     1      -2.494   6.766   3.510  0.00  0.00    +0.213 C 
ATOM      3  O   UNL     1      -1.330   6.740   3.171  0.00  0.00    -0.276 OA
ATOM      4  H   UNL     1      -4.362   6.181   3.026  0.00  0.00    +0.173 HD
ENDROOT
BRANCH   1   8
ATOM      5  C   UNL     1      -2.556   3.903   0.021  0.00  0.00    +0.139 C 
ATOM      6  C   UNL     1      -2.994   4.158   1.450  0.00  0.00    +0.268 C 
ATOM      7  O   UNL     1      -3.234   3.329   2.301  0.00  0.00    -0.271 OA
ATOM      8  N   UNL     1      -3.060   5.498   1.577  0.00  0.00    -0.137 N 
ATOM      9  C   UNL     1      -2.728   6.119   0.439  0.00  0.00    +0.327 C 
ATOM     10  O   UNL     1      -2.714   7.327   0.307  0.00  0.00    -0.251 OA
ATOM     11  N   UNL     1      -2.413   5.256  -0.544  0.00  0.00    -0.280 N 
ATOM     12  H   UNL     1      -2.143   5.481  -1.448  0.00  0.00    +0.152 HD
BRANCH   5  13
ATOM     13  C   UNL     1      -1.237   3.175  -0.007  0.00  0.00    -0.015 A 
ATOM     14  C   UNL     1      -1.211   1.793  -0.031  0.00  0.00    +0.006 A 
ATOM     15  C   UNL     1      -0.001   1.124  -0.051  0.00  0.00    +0.000 A 
ATOM     16  C   UNL     1       1.183   1.838  -0.059  0.00  0.00    +0.000 A 
ATOM     17  C   UNL     1       1.157   3.220  -0.041  0.00  0.00    +0.000 A 
ATOM     18  C   UNL     1      -0.053   3.888  -0.015  0.00  0.00    +0.006 A 
ENDBRANCH   5  13
BRANCH   5  20
ATOM     19  C   UNL     1      -4.916   3.927  -0.799  0.00  0.00    +0.007 C 
ATOM     20  C   UNL     1      -3.623   3.110  -0.736  0.00  0.00    +0.037 C 
ENDBRANCH   5  20
ENDBRANCH   1   8
BRANCH   2  21
ATOM     21  C   UNL     1      -2.894   7.478   4.777  0.00  0.00    +0.021 C 
BRANCH  21  26
ATOM     22  C   UNL     1      -0.890   7.000   6.064  0.00  0.00    -0.077 C 
ATOM     23  C   UNL     1      -0.277   7.688   7.310  0.00  0.00    -0.020 C 
ATOM     24  C   UNL     1      -1.440   8.608   7.765  0.00  0.00    -0.013 C 
ATOM     25  C   UNL     1      -2.073   9.053   6.429  0.00  0.00    -0.037 C 
ATOM     26  N   UNL     1      -1.683   8.059   5.413  0.00  0.00    +0.390 N 
ATOM     27  H   UNL     1      -1.112   8.516   4.693  0.00  0.00    -0.080 HD
BRANCH  25  28
ATOM     28  C   UNL     1      -3.572   9.111   6.567  0.00  0.00    -0.057 A 
ATOM     29  C   UNL     1      -4.253  10.264   6.222  0.00  0.00    +0.006 A 
ATOM     30  C   UNL     1      -5.629  10.319   6.343  0.00  0.00    +0.049 A 
ATOM     31  C   UNL     1      -6.329   9.221   6.821  0.00  0.00    +0.162 A 
ATOM     32  C   UNL     1      -5.644   8.063   7.170  0.00  0.00    +0.162 A 
ATOM     33  C   UNL     1      -4.264   8.013   7.043  0.00  0.00    +0.051 A 
ATOM     34  O   UNL     1      -6.313   6.972   7.633  0.00  0.00    -0.485 OA
ATOM     35  C   UNL     1      -7.649   7.185   8.100  0.00  0.00    +0.270 C 
ATOM     36  C   UNL     1      -8.385   8.053   7.069  0.00  0.00    +0.270 C 
ATOM     37  O   UNL     1      -7.682   9.294   6.946  0.00  0.00    -0.485 OA
ENDBRANCH  25  28
ENDBRANCH  21  26
ENDBRANCH   2  21
TORSDOF 6
