REMARK  Name = ZINC64985638
REMARK  8 active torsions:
REMARK  status: ('A' for Active; 'I' for Inactive)
REMARK    1  A    between atoms: C_1  and  C_2
REMARK    2  A    between atoms: C_2  and  C_3
REMARK    3  A    between atoms: C_2  and  C_4
REMARK    4  A    between atoms: C_2  and  C_5
REMARK    5  A    between atoms: N_11  and  S_27
REMARK    6  A    between atoms: C_13  and  C_16
REMARK    7  A    between atoms: N_18  and  C_19
REMARK    8  A    between atoms: S_27  and  C_30
REMARK                            x       y       z     vdW  Elec       q    Type
REMARK                         _______ _______ _______ _____ _____    ______ ____
ROOT
ATOM      1  C   UNL     1       0.617   0.029  -1.446  0.00  0.00    -0.040 A 
ATOM      2  C   UNL     1      -0.092  -0.766  -2.328  0.00  0.00    +0.008 A 
ATOM      3  C   UNL     1       0.555  -1.386  -3.381  0.00  0.00    +0.048 A 
ATOM      4  C   UNL     1       1.919  -1.213  -3.557  0.00  0.00    +0.144 A 
ATOM      5  C   UNL     1       2.631  -0.414  -2.666  0.00  0.00    +0.093 A 
ATOM      6  C   UNL     1       1.977   0.211  -1.616  0.00  0.00    +0.032 A 
ATOM      7  N   UNL     1       4.014  -0.242  -2.836  0.00  0.00    -0.195 N 
ATOM      8  C   UNL     1       4.602  -0.657  -4.121  0.00  0.00    +0.186 C 
ATOM      9  C   UNL     1       3.962  -1.997  -4.513  0.00  0.00    +0.277 C 
ATOM     10  O   UNL     1       2.546  -1.823  -4.598  0.00  0.00    -0.476 OA
ENDROOT
BRANCH   1  12
ATOM     11  C   UNL     1       0.062   2.220  -0.426  0.00  0.00    +0.015 C 
ATOM     12  C   UNL     1      -0.096   0.703  -0.302  0.00  0.00    -0.013 C 
ATOM     13  C   UNL     1       0.509   0.234   1.023  0.00  0.00    +0.015 C 
ATOM     14  C   UNL     1      -1.582   0.340  -0.341  0.00  0.00    +0.015 C 
ENDBRANCH   1  12
BRANCH   9  15
ATOM     15  C   UNL     1       4.500  -2.442  -5.848  0.00  0.00    +0.256 C 
ATOM     16  O   UNL     1       3.759  -2.519  -6.805  0.00  0.00    -0.272 OA
ATOM     17  N   UNL     1       5.805  -2.753  -5.980  0.00  0.00    -0.309 N 
ATOM     18  H   UNL     1       6.398  -2.691  -5.214  0.00  0.00    +0.149 HD
BRANCH  17  19
ATOM     19  C   UNL     1       6.328  -3.185  -7.278  0.00  0.00    +0.073 C 
ATOM     20  C   UNL     1       6.687  -1.958  -8.118  0.00  0.00    +0.022 C 
ATOM     21  C   UNL     1       7.584  -2.381  -9.282  0.00  0.00    +0.002 C 
ATOM     22  C   UNL     1       6.737  -3.068 -10.356  0.00  0.00    +0.000 C 
ATOM     23  C   UNL     1       6.387  -4.485  -9.899  0.00  0.00    +0.000 C 
ATOM     24  C   UNL     1       7.628  -5.151  -9.302  0.00  0.00    +0.000 C 
ATOM     25  C   UNL     1       7.417  -5.372  -7.803  0.00  0.00    +0.002 C 
ATOM     26  C   UNL     1       7.578  -4.041  -7.065  0.00  0.00    +0.022 C 
ENDBRANCH  17  19
ENDBRANCH   9  15
BRANCH   7  27
ATOM     27  S   UNL     1       4.950   0.404  -1.633  0.00  0.00    +0.075 S 
ATOM     28  O   UNL     1       4.308   0.091  -0.405  0.00  0.00    -0.150 OA
ATOM     29  O   UNL     1       6.290   0.021  -1.912  0.00  0.00    -0.150 OA
BRANCH  27  30
ATOM     30  C   UNL     1       4.882   2.156  -1.804  0.00  0.00    +0.109 A 
ATOM     31  C   UNL     1       5.804   2.810  -2.600  0.00  0.00    +0.029 A 
ATOM     32  C   UNL     1       5.751   4.184  -2.735  0.00  0.00    +0.002 A 
ATOM     33  C   UNL     1       4.774   4.906  -2.074  0.00  0.00    +0.000 A 
ATOM     34  C   UNL     1       3.852   4.253  -1.278  0.00  0.00    +0.002 A 
ATOM     35  C   UNL     1       3.902   2.877  -1.147  0.00  0.00    +0.029 A 
ENDBRANCH  27  30
ENDBRANCH   7  27
TORSDOF 5
