REMARK  Name = ZINC22362127
REMARK  12 active torsions:
REMARK  status: ('A' for Active; 'I' for Inactive)
REMARK    1  A    between atoms: C_1  and  C_2
REMARK    2  A    between atoms: C_5  and  C_33
REMARK    3  A    between atoms: C_6  and  C_8
REMARK    4  A    between atoms: C_8  and  C_10
REMARK    5  A    between atoms: C_8  and  N_11
REMARK    6  A    between atoms: C_12  and  C_14
REMARK    7  A    between atoms: C_14  and  N_15
REMARK    8  A    between atoms: N_15  and  C_16
REMARK    9  A    between atoms: N_15  and  S_24
REMARK   10  A    between atoms: C_20  and  C_23
REMARK   11  A    between atoms: C_21  and  C_22
REMARK   12  A    between atoms: S_24  and  C_27
REMARK                            x       y       z     vdW  Elec       q    Type
REMARK                         _______ _______ _______ _____ _____    ______ ____
ROOT
ATOM      1  N   UNL     1       4.345  -1.062  -1.629  0.00  0.00    -0.194 N 
ENDROOT
BRANCH   1   2
ATOM      2  C   UNL     1       5.109  -0.104  -2.299  0.00  0.00    +0.055 A 
ATOM      3  C   UNL     1       4.485   0.876  -3.061  0.00  0.00    +0.025 A 
ATOM      4  C   UNL     1       5.243   1.823  -3.721  0.00  0.00    +0.002 A 
ATOM      5  C   UNL     1       6.623   1.795  -3.625  0.00  0.00    +0.004 A 
ATOM      6  C   UNL     1       7.247   0.822  -2.868  0.00  0.00    -0.046 A 
ATOM      7  C   UNL     1       6.495  -0.124  -2.200  0.00  0.00    -0.025 A 
ATOM      8  C   UNL     1       7.176  -1.182  -1.369  0.00  0.00    +0.046 C 
ATOM      9  C   UNL     1       8.751   0.796  -2.766  0.00  0.00    +0.044 C 
ENDBRANCH   1   2
BRANCH   1  10
ATOM     10  S   UNL     1       3.934  -0.832  -0.042  0.00  0.00    +0.075 S 
ATOM     11  O   UNL     1       4.902   0.054   0.504  0.00  0.00    -0.150 OA
ATOM     12  O   UNL     1       3.686  -2.120   0.505  0.00  0.00    -0.150 OA
BRANCH  10  13
ATOM     13  C   UNL     1       2.396   0.029  -0.022  0.00  0.00    +0.109 A 
ATOM     14  C   UNL     1       1.208  -0.679  -0.014  0.00  0.00    +0.029 A 
ATOM     15  C   UNL     1       0.002  -0.004   0.002  0.00  0.00    +0.002 A 
ATOM     16  C   UNL     1      -0.017   1.378   0.010  0.00  0.00    +0.000 A 
ATOM     17  C   UNL     1       1.171   2.086   0.002  0.00  0.00    +0.002 A 
ATOM     18  C   UNL     1       2.377   1.411  -0.014  0.00  0.00    +0.029 A 
ENDBRANCH  10  13
ENDBRANCH   1  10
BRANCH   1  19
ATOM     19  C   UNL     1       3.908  -2.271  -2.331  0.00  0.00    +0.227 C 
BRANCH  19  21
ATOM     20  N   UNL     1       2.040  -2.957  -3.800  0.00  0.00    -0.307 N 
ATOM     21  C   UNL     1       2.631  -1.985  -3.078  0.00  0.00    +0.233 C 
ATOM     22  O   UNL     1       2.135  -0.879  -3.028  0.00  0.00    -0.274 OA
ATOM     23  H   UNL     1       2.490  -3.960  -3.845  0.00  0.00    +0.149 HD
BRANCH  20  24
ATOM     24  C   UNL     1       0.798  -2.678  -4.526  0.00  0.00    +0.100 C 
ATOM     25  C   UNL     1      -0.394  -2.856  -3.584  0.00  0.00    +0.033 C 
BRANCH  24  31
ATOM     26  C   UNL     1       1.881  -7.070  -6.666  0.00  0.00    +0.044 C 
ATOM     27  C   UNL     1       1.187  -5.734  -6.709  0.00  0.00    -0.050 A 
ATOM     28  C   UNL     1       0.431  -5.382  -7.812  0.00  0.00    +0.003 A 
ATOM     29  C   UNL     1      -0.206  -4.157  -7.852  0.00  0.00    +0.004 A 
ATOM     30  C   UNL     1      -0.090  -3.283  -6.786  0.00  0.00    -0.046 A 
ATOM     31  C   UNL     1       0.669  -3.632  -5.686  0.00  0.00    -0.024 A 
ATOM     32  C   UNL     1       1.305  -4.859  -5.646  0.00  0.00    +0.009 A 
ATOM     33  C   UNL     1      -0.789  -1.948  -6.827  0.00  0.00    +0.044 C 
ENDBRANCH  24  31
ENDBRANCH  20  24
ENDBRANCH  19  21
ENDBRANCH   1  19
TORSDOF 7
