REMARK  Name = ZINC63376157
REMARK  6 active torsions:
REMARK  status: ('A' for Active; 'I' for Inactive)
REMARK    1  A    between atoms: C_1  and  C_2
REMARK    2  A    between atoms: C_2  and  C_3
REMARK    3  A    between atoms: C_3  and  C_4
REMARK    4  A    between atoms: C_4  and  N_5
REMARK    5  A    between atoms: C_10  and  C_28
REMARK    6  A    between atoms: C_28  and  C_29
REMARK                            x       y       z     vdW  Elec       q    Type
REMARK                         _______ _______ _______ _____ _____    ______ ____
ROOT
ATOM      1  N   UNL     1      -2.787  -2.571   0.015  0.00  0.00    -0.242 N 
ATOM      2  C   UNL     1      -3.457  -2.822   1.145  0.00  0.00    +0.227 C 
ATOM      3  O   UNL     1      -3.022  -2.668   2.267  0.00  0.00    -0.275 OA
ATOM      4  C   UNL     1      -4.841  -3.326   0.807  0.00  0.00    +0.107 C 
ATOM      5  C   UNL     1      -4.962  -4.806   1.230  0.00  0.00    +0.072 C 
ATOM      6  N   UNL     1      -4.450  -5.578   0.067  0.00  0.00    -0.295 NA
ATOM      7  C   UNL     1      -4.952  -4.840  -1.106  0.00  0.00    +0.136 C 
ATOM      8  C   UNL     1      -4.850  -3.336  -0.747  0.00  0.00    +0.122 C 
ATOM      9  C   UNL     1      -3.476  -2.815  -1.105  0.00  0.00    +0.228 C 
ATOM     10  O   UNL     1      -3.063  -2.647  -2.233  0.00  0.00    -0.275 OA
ATOM     11  C   UNL     1      -6.366  -5.226  -1.438  0.00  0.00    +0.005 A 
ATOM     12  C   UNL     1      -7.551  -5.178  -0.738  0.00  0.00    +0.027 A 
ATOM     13  C   UNL     1      -8.723  -5.619  -1.328  0.00  0.00    +0.041 A 
ATOM     14  C   UNL     1      -8.699  -6.108  -2.623  0.00  0.00    +0.022 A 
ATOM     15  C   UNL     1      -7.514  -6.158  -3.327  0.00  0.00    +0.025 A 
ATOM     16  C   UNL     1      -6.331  -5.716  -2.740  0.00  0.00    +0.039 A 
ATOM     17  N   UNL     1      -5.027  -5.666  -3.240  0.00  0.00    -0.283 N 
ATOM     18  C   UNL     1      -4.158  -5.165  -2.342  0.00  0.00    +0.243 C 
ATOM     19  O   UNL     1      -2.966  -5.006  -2.498  0.00  0.00    -0.273 OA
ATOM     20 CL   UNL     1     -10.217  -5.560  -0.447  0.00  0.00    -0.084 Cl
ATOM     21  H   UNL     1      -3.441  -5.609   0.070  0.00  0.00    +0.124 HD
ATOM     22  H   UNL     1      -4.777  -5.959  -4.130  0.00  0.00    +0.155 HD
ENDROOT
BRANCH   1  23
ATOM     23  C   UNL     1      -1.413  -2.063   0.004  0.00  0.00    +0.116 C 
BRANCH  23  24
ATOM     24  C   UNL     1      -1.433  -0.534   0.013  0.00  0.00    +0.019 C 
BRANCH  24  26
ATOM     25  C   UNL     1      -0.019   1.526   0.010  0.00  0.00    +0.004 C 
ATOM     26  C   UNL     1       0.002  -0.004   0.002  0.00  0.00    -0.002 C 
ENDBRANCH  24  26
ENDBRANCH  23  24
ENDBRANCH   1  23
BRANCH   5  27
ATOM     27  C   UNL     1      -4.108  -5.077   2.470  0.00  0.00    +0.052 C 
BRANCH  27  28
ATOM     28  C   UNL     1      -4.336  -6.491   2.937  0.00  0.00    -0.040 C 
ATOM     29  C   UNL     1      -3.588  -7.578   2.635  0.00  0.00    -0.001 A 
ATOM     30  C   UNL     1      -2.387  -7.760   1.812  0.00  0.00    +0.010 A 
ATOM     31  C   UNL     1      -1.854  -8.998   1.696  0.00  0.00    +0.001 A 
ATOM     32  C   UNL     1      -2.419 -10.107   2.339  0.00  0.00    +0.002 A 
ATOM     33  C   UNL     1      -3.522 -10.019   3.112  0.00  0.00    +0.026 A 
ATOM     34  C   UNL     1      -4.166  -8.765   3.305  0.00  0.00    +0.043 A 
ATOM     35  N   UNL     1      -5.228  -8.426   3.994  0.00  0.00    -0.380 N 
ATOM     36  C   UNL     1      -5.442  -6.983   3.844  0.00  0.00    +0.144 C 
ATOM     37  H   UNL     1      -5.779  -9.029   4.518  0.00  0.00    +0.160 HD
ENDBRANCH  27  28
ENDBRANCH   5  27
TORSDOF 5
