REMARK  Name = ZINC40795141
REMARK  5 active torsions:
REMARK  status: ('A' for Active; 'I' for Inactive)
REMARK    1  A    between atoms: C_1  and  C_2
REMARK    2  A    between atoms: C_2  and  C_3
REMARK    3  A    between atoms: C_2  and  C_4
REMARK    4  A    between atoms: C_4  and  C_5
REMARK    5  A    between atoms: N_11  and  C_12
REMARK                            x       y       z     vdW  Elec       q    Type
REMARK                         _______ _______ _______ _____ _____    ______ ____
ROOT
ATOM      1  C   UNL     1       5.450  -3.236   0.115  0.00  0.00    +0.067 A 
ATOM      2  C   UNL     1       5.466  -3.804  -1.163  0.00  0.00    +0.028 A 
ATOM      3  C   UNL     1       6.537  -4.573  -1.569  0.00  0.00    +0.016 A 
ATOM      4  C   UNL     1       7.607  -4.785  -0.706  0.00  0.00    +0.049 A 
ATOM      5  C   UNL     1       7.597  -4.213   0.587  0.00  0.00    +0.051 A 
ATOM      6  C   UNL     1       6.528  -3.439   0.991  0.00  0.00    +0.041 A 
ATOM      7  C   UNL     1       8.864  -4.633   1.223  0.00  0.00    +0.251 C 
ATOM      8  O   UNL     1       9.226  -4.342   2.345  0.00  0.00    -0.270 OA
ATOM      9  N   UNL     1       9.547  -5.394   0.349  0.00  0.00    -0.248 N 
ATOM     10  C   UNL     1       8.873  -5.528  -0.807  0.00  0.00    +0.251 C 
ATOM     11  O   UNL     1       9.248  -6.160  -1.776  0.00  0.00    -0.270 OA
ATOM     12  H   UNL     1      10.413  -5.793   0.528  0.00  0.00    +0.158 HD
ENDROOT
BRANCH   1  18
ATOM     13  C   UNL     1       2.187  -0.073  -1.207  0.00  0.00    +0.083 C 
ATOM     14  C   UNL     1       2.851  -0.415  -2.562  0.00  0.00    +0.099 C 
ATOM     15  S   UNL     1       4.420  -1.173  -1.965  0.00  0.00    -0.089 S 
ATOM     16  C   UNL     1       3.884  -1.576  -0.309  0.00  0.00    +0.155 C 
ATOM     17  N   UNL     1       2.827  -0.734  -0.086  0.00  0.00    -0.320 N 
ATOM     18  N   UNL     1       4.388  -2.478   0.508  0.00  0.00    -0.226 NA
ATOM     19  H   UNL     1       2.510  -0.580   0.818  0.00  0.00    +0.148 HD
BRANCH  13  20
ATOM     20  C   UNL     1       0.718  -0.497  -1.257  0.00  0.00    +0.026 C 
BRANCH  20  22
ATOM     21  C   UNL     1      -0.019   1.526   0.010  0.00  0.00    +0.007 C 
ATOM     22  C   UNL     1       0.002  -0.004   0.002  0.00  0.00    -0.015 C 
ATOM     23  C   UNL     1      -1.433  -0.534   0.013  0.00  0.00    +0.007 C 
ENDBRANCH  20  22
ENDBRANCH  13  20
ENDBRANCH   1  18
TORSDOF 3
