REMARK  Name = ZINC12325767
REMARK  8 active torsions:
REMARK  status: ('A' for Active; 'I' for Inactive)
REMARK    1  A    between atoms: C_1  and  C_2
REMARK    2  A    between atoms: C_4  and  C_7
REMARK    3  A    between atoms: C_7  and  C_9
REMARK    4  A    between atoms: C_7  and  N_10
REMARK    5  A    between atoms: C_21  and  N_56
REMARK    6  A    between atoms: C_25  and  C_26
REMARK    7  A    between atoms: C_25  and  N_56
REMARK    8  A    between atoms: C_26  and  C_27
REMARK                            x       y       z     vdW  Elec       q    Type
REMARK                         _______ _______ _______ _____ _____    ______ ____
ROOT
ATOM      1  N   UNL     1       8.051  -1.744  -8.236  0.00  0.00    -0.290 N 
ATOM      2  C   UNL     1       8.385  -0.531  -8.737  0.00  0.00    +0.203 A 
ATOM      3  N   UNL     1       8.093   0.599  -8.131  0.00  0.00    -0.230 NA
ATOM      4  C   UNL     1       7.438   0.522  -6.976  0.00  0.00    +0.116 A 
ATOM      5  C   UNL     1       7.046  -0.694  -6.373  0.00  0.00    +0.076 A 
ATOM      6  C   UNL     1       7.386  -1.904  -7.067  0.00  0.00    +0.263 A 
ATOM      7  O   UNL     1       7.094  -3.004  -6.632  0.00  0.00    -0.267 OA
ATOM      8  C   UNL     1       6.338  -0.584  -5.111  0.00  0.00    -0.023 A 
ATOM      9  C   UNL     1       6.125   0.668  -4.641  0.00  0.00    -0.006 A 
ATOM     10  S   UNL     1       6.853   1.747  -5.849  0.00  0.00    -0.073 S 
ATOM     11  C   UNL     1       5.425   1.056  -3.376  0.00  0.00    +0.027 C 
ATOM     12  C   UNL     1       4.650  -0.163  -2.856  0.00  0.00    -0.067 C 
ATOM     13  C   UNL     1       5.578  -1.381  -2.882  0.00  0.00    -0.011 C 
ATOM     14  C   UNL     1       5.846  -1.798  -4.328  0.00  0.00    +0.035 C 
ENDROOT
BRANCH  12  15
ATOM     15  N   UNL     1       4.209   0.085  -1.470  0.00  0.00    +0.381 N 
ATOM     16  H   UNL     1       4.916   0.650  -0.985  0.00  0.00    -0.086 HD
ATOM     17  H   UNL     1       4.097  -0.813  -0.985  0.00  0.00    -0.086 HD
BRANCH  15  18
ATOM     18  C   UNL     1       2.922   0.805  -1.463  0.00  0.00    -0.078 C 
BRANCH  18  19
ATOM     19  C   UNL     1       2.490   1.047  -0.016  0.00  0.00    +0.016 C 
BRANCH  19  20
ATOM     20  C   UNL     1       1.175   1.783   0.000  0.00  0.00    -0.049 A 
ATOM     21  C   UNL     1      -0.013   1.076   0.008  0.00  0.00    +0.005 A 
ATOM     22  C   UNL     1      -1.219   1.750   0.017  0.00  0.00    +0.020 A 
ATOM     23  C   UNL     1      -1.237   3.134   0.031  0.00  0.00    +0.041 A 
ATOM     24  C   UNL     1      -0.048   3.841   0.023  0.00  0.00    +0.020 A 
ATOM     25  C   UNL     1       1.157   3.165   0.008  0.00  0.00    +0.005 A 
ATOM     26 CL   UNL     1      -2.752   3.982   0.050  0.00  0.00    -0.084 Cl
ENDBRANCH  19  20
ENDBRANCH  18  19
ENDBRANCH  15  18
ENDBRANCH  12  15
BRANCH   1  27
ATOM     27  C   UNL     1       8.427  -2.940  -8.994  0.00  0.00    +0.137 C 
ATOM     28  C   UNL     1       9.948  -2.987  -9.151  0.00  0.00    +0.038 C 
BRANCH  27  32
ATOM     29  C   UNL     1       6.427  -0.484 -12.866  0.00  0.00    +0.073 C 
ATOM     30  C   UNL     1       6.880  -1.692 -12.088  0.00  0.00    +0.076 A 
ATOM     31  N   UNL     1       7.437  -1.747 -10.900  0.00  0.00    -0.247 NA
ATOM     32  C   UNL     1       7.782  -2.895 -10.355  0.00  0.00    +0.071 A 
ATOM     33  C   UNL     1       7.539  -4.037 -11.048  0.00  0.00    +0.072 A 
ATOM     34  S   UNL     1       6.794  -3.370 -12.529  0.00  0.00    -0.080 S 
ENDBRANCH  27  32
ENDBRANCH   1  27
TORSDOF 6
