REMARK  Name = ZINC13278547
REMARK  6 active torsions:
REMARK  status: ('A' for Active; 'I' for Inactive)
REMARK    1  A    between atoms: C_1  and  C_2
REMARK    2  A    between atoms: C_7  and  S_24
REMARK    3  A    between atoms: N_11  and  S_12
REMARK    4  A    between atoms: S_12  and  C_15
REMARK    5  A    between atoms: C_17  and  C_22
REMARK    6  A    between atoms: S_24  and  N_27
REMARK                            x       y       z     vdW  Elec       q    Type
REMARK                         _______ _______ _______ _____ _____    ______ ____
ROOT
ATOM      1  C   UNL     1       0.585   1.993  -0.394  0.00  0.00    +0.030 C 
ATOM      2  C   UNL     1       0.161   0.553  -0.097  0.00  0.00    +0.099 C 
ATOM      3  C   UNL     1       0.885   0.032   1.155  0.00  0.00    +0.061 C 
ATOM      4  C   UNL     1       1.689  -1.151   0.663  0.00  0.00    -0.021 A 
ATOM      5  C   UNL     1       2.534  -2.014   1.335  0.00  0.00    +0.034 A 
ATOM      6  C   UNL     1       3.164  -3.039   0.653  0.00  0.00    +0.105 A 
ATOM      7  C   UNL     1       2.947  -3.198  -0.704  0.00  0.00    +0.030 A 
ATOM      8  C   UNL     1       2.106  -2.339  -1.378  0.00  0.00    +0.027 A 
ATOM      9  C   UNL     1       1.465  -1.302  -0.696  0.00  0.00    +0.055 A 
ATOM     10  N   UNL     1       0.584  -0.335  -1.183  0.00  0.00    -0.200 N 
ENDROOT
BRANCH  10  11
ATOM     11  S   UNL     1       0.089  -0.210  -2.759  0.00  0.00    +0.076 S 
ATOM     12  O   UNL     1       0.082   1.176  -3.073  0.00  0.00    -0.150 OA
ATOM     13  O   UNL     1       0.848  -1.156  -3.499  0.00  0.00    -0.150 OA
BRANCH  11  14
ATOM     14  C   UNL     1      -1.587  -0.749  -2.822  0.00  0.00    +0.123 A 
ATOM     15  C   UNL     1      -2.588   0.150  -3.126  0.00  0.00    +0.045 A 
ATOM     16  C   UNL     1      -3.915  -0.281  -3.182  0.00  0.00    +0.065 A 
ATOM     17  C   UNL     1      -4.222  -1.617  -2.918  0.00  0.00    +0.016 A 
ATOM     18  C   UNL     1      -3.212  -2.505  -2.609  0.00  0.00    +0.018 A 
ATOM     19  C   UNL     1      -1.897  -2.073  -2.561  0.00  0.00    +0.044 A 
ATOM     20 BR   UNL     1      -0.520  -3.297  -2.137  0.00  0.00    -0.048 Br
BRANCH  16  21
ATOM     21  C   UNL     1      -4.991   0.675  -3.512  0.00  0.00    +0.387 C 
ATOM     22  O   UNL     1      -4.722   1.838  -3.741  0.00  0.00    -0.241 OA
ATOM     23  O   UNL     1      -6.272   0.259  -3.560  0.00  0.00    -0.241 OA
ENDBRANCH  16  21
ENDBRANCH  11  14
ENDBRANCH  10  11
BRANCH   6  24
ATOM     24  S   UNL     1       4.241  -4.139   1.510  0.00  0.00    +0.056 S 
ATOM     25  O   UNL     1       5.130  -4.675   0.540  0.00  0.00    -0.153 OA
ATOM     26  O   UNL     1       4.699  -3.443   2.662  0.00  0.00    -0.153 OA
BRANCH  24  27
ATOM     27  N   UNL     1       3.318  -5.401   2.056  0.00  0.00    -0.204 NA
ATOM     28  H   UNL     1       3.711  -6.282   2.154  0.00  0.00    +0.144 HD
ATOM     29  H   UNL     1       2.384  -5.259   2.277  0.00  0.00    +0.144 HD
ENDBRANCH  24  27
ENDBRANCH   6  24
TORSDOF 5
