REMARK  Name = ZINC38897751
REMARK  12 active torsions:
REMARK  status: ('A' for Active; 'I' for Inactive)
REMARK    1  A    between atoms: C_1  and  C_2
REMARK    2  A    between atoms: C_2  and  O_3
REMARK    3  A    between atoms: O_3  and  C_4
REMARK    4  A    between atoms: C_6  and  C_12
REMARK    5  A    between atoms: C_9  and  O_10
REMARK    6  A    between atoms: O_10  and  C_11
REMARK    7  A    between atoms: C_14  and  C_34
REMARK    8  A    between atoms: C_15  and  C_33
REMARK    9  A    between atoms: C_22  and  C_23
REMARK   10  A    between atoms: C_34  and  O_36
REMARK   11  A    between atoms: O_36  and  C_37
REMARK   12  A    between atoms: C_37  and  C_38
REMARK                            x       y       z     vdW  Elec       q    Type
REMARK                         _______ _______ _______ _____ _____    ______ ____
ROOT
ATOM      1  C   UNL     1      -0.247  -4.657  -0.045  0.00  0.00    +0.162 C 
ATOM      2  C   UNL     1       0.952  -4.537   0.867  0.00  0.00    +0.085 C 
ATOM      3  C   UNL     1       1.738  -5.639   1.043  0.00  0.00    +0.053 C 
ATOM      4  N   UNL     1       1.449  -6.780   0.427  0.00  0.00    -0.228 NA
ATOM      5  C   UNL     1       0.432  -6.960  -0.373  0.00  0.00    +0.178 A 
ATOM      6  N   UNL     1      -0.482  -5.981  -0.687  0.00  0.00    -0.275 N 
ATOM      7  C   UNL     1      -1.486  -6.282  -1.522  0.00  0.00    +0.268 A 
ATOM      8  O   UNL     1      -2.318  -5.450  -1.829  0.00  0.00    -0.266 OA
ATOM      9  C   UNL     1      -1.548  -7.658  -2.057  0.00  0.00    +0.080 A 
ATOM     10  C   UNL     1      -2.463  -8.223  -2.922  0.00  0.00    +0.026 C 
ATOM     11  S   UNL     1      -0.118  -8.391  -1.282  0.00  0.00    -0.046 S 
ATOM     12  C   UNL     1       2.944  -5.561   1.944  0.00  0.00    +0.066 C 
ENDROOT
BRANCH  10  13
ATOM     13  C   UNL     1      -3.396  -7.415  -3.576  0.00  0.00    -0.018 C 
ATOM     14  C   UNL     1      -4.312  -7.806  -4.553  0.00  0.00    +0.003 A 
ATOM     15  C   UNL     1      -4.584  -9.048  -5.164  0.00  0.00    +0.010 A 
ATOM     16  C   UNL     1      -5.555  -9.136  -6.108  0.00  0.00    +0.001 A 
ATOM     17  C   UNL     1      -6.302  -8.020  -6.498  0.00  0.00    +0.002 A 
ATOM     18  C   UNL     1      -6.096  -6.796  -5.957  0.00  0.00    +0.026 A 
ATOM     19  C   UNL     1      -5.096  -6.625  -4.960  0.00  0.00    +0.043 A 
ATOM     20  N   UNL     1      -4.708  -5.562  -4.291  0.00  0.00    -0.380 N 
ATOM     21  C   UNL     1      -3.631  -5.935  -3.369  0.00  0.00    +0.149 C 
ATOM     22  H   UNL     1      -5.079  -4.671  -4.389  0.00  0.00    +0.160 HD
ENDBRANCH  10  13
BRANCH   1  25
ATOM     23  C   UNL     1       0.948  -2.885  -3.160  0.00  0.00    +0.162 A 
ATOM     24  C   UNL     1       0.814  -3.828  -2.154  0.00  0.00    +0.055 A 
ATOM     25  C   UNL     1      -0.103  -3.630  -1.138  0.00  0.00    -0.016 A 
ATOM     26  C   UNL     1      -0.888  -2.492  -1.124  0.00  0.00    +0.010 A 
ATOM     27  C   UNL     1      -0.760  -1.548  -2.125  0.00  0.00    +0.050 A 
ATOM     28  C   UNL     1       0.161  -1.737  -3.143  0.00  0.00    +0.162 A 
BRANCH  28  29
ATOM     29  O   UNL     1       0.293  -0.806  -4.125  0.00  0.00    -0.491 OA
ATOM     30  C   UNL     1      -0.547   0.347  -4.043  0.00  0.00    +0.277 C 
ENDBRANCH  28  29
BRANCH  23  31
ATOM     31  O   UNL     1       1.849  -3.078  -4.160  0.00  0.00    -0.489 OA
BRANCH  31  33
ATOM     32  C   UNL     1       3.418  -4.409  -5.428  0.00  0.00    +0.048 C 
ATOM     33  C   UNL     1       2.543  -4.327  -4.175  0.00  0.00    +0.226 C 
ENDBRANCH  31  33
ENDBRANCH  23  31
ENDBRANCH   1  25
BRANCH   2  34
ATOM     34  C   UNL     1       1.251  -3.324   1.514  0.00  0.00    +0.339 C 
ATOM     35  O   UNL     1       2.139  -3.280   2.346  0.00  0.00    -0.245 OA
BRANCH  34  36
ATOM     36  O   UNL     1       0.552  -2.208   1.214  0.00  0.00    -0.462 OA
BRANCH  36  37
ATOM     37  C   UNL     1       0.977  -0.991   1.830  0.00  0.00    +0.229 C 
ATOM     38  C   UNL     1      -0.002   0.130   1.474  0.00  0.00    +0.048 C 
ENDBRANCH  36  37
ENDBRANCH  34  36
ENDBRANCH   2  34
TORSDOF 8
