REMARK  Name = ZINC35759150
REMARK  8 active torsions:
REMARK  status: ('A' for Active; 'I' for Inactive)
REMARK    1  A    between atoms: C_1  and  C_2
REMARK    2  A    between atoms: C_2  and  C_4
REMARK    3  A    between atoms: C_2  and  N_11
REMARK    4  A    between atoms: N_11  and  C_12
REMARK    5  A    between atoms: N_11  and  S_21
REMARK    6  A    between atoms: S_21  and  C_24
REMARK    7  A    between atoms: C_27  and  N_30
REMARK    8  A    between atoms: C_31  and  C_33
REMARK                            x       y       z     vdW  Elec       q    Type
REMARK                         _______ _______ _______ _____ _____    ______ ____
ROOT
ATOM      1  N   UNL     1       0.783  -1.363  -1.314  0.00  0.00    -0.196 N 
ENDROOT
BRANCH   1   2
ATOM      2  C   UNL     1       2.162  -1.379  -1.549  0.00  0.00    +0.056 A 
ATOM      3  C   UNL     1       2.840  -0.190  -1.786  0.00  0.00    +0.028 A 
ATOM      4  C   UNL     1       4.202  -0.204  -2.018  0.00  0.00    +0.051 A 
ATOM      5  C   UNL     1       4.896  -1.403  -2.015  0.00  0.00    +0.166 A 
ATOM      6  C   UNL     1       4.219  -2.597  -1.777  0.00  0.00    +0.168 A 
ATOM      7  C   UNL     1       2.855  -2.582  -1.540  0.00  0.00    +0.074 A 
ATOM      8  O   UNL     1       5.117  -3.624  -1.827  0.00  0.00    -0.453 OA
ATOM      9  C   UNL     1       6.273  -3.093  -2.500  0.00  0.00    +0.466 C 
ATOM     10  O   UNL     1       6.218  -1.683  -2.213  0.00  0.00    -0.453 OA
ENDBRANCH   1   2
BRANCH   1  11
ATOM     11  S   UNL     1      -0.253  -2.028  -2.422  0.00  0.00    +0.075 S 
ATOM     12  O   UNL     1       0.469  -3.053  -3.090  0.00  0.00    -0.150 OA
ATOM     13  O   UNL     1      -1.474  -2.277  -1.738  0.00  0.00    -0.150 OA
BRANCH  11  14
ATOM     14  C   UNL     1      -0.594  -0.787  -3.626  0.00  0.00    +0.109 A 
ATOM     15  C   UNL     1      -1.659   0.076  -3.444  0.00  0.00    +0.030 A 
ATOM     16  C   UNL     1      -1.929   1.050  -4.386  0.00  0.00    +0.025 A 
ATOM     17  C   UNL     1      -1.130   1.162  -5.516  0.00  0.00    +0.033 A 
ATOM     18  C   UNL     1      -0.061   0.294  -5.695  0.00  0.00    +0.025 A 
ATOM     19  C   UNL     1       0.207  -0.675  -4.747  0.00  0.00    +0.030 A 
BRANCH  17  20
ATOM     20  N   UNL     1      -1.401   2.147  -6.472  0.00  0.00    -0.286 N 
ATOM     21  C   UNL     1      -1.908   3.335  -6.089  0.00  0.00    +0.214 C 
ATOM     22  O   UNL     1      -2.044   3.586  -4.910  0.00  0.00    -0.276 OA
ATOM     23  C   UNL     1      -2.307   4.353  -7.127  0.00  0.00    +0.109 C 
ATOM     24  H   UNL     1      -1.224   1.974  -7.410  0.00  0.00    +0.155 HD
ENDBRANCH  17  20
ENDBRANCH  11  14
ENDBRANCH   1  11
BRANCH   1  26
ATOM     25  C   UNL     1       0.770   0.676   0.036  0.00  0.00    +0.035 C 
ATOM     26  C   UNL     1       0.256  -0.759  -0.088  0.00  0.00    +0.125 C 
BRANCH  26  27
ATOM     27  C   UNL     1       0.712  -1.562   1.103  0.00  0.00    -0.026 A 
ATOM     28  C   UNL     1       2.059  -1.797   1.303  0.00  0.00    +0.007 A 
ATOM     29  C   UNL     1       2.478  -2.532   2.396  0.00  0.00    +0.020 A 
ATOM     30  C   UNL     1       1.548  -3.033   3.290  0.00  0.00    +0.041 A 
ATOM     31  C   UNL     1       0.200  -2.797   3.089  0.00  0.00    +0.020 A 
ATOM     32  C   UNL     1      -0.217  -2.057   1.999  0.00  0.00    +0.007 A 
ATOM     33 CL   UNL     1       2.074  -3.958   4.662  0.00  0.00    -0.084 Cl
ENDBRANCH  26  27
ENDBRANCH   1  26
TORSDOF 6
