REMARK  Name = ZINC40377244
REMARK  5 active torsions:
REMARK  status: ('A' for Active; 'I' for Inactive)
REMARK    1  A    between atoms: C_2  and  S_8
REMARK    2  A    between atoms: S_8  and  N_11
REMARK    3  A    between atoms: N_11  and  C_12
REMARK    4  A    between atoms: C_12  and  C_18
REMARK    5  A    between atoms: N_19  and  O_20
REMARK                            x       y       z     vdW  Elec       q    Type
REMARK                         _______ _______ _______ _____ _____    ______ ____
ROOT
ATOM      1  C   UNL     1       3.313   4.160   1.541  0.00  0.00    +0.098 C 
ATOM      2  C   UNL     1       3.600   4.863   0.212  0.00  0.00    +0.031 C 
ATOM      3  C   UNL     1       3.373   6.367   0.371  0.00  0.00    +0.002 C 
ATOM      4  C   UNL     1       4.310   6.914   1.450  0.00  0.00    +0.000 C 
ATOM      5  C   UNL     1       4.023   6.211   2.779  0.00  0.00    +0.002 C 
ATOM      6  C   UNL     1       4.250   4.707   2.620  0.00  0.00    +0.031 C 
ENDROOT
BRANCH   1   7
ATOM      7  C   UNL     1       3.536   2.678   1.385  0.00  0.00    +0.153 C 
ATOM      8  N   UNL     1       4.530   2.108   1.982  0.00  0.00    -0.075 NA
ATOM      9  N   UNL     1       2.682   1.932   0.605  0.00  0.00    -0.342 N 
ATOM     10  H   UNL     1       1.950   2.364   0.136  0.00  0.00    +0.144 HD
ATOM     11  H   UNL     1       2.811   0.974   0.523  0.00  0.00    +0.144 HD
BRANCH   8  12
ATOM     12  O   UNL     1       5.323   2.844   2.896  0.00  0.00    -0.408 OA
ATOM     13  H   UNL     1       6.042   2.333   3.292  0.00  0.00    +0.328 HD
ENDBRANCH   8  12
ENDBRANCH   1   7
BRANCH   1  14
ATOM     14  N   UNL     1       1.923   4.406   1.933  0.00  0.00    -0.177 NA
ATOM     15  H   UNL     1       1.434   5.150   1.547  0.00  0.00    +0.149 HD
BRANCH  14  16
ATOM     16  S   UNL     1       1.185   3.413   3.034  0.00  0.00    +0.061 S 
ATOM     17  O   UNL     1       1.227   2.101   2.491  0.00  0.00    -0.153 OA
ATOM     18  O   UNL     1      -0.032   4.048   3.401  0.00  0.00    -0.153 OA
BRANCH  16  20
ATOM     19  C   UNL     1       2.151   4.438   5.382  0.00  0.00    +0.057 A 
ATOM     20  C   UNL     1       2.197   3.393   4.477  0.00  0.00    +0.132 A 
ATOM     21  C   UNL     1       3.033   2.353   4.717  0.00  0.00    +0.106 A 
ATOM     22  S   UNL     1       3.791   2.835   6.260  0.00  0.00    -0.063 S 
ATOM     23  C   UNL     1       2.943   4.391   6.481  0.00  0.00    +0.081 A 
ATOM     24 CL   UNL     1       3.095   5.544   7.770  0.00  0.00    -0.076 Cl
ATOM     25 CL   UNL     1       3.297   0.922   3.770  0.00  0.00    -0.074 Cl
ENDBRANCH  16  20
ENDBRANCH  14  16
ENDBRANCH   1  14
TORSDOF 5
