REMARK  Name = ZINC39743288
REMARK  9 active torsions:
REMARK  status: ('A' for Active; 'I' for Inactive)
REMARK    1  A    between atoms: C_1  and  C_2
REMARK    2  A    between atoms: C_2  and  C_3
REMARK    3  A    between atoms: C_2  and  N_4
REMARK    4  A    between atoms: C_5  and  C_21
REMARK    5  A    between atoms: C_8  and  S_9
REMARK    6  A    between atoms: S_9  and  C_10
REMARK    7  A    between atoms: C_10  and  C_11
REMARK    8  A    between atoms: N_13  and  C_14
REMARK    9  A    between atoms: C_19  and  O_20
REMARK                            x       y       z     vdW  Elec       q    Type
REMARK                         _______ _______ _______ _____ _____    ______ ____
ROOT
ATOM      1  N   UNL     1      -1.385  -0.468  -0.011  0.00  0.00    -0.297 N 
ATOM      2  C   UNL     1      -1.986  -1.263  -0.963  0.00  0.00    +0.201 A 
ATOM      3  N   UNL     1      -3.219  -1.482  -0.559  0.00  0.00    -0.125 NA
ATOM      4  N   UNL     1      -3.425  -0.887   0.561  0.00  0.00    -0.122 NA
ATOM      5  C   UNL     1      -2.337  -0.257   0.946  0.00  0.00    +0.193 A 
ENDROOT
BRANCH   2   6
ATOM      6  C   UNL     1      -1.367  -1.772  -2.196  0.00  0.00    +0.173 A 
ATOM      7  C   UNL     1      -1.869  -2.768  -2.970  0.00  0.00    +0.061 A 
ATOM      8  C   UNL     1      -0.929  -2.933  -4.080  0.00  0.00    +0.021 A 
ATOM      9  C   UNL     1      -0.875  -3.775  -5.192  0.00  0.00    +0.011 A 
ATOM     10  C   UNL     1       0.170  -3.674  -6.068  0.00  0.00    +0.001 A 
ATOM     11  C   UNL     1       1.175  -2.742  -5.857  0.00  0.00    +0.004 A 
ATOM     12  C   UNL     1       1.139  -1.901  -4.765  0.00  0.00    +0.047 A 
ATOM     13  C   UNL     1       0.087  -1.986  -3.862  0.00  0.00    +0.136 A 
ATOM     14  O   UNL     1      -0.217  -1.313  -2.733  0.00  0.00    -0.452 OA
ENDBRANCH   2   6
BRANCH   1  16
ATOM     15  C   UNL     1      -0.032   1.569  -0.000  0.00  0.00    +0.030 C 
ATOM     16  C   UNL     1      -0.011   0.039  -0.021  0.00  0.00    +0.085 C 
ATOM     17  C   UNL     1       0.732  -0.478   1.212  0.00  0.00    +0.030 C 
ENDBRANCH   1  16
BRANCH   5  18
ATOM     18  S   UNL     1      -2.143   0.689   2.420  0.00  0.00    -0.077 S 
BRANCH  18  19
ATOM     19  C   UNL     1      -3.759   0.567   3.235  0.00  0.00    +0.173 C 
BRANCH  19  20
ATOM     20  C   UNL     1      -3.730   1.343   4.527  0.00  0.00    +0.228 C 
ATOM     21  O   UNL     1      -2.718   1.921   4.864  0.00  0.00    -0.275 OA
ATOM     22  N   UNL     1      -4.828   1.395   5.306  0.00  0.00    -0.282 N 
ATOM     23  H   UNL     1      -5.656   0.988   5.006  0.00  0.00    +0.155 HD
BRANCH  22  24
ATOM     24  C   UNL     1      -4.774   2.037   6.551  0.00  0.00    +0.075 A 
ATOM     25  C   UNL     1      -3.978   3.160   6.720  0.00  0.00    +0.027 A 
ATOM     26  C   UNL     1      -3.927   3.792   7.948  0.00  0.00    +0.002 A 
ATOM     27  C   UNL     1      -4.667   3.307   9.010  0.00  0.00    +0.004 A 
ATOM     28  C   UNL     1      -5.462   2.188   8.849  0.00  0.00    +0.047 A 
ATOM     29  C   UNL     1      -5.524   1.552   7.620  0.00  0.00    +0.138 A 
BRANCH  29  30
ATOM     30  O   UNL     1      -6.310   0.454   7.458  0.00  0.00    -0.505 OA
ATOM     31  H   UNL     1      -5.863  -0.381   7.650  0.00  0.00    +0.292 HD
ENDBRANCH  29  30
ENDBRANCH  22  24
ENDBRANCH  19  20
ENDBRANCH  18  19
ENDBRANCH   5  18
TORSDOF 7
