REMARK  Name = ZINC44918839
REMARK  4 active torsions:
REMARK  status: ('A' for Active; 'I' for Inactive)
REMARK    1  A    between atoms: C_1  and  C_2
REMARK    2  A    between atoms: C_13  and  C_15
REMARK    3  A    between atoms: N_18  and  C_21
REMARK    4  A    between atoms: C_19  and  C_20
REMARK                            x       y       z     vdW  Elec       q    Type
REMARK                         _______ _______ _______ _____ _____    ______ ____
ROOT
ATOM      1  C   UNL     1       0.738   1.839  -0.520  0.00  0.00    +0.068 C 
ATOM      2  C   UNL     1       0.824   0.346  -0.331  0.00  0.00    +0.066 A 
ATOM      3  C   UNL     1       0.379  -0.626  -1.252  0.00  0.00    +0.032 A 
ATOM      4  C   UNL     1       0.632  -1.842  -0.721  0.00  0.00    +0.125 A 
ATOM      5  N   UNL     1       1.217  -1.635   0.500  0.00  0.00    -0.263 N 
ATOM      6  H   UNL     1       1.509  -2.326   1.115  0.00  0.00    +0.190 HD
ATOM      7  N   UNL     1       1.327  -0.260   0.706  0.00  0.00    -0.177 NA
ATOM      8  N   UNL     1       0.408  -3.114  -1.192  0.00  0.00    -0.270 N 
ATOM      9  C   UNL     1      -0.152  -3.613  -2.253  0.00  0.00    +0.228 C 
ATOM     10  O   UNL     1      -0.249  -4.822  -2.257  0.00  0.00    -0.275 OA
ATOM     11  C   UNL     1      -0.690  -2.943  -3.455  0.00  0.00    +0.166 C 
ATOM     12  S   UNL     1      -1.530  -1.398  -3.081  0.00  0.00    -0.138 S 
ATOM     13  C   UNL     1      -0.251  -0.253  -2.557  0.00  0.00    +0.115 C 
ATOM     14  H   UNL     1       0.748  -3.798  -0.594  0.00  0.00    +0.156 HD
ENDROOT
BRANCH  13  15
ATOM     15  C   UNL     1      -0.855   1.121  -2.427  0.00  0.00    +0.010 A 
ATOM     16  C   UNL     1      -2.060   1.434  -1.788  0.00  0.00    +0.139 A 
ATOM     17  N   UNL     1      -2.249   2.725  -1.882  0.00  0.00    -0.179 NA
ATOM     18  N   UNL     1      -1.169   3.276  -2.584  0.00  0.00    -0.271 N 
ATOM     19  C   UNL     1      -0.325   2.272  -2.903  0.00  0.00    +0.040 A 
ATOM     20  C   UNL     1       0.973   2.408  -3.656  0.00  0.00    +0.065 C 
ATOM     21  C   UNL     1      -0.986   4.692  -2.910  0.00  0.00    +0.172 C 
ENDBRANCH  13  15
TORSDOF 1
