REMARK  Name = ZINC44890432
REMARK  9 active torsions:
REMARK  status: ('A' for Active; 'I' for Inactive)
REMARK    1  A    between atoms: C_1  and  O_2
REMARK    2  A    between atoms: O_2  and  C_3
REMARK    3  A    between atoms: C_3  and  C_5
REMARK    4  A    between atoms: C_5  and  C_7
REMARK    5  A    between atoms: C_5  and  N_11
REMARK    6  A    between atoms: C_7  and  C_8
REMARK    7  A    between atoms: C_8  and  S_9
REMARK    8  A    between atoms: S_9  and  C_10
REMARK    9  A    between atoms: C_23  and  C_25
REMARK                            x       y       z     vdW  Elec       q    Type
REMARK                         _______ _______ _______ _____ _____    ______ ____
ROOT
ATOM      1  N   UNL     1      -2.732  -2.278   2.724  0.00  0.00    -0.286 N 
ATOM      2  C   UNL     1      -3.167  -2.593   1.487  0.00  0.00    +0.304 C 
ATOM      3  O   UNL     1      -2.459  -2.381   0.522  0.00  0.00    -0.253 OA
ATOM      4  N   UNL     1      -4.386  -3.143   1.321  0.00  0.00    -0.273 N 
ATOM      5  C   UNL     1      -4.830  -3.604  -0.003  0.00  0.00    +0.116 C 
ATOM      6  C   UNL     1      -6.031  -2.761  -0.450  0.00  0.00    +0.074 C 
ATOM      7  C   UNL     1      -6.989  -2.629   0.705  0.00  0.00    +0.040 A 
ATOM      8  C   UNL     1      -6.675  -2.860   1.998  0.00  0.00    +0.062 A 
ATOM      9  N   UNL     1      -7.765  -2.640   2.736  0.00  0.00    -0.348 N 
ATOM     10  C   UNL     1      -8.748  -2.282   1.951  0.00  0.00    +0.171 A 
ATOM     11  N   UNL     1      -8.301  -2.265   0.674  0.00  0.00    -0.349 N 
ATOM     12  H   UNL     1      -8.818  -2.038  -0.114  0.00  0.00    +0.166 HD
ATOM     13  C   UNL     1      -5.304  -3.303   2.463  0.00  0.00    +0.156 C 
ATOM     14  H   UNL     1      -3.323  -2.379   3.486  0.00  0.00    +0.151 HD
ATOM     15  H   UNL     1      -7.819  -2.730   3.700  0.00  0.00    +0.167 HD
ENDROOT
BRANCH  13  16
ATOM     16  C   UNL     1      -5.345  -4.748   2.890  0.00  0.00    -0.020 A 
ATOM     17  C   UNL     1      -5.829  -5.710   2.023  0.00  0.00    +0.009 A 
ATOM     18  C   UNL     1      -5.866  -7.036   2.413  0.00  0.00    +0.040 A 
ATOM     19  C   UNL     1      -5.419  -7.400   3.671  0.00  0.00    +0.142 A 
ATOM     20  C   UNL     1      -4.934  -6.436   4.539  0.00  0.00    +0.076 A 
ATOM     21  C   UNL     1      -4.893  -5.110   4.145  0.00  0.00    +0.028 A 
ATOM     22 CL   UNL     1      -4.373  -6.890   6.118  0.00  0.00    -0.081 Cl
ATOM     23  F   UNL     1      -5.456  -8.696   4.053  0.00  0.00    -0.204 F 
ENDBRANCH  13  16
BRANCH   1  24
ATOM     24  C   UNL     1      -1.367  -1.781   2.916  0.00  0.00    +0.184 C 
BRANCH  24  25
ATOM     25  C   UNL     1      -0.421  -2.948   3.038  0.00  0.00    +0.327 C 
ATOM     26  O   UNL     1      -0.844  -4.078   2.971  0.00  0.00    -0.249 OA
BRANCH  25  28
ATOM     27  C   UNL     1       1.730  -3.884   3.328  0.00  0.00    +0.280 C 
ATOM     28  O   UNL     1       0.891  -2.732   3.221  0.00  0.00    -0.467 OA
ENDBRANCH  25  28
ENDBRANCH  24  25
BRANCH  24  29
ATOM     29  C   UNL     1      -1.306  -0.940   4.192  0.00  0.00    +0.044 C 
BRANCH  29  30
ATOM     30  C   UNL     1      -2.171   0.311   4.021  0.00  0.00    +0.071 C 
BRANCH  30  31
ATOM     31  S   UNL     1      -2.098   1.309   5.534  0.00  0.00    -0.164 S 
ATOM     32  C   UNL     1      -3.161   2.734   5.171  0.00  0.00    +0.084 C 
ENDBRANCH  30  31
ENDBRANCH  29  30
ENDBRANCH  24  29
ENDBRANCH   1  24
TORSDOF 7
