REMARK  Name = ZINC06705519
REMARK  10 active torsions:
REMARK  status: ('A' for Active; 'I' for Inactive)
REMARK    1  A    between atoms: C_1  and  C_2
REMARK    2  A    between atoms: C_2  and  C_3
REMARK    3  A    between atoms: C_3  and  C_4
REMARK    4  A    between atoms: C_4  and  C_5
REMARK    5  A    between atoms: C_5  and  N_6
REMARK    6  A    between atoms: C_7  and  C_9
REMARK    7  A    between atoms: C_9  and  C_10
REMARK    8  A    between atoms: C_10  and  C_12
REMARK    9  A    between atoms: C_10  and  C_21
REMARK   10  A    between atoms: C_16  and  N_18
REMARK                            x       y       z     vdW  Elec       q    Type
REMARK                         _______ _______ _______ _____ _____    ______ ____
ROOT
ATOM      1  C   UNL     1      -0.070   5.347   0.031  0.00  0.00    +0.060 C 
ENDROOT
BRANCH   1   2
ATOM      2  C   UNL     1      -0.798   5.846  -1.191  0.00  0.00    -0.015 A 
ATOM      3  C   UNL     1      -2.074   5.589  -1.521  0.00  0.00    +0.087 A 
ATOM      4  N   UNL     1      -2.386   6.212  -2.698  0.00  0.00    -0.360 N 
ATOM      5  H   UNL     1      -3.250   6.173  -3.138  0.00  0.00    +0.165 HD
ATOM      6  C   UNL     1      -1.291   6.904  -3.166  0.00  0.00    +0.047 A 
ATOM      7  C   UNL     1      -0.251   6.710  -2.239  0.00  0.00    +0.003 A 
ATOM      8  C   UNL     1       0.997   7.297  -2.460  0.00  0.00    +0.010 A 
ATOM      9  C   UNL     1       1.198   8.066  -3.571  0.00  0.00    +0.001 A 
ATOM     10  C   UNL     1       0.173   8.265  -4.486  0.00  0.00    +0.002 A 
ATOM     11  C   UNL     1      -1.065   7.691  -4.290  0.00  0.00    +0.026 A 
ENDBRANCH   1   2
BRANCH   1  12
ATOM     12  C   UNL     1      -0.050   3.840   0.022  0.00  0.00    -0.037 A 
ATOM     13  C   UNL     1      -1.238   3.133   0.029  0.00  0.00    +0.004 A 
ATOM     14  C   UNL     1      -1.219   1.751   0.017  0.00  0.00    +0.003 A 
ATOM     15  C   UNL     1      -0.013   1.076   0.008  0.00  0.00    +0.033 A 
ATOM     16  C   UNL     1       1.175   1.783   0.000  0.00  0.00    +0.126 A 
ATOM     17  C   UNL     1       1.156   3.166   0.008  0.00  0.00    +0.037 A 
BRANCH  16  18
ATOM     18  N   UNL     1       2.467   1.060  -0.015  0.00  0.00    +0.056 N 
ATOM     19  O   UNL     1       2.483  -0.157  -0.022  0.00  0.00    -0.126 OA
ATOM     20  O   UNL     1       3.513   1.684  -0.022  0.00  0.00    -0.126 OA
ENDBRANCH  16  18
ENDBRANCH   1  12
BRANCH   1  21
ATOM     21  C   UNL     1      -0.788   5.840   1.289  0.00  0.00    +0.108 C 
BRANCH  21  23
ATOM     22  N   UNL     1      -0.436   5.777   3.737  0.00  0.00    -0.315 N 
ATOM     23  C   UNL     1       0.007   5.446   2.507  0.00  0.00    +0.214 C 
ATOM     24  O   UNL     1       1.044   4.830   2.381  0.00  0.00    -0.276 OA
ATOM     25  H   UNL     1      -1.266   6.269   3.837  0.00  0.00    +0.149 HD
BRANCH  22  26
ATOM     26  C   UNL     1       0.337   5.393   4.921  0.00  0.00    +0.104 C 
BRANCH  26  27
ATOM     27  C   UNL     1      -0.381   5.886   6.179  0.00  0.00    +0.019 C 
BRANCH  27  28
ATOM     28  C   UNL     1       0.426   5.486   7.416  0.00  0.00    +0.001 C 
BRANCH  28  30
ATOM     29  C   UNL     1       0.515   5.578   9.911  0.00  0.00    +0.004 C 
ATOM     30  C   UNL     1      -0.291   5.979   8.674  0.00  0.00    -0.003 C 
ENDBRANCH  28  30
ENDBRANCH  27  28
ENDBRANCH  26  27
ENDBRANCH  22  26
ENDBRANCH  21  23
ENDBRANCH   1  21
TORSDOF 9
