REMARK  Name = ZINC02863654
REMARK  11 active torsions:
REMARK  status: ('A' for Active; 'I' for Inactive)
REMARK    1  A    between atoms: C_1  and  C_2
REMARK    2  A    between atoms: C_5  and  N_9
REMARK    3  A    between atoms: C_7  and  C_8
REMARK    4  A    between atoms: C_15  and  C_17
REMARK    5  A    between atoms: C_15  and  C_18
REMARK    6  A    between atoms: C_19  and  C_22
REMARK    7  A    between atoms: C_19  and  N_26
REMARK    8  A    between atoms: C_28  and  C_30
REMARK    9  A    between atoms: C_30  and  C_31
REMARK   10  A    between atoms: C_30  and  C_32
REMARK   11  A    between atoms: C_30  and  C_33
REMARK                            x       y       z     vdW  Elec       q    Type
REMARK                         _______ _______ _______ _____ _____    ______ ____
ROOT
ATOM      1  N   UNL     1       0.002  -0.004   0.002  0.00  0.00    -0.241 N 
ATOM      2  C   UNL     1      -0.000   1.333   0.249  0.00  0.00    +0.028 C 
ATOM      3  C   UNL     1       1.256   1.851   0.177  0.00  0.00    +0.054 C 
ATOM      4  C   UNL     1       1.548   3.208   0.379  0.00  0.00    +0.164 C 
ATOM      5  O   UNL     1       2.691   3.617   0.331  0.00  0.00    -0.292 OA
ATOM      6  C   UNL     1       0.394   4.145   0.659  0.00  0.00    +0.086 C 
ATOM      7  C   UNL     1      -0.711   3.395   1.405  0.00  0.00    -0.023 C 
ATOM      8  C   UNL     1      -1.198   2.203   0.574  0.00  0.00    +0.058 C 
ATOM      9  C   UNL     1      -0.167   2.890   2.743  0.00  0.00    +0.011 C 
ATOM     10  C   UNL     1      -1.882   4.344   1.664  0.00  0.00    +0.011 C 
ATOM     11  C   UNL     1       2.178   0.709  -0.149  0.00  0.00    +0.237 C 
ATOM     12  C   UNL     1       1.238  -0.480  -0.245  0.00  0.00    +0.261 C 
ATOM     13  O   UNL     1       1.540  -1.628  -0.495  0.00  0.00    -0.272 OA
ENDROOT
BRANCH   1  18
ATOM     14  C   UNL     1      -4.672  -3.222   0.011  0.00  0.00    +0.044 C 
ATOM     15  C   UNL     1      -3.431  -2.367   0.009  0.00  0.00    -0.047 A 
ATOM     16  C   UNL     1      -2.467  -2.548   0.984  0.00  0.00    +0.005 A 
ATOM     17  C   UNL     1      -1.326  -1.770   0.982  0.00  0.00    +0.024 A 
ATOM     18  C   UNL     1      -1.152  -0.798   0.004  0.00  0.00    +0.041 A 
ATOM     19  C   UNL     1      -2.121  -0.620  -0.973  0.00  0.00    +0.027 A 
ATOM     20  C   UNL     1      -3.258  -1.405  -0.968  0.00  0.00    -0.046 A 
ATOM     21  C   UNL     1      -4.311  -1.211  -2.029  0.00  0.00    +0.044 C 
ENDBRANCH   1  18
BRANCH  11  22
ATOM     22  C   UNL     1       3.198   0.501   0.972  0.00  0.00    +0.424 C 
ATOM     23  F   UNL     1       3.972  -0.630   0.694  0.00  0.00    -0.167 F 
ATOM     24  F   UNL     1       4.029   1.624   1.060  0.00  0.00    -0.167 F 
ATOM     25  F   UNL     1       2.527   0.321   2.186  0.00  0.00    -0.167 F 
ENDBRANCH  11  22
BRANCH  11  26
ATOM     26  N   UNL     1       2.853   0.939  -1.429  0.00  0.00    -0.290 N 
ATOM     27  H   UNL     1       2.724   1.777  -1.901  0.00  0.00    +0.150 HD
ATOM     28  C   UNL     1       3.652  -0.013  -1.950  0.00  0.00    +0.220 C 
ATOM     29  O   UNL     1       3.812  -1.060  -1.360  0.00  0.00    -0.275 OA
BRANCH  28  30
ATOM     30  C   UNL     1       4.346   0.225  -3.267  0.00  0.00    +0.039 C 
ATOM     31  C   UNL     1       5.185  -1.002  -3.629  0.00  0.00    +0.020 C 
ATOM     32  C   UNL     1       3.301   0.468  -4.358  0.00  0.00    +0.020 C 
ATOM     33  C   UNL     1       5.256   1.449  -3.150  0.00  0.00    +0.020 C 
ENDBRANCH  28  30
ENDBRANCH  11  26
TORSDOF 4
