REMARK  Name = ZINC28933045
REMARK  10 active torsions:
REMARK  status: ('A' for Active; 'I' for Inactive)
REMARK    1  A    between atoms: C_1  and  C_2
REMARK    2  A    between atoms: C_9  and  C_16
REMARK    3  A    between atoms: C_11  and  O_12
REMARK    4  A    between atoms: C_16  and  O_17
REMARK    5  A    between atoms: O_17  and  C_18
REMARK    6  A    between atoms: C_18  and  C_20
REMARK    7  A    between atoms: C_20  and  N_21
REMARK    8  A    between atoms: C_22  and  C_24
REMARK    9  A    between atoms: C_27  and  O_30
REMARK   10  A    between atoms: O_30  and  C_31
REMARK                            x       y       z     vdW  Elec       q    Type
REMARK                         _______ _______ _______ _____ _____    ______ ____
ROOT
ATOM      1  C   UNL     1       3.677   2.395   0.349  0.00  0.00    +0.325 C 
ATOM      2  O   UNL     1       3.383   3.567   0.334  0.00  0.00    -0.249 OA
ENDROOT
BRANCH   1   3
ATOM      3  O   UNL     1       4.968   2.027   0.371  0.00  0.00    -0.459 OA
BRANCH   3   4
ATOM      4  C   UNL     1       5.957   3.091   0.376  0.00  0.00    +0.268 C 
BRANCH   4  13
ATOM      5  C   UNL     1      14.365   6.067   0.072  0.00  0.00    +0.109 C 
ATOM      6  C   UNL     1      13.104   5.252  -0.058  0.00  0.00    +0.214 C 
ATOM      7  O   UNL     1      13.134   4.171  -0.607  0.00  0.00    -0.276 OA
ATOM      8  N   UNL     1      11.943   5.725   0.436  0.00  0.00    -0.286 N 
ATOM      9  C   UNL     1      10.802   4.921   0.427  0.00  0.00    +0.037 A 
ATOM     10  C   UNL     1       9.539   5.513   0.403  0.00  0.00    +0.024 A 
ATOM     11  C   UNL     1       8.415   4.740   0.394  0.00  0.00    +0.014 A 
ATOM     12  C   UNL     1       8.529   3.345   0.404  0.00  0.00    +0.024 A 
ATOM     13  C   UNL     1       7.339   2.491   0.401  0.00  0.00    +0.007 A 
ATOM     14  C   UNL     1       7.515   1.144   0.416  0.00  0.00    +0.095 A 
ATOM     15  C   UNL     1       8.819   0.608   0.440  0.00  0.00    +0.285 A 
ATOM     16  O   UNL     1       9.906   1.396   0.447  0.00  0.00    -0.425 OA
ATOM     17  C   UNL     1       9.800   2.742   0.433  0.00  0.00    +0.141 A 
ATOM     18  C   UNL     1      10.933   3.541   0.442  0.00  0.00    +0.070 A 
ATOM     19  H   UNL     1      11.894   6.745   0.846  0.00  0.00    +0.155 HD
BRANCH  15  20
ATOM     20  O   UNL     1       8.963  -0.602   0.453  0.00  0.00    -0.480 OA
ATOM     21  H   UNL     1       9.974  -1.035   0.472  0.00  0.00    +0.295 HD
ENDBRANCH  15  20
ENDBRANCH   4  13
ENDBRANCH   3   4
ENDBRANCH   1   3
BRANCH   1  22
ATOM     22  C   UNL     1       2.595   1.347   0.344  0.00  0.00    +0.225 C 
BRANCH  22  23
ATOM     23  N   UNL     1       1.283   1.999   0.319  0.00  0.00    -0.301 N 
ATOM     24  C   UNL     1       0.160   1.254   0.310  0.00  0.00    +0.245 C 
ATOM     25  O   UNL     1       0.235   0.041   0.323  0.00  0.00    -0.270 OA
ATOM     26  H   UNL     1       1.215   3.097   0.308  0.00  0.00    +0.150 HD
BRANCH  24  27
ATOM     27  C   UNL     1      -1.161   1.911   0.279  0.00  0.00    +0.037 A 
ATOM     28  C   UNL     1      -1.250   3.306   0.270  0.00  0.00    +0.016 A 
ATOM     29  C   UNL     1      -2.484   3.915   0.234  0.00  0.00    +0.047 A 
ATOM     30  C   UNL     1      -3.641   3.145   0.220  0.00  0.00    +0.128 A 
ATOM     31  C   UNL     1      -3.557   1.757   0.234  0.00  0.00    +0.047 A 
ATOM     32  C   UNL     1      -2.327   1.141   0.264  0.00  0.00    +0.016 A 
BRANCH  30  33
ATOM     33  O   UNL     1      -4.856   3.749   0.190  0.00  0.00    -0.456 OA
BRANCH  33  34
ATOM     34  C   UNL     1      -5.585   3.772   1.337  0.00  0.00    +0.128 A 
ATOM     35  C   UNL     1      -5.133   3.097   2.462  0.00  0.00    +0.046 A 
ATOM     36  C   UNL     1      -5.873   3.126   3.627  0.00  0.00    +0.004 A 
ATOM     37  C   UNL     1      -7.070   3.817   3.671  0.00  0.00    +0.000 A 
ATOM     38  C   UNL     1      -7.526   4.486   2.550  0.00  0.00    +0.004 A 
ATOM     39  C   UNL     1      -6.786   4.465   1.383  0.00  0.00    +0.046 A 
ENDBRANCH  33  34
ENDBRANCH  30  33
ENDBRANCH  24  27
ENDBRANCH  22  23
ENDBRANCH   1  22
TORSDOF 9
