REMARK  Name = ZINC41548207
REMARK  8 active torsions:
REMARK  status: ('A' for Active; 'I' for Inactive)
REMARK    1  A    between atoms: C_1  and  C_2
REMARK    2  A    between atoms: C_11  and  C_13
REMARK    3  A    between atoms: C_11  and  C_14
REMARK    4  A    between atoms: N_16  and  C_17
REMARK    5  A    between atoms: C_20  and  O_25
REMARK    6  A    between atoms: C_22  and  O_23
REMARK    7  A    between atoms: O_23  and  C_24
REMARK    8  A    between atoms: O_25  and  C_26
REMARK                            x       y       z     vdW  Elec       q    Type
REMARK                         _______ _______ _______ _____ _____    ______ ____
ROOT
ATOM      1  C   UNL     1       0.032   1.525   0.010  0.00  0.00    +0.044 C 
ATOM      2  C   UNL     1       0.040   0.018   0.001  0.00  0.00    -0.048 A 
ATOM      3  C   UNL     1       0.039  -0.665  -1.201  0.00  0.00    +0.007 A 
ATOM      4  C   UNL     1       0.041  -2.048  -1.217  0.00  0.00    +0.048 A 
ATOM      5  C   UNL     1       0.047  -2.752  -0.025  0.00  0.00    +0.144 A 
ATOM      6  C   UNL     1       0.059  -2.064   1.186  0.00  0.00    +0.076 A 
ATOM      7  C   UNL     1       0.055  -0.678   1.196  0.00  0.00    +0.030 A 
ATOM      8  N   UNL     1       0.099  -2.784   2.388  0.00  0.00    -0.279 N 
ATOM      9  C   UNL     1       0.345  -4.111   2.353  0.00  0.00    +0.270 C 
ATOM     10  O   UNL     1       0.275  -4.770   3.369  0.00  0.00    -0.271 OA
ATOM     11  C   UNL     1       0.705  -4.771   1.046  0.00  0.00    +0.258 C 
ATOM     12  O   UNL     1       0.030  -4.112  -0.028  0.00  0.00    -0.465 OA
ATOM     13  C   UNL     1       0.284  -6.241   1.085  0.00  0.00    +0.076 C 
ATOM     14  H   UNL     1      -0.047  -2.334   3.235  0.00  0.00    +0.155 HD
ENDROOT
BRANCH  11  15
ATOM     15  C   UNL     1       2.194  -4.681   0.833  0.00  0.00    +0.270 C 
ATOM     16  O   UNL     1       2.937  -4.571   1.785  0.00  0.00    -0.271 OA
ATOM     17  N   UNL     1       2.699  -4.724  -0.416  0.00  0.00    -0.279 N 
ATOM     18  H   UNL     1       2.114  -4.893  -1.171  0.00  0.00    +0.155 HD
BRANCH  17  19
ATOM     19  C   UNL     1       4.072  -4.525  -0.624  0.00  0.00    +0.076 A 
ATOM     20  C   UNL     1       4.816  -3.802   0.297  0.00  0.00    +0.030 A 
ATOM     21  C   UNL     1       6.169  -3.606   0.092  0.00  0.00    +0.047 A 
ATOM     22  C   UNL     1       6.785  -4.131  -1.034  0.00  0.00    +0.124 A 
ATOM     23  C   UNL     1       6.046  -4.854  -1.958  0.00  0.00    +0.093 A 
ATOM     24  C   UNL     1       4.691  -5.058  -1.752  0.00  0.00    +0.145 A 
BRANCH  24  25
ATOM     25  O   UNL     1       3.966  -5.772  -2.654  0.00  0.00    -0.493 OA
ATOM     26  C   UNL     1       4.666  -6.289  -3.787  0.00  0.00    +0.277 C 
ENDBRANCH  24  25
BRANCH  22  27
ATOM     27  O   UNL     1       8.116  -3.936  -1.233  0.00  0.00    -0.495 OA
ATOM     28  C   UNL     1       8.816  -3.181  -0.242  0.00  0.00    +0.277 C 
ENDBRANCH  22  27
ENDBRANCH  17  19
ENDBRANCH  11  15
TORSDOF 4
