REMARK  Name = ZINC41584712
REMARK  7 active torsions:
REMARK  status: ('A' for Active; 'I' for Inactive)
REMARK    1  A    between atoms: C_1  and  C_2
REMARK    2  A    between atoms: C_3  and  O_28
REMARK    3  A    between atoms: C_9  and  O_27
REMARK    4  A    between atoms: C_10  and  C_13
REMARK    5  A    between atoms: C_13  and  N_14
REMARK    6  A    between atoms: C_19  and  C_21
REMARK    7  A    between atoms: O_28  and  C_29
REMARK                            x       y       z     vdW  Elec       q    Type
REMARK                         _______ _______ _______ _____ _____    ______ ____
ROOT
ATOM      1  C   UNL     1      -0.024   1.489  -0.116  0.00  0.00    +0.090 C 
ATOM      2  C   UNL     1      -0.005  -0.017  -0.060  0.00  0.00    +0.148 A 
ATOM      3  C   UNL     1      -1.171  -0.672   0.105  0.00  0.00    +0.213 A 
ATOM      4  C   UNL     1      -1.175  -2.095   0.160  0.00  0.00    +0.235 A 
ATOM      5  O   UNL     1      -2.211  -2.722   0.308  0.00  0.00    -0.283 OA
ATOM      6  C   UNL     1       0.123  -2.779   0.030  0.00  0.00    +0.068 A 
ATOM      7  C   UNL     1       0.220  -4.170   0.070  0.00  0.00    +0.019 A 
ATOM      8  C   UNL     1       1.442  -4.768  -0.054  0.00  0.00    +0.046 A 
ATOM      9  C   UNL     1       2.590  -3.996  -0.221  0.00  0.00    +0.122 A 
ATOM     10  C   UNL     1       2.511  -2.615  -0.264  0.00  0.00    +0.020 A 
ATOM     11  C   UNL     1       1.277  -1.992  -0.139  0.00  0.00    +0.144 A 
ATOM     12  O   UNL     1       1.170  -0.648  -0.182  0.00  0.00    -0.456 OA
ENDROOT
BRANCH   9  13
ATOM     13  O   UNL     1       3.798  -4.605  -0.342  0.00  0.00    -0.506 OA
ATOM     14  H   UNL     1       4.043  -4.814  -1.254  0.00  0.00    +0.292 HD
ENDBRANCH   9  13
BRANCH  10  15
ATOM     15  C   UNL     1       3.759  -1.790  -0.444  0.00  0.00    -0.035 C 
BRANCH  15  16
ATOM     16  N   UNL     1       4.001  -1.574  -1.877  0.00  0.00    +0.387 N 
ATOM     17  C   UNL     1       4.279  -2.862  -2.524  0.00  0.00    -0.078 C 
ATOM     18  C   UNL     1       4.451  -2.653  -4.030  0.00  0.00    -0.019 C 
ATOM     19  C   UNL     1       5.618  -1.694  -4.277  0.00  0.00    -0.003 C 
ATOM     20  C   UNL     1       5.352  -0.380  -3.536  0.00  0.00    -0.011 C 
ATOM     21  C   UNL     1       5.147  -0.673  -2.048  0.00  0.00    -0.036 C 
ATOM     22  H   UNL     1       3.182  -1.159  -2.296  0.00  0.00    -0.080 HD
BRANCH  21  23
ATOM     23  C   UNL     1       4.885   0.617  -1.314  0.00  0.00    -0.043 A 
ATOM     24  C   UNL     1       5.904   1.247  -0.616  0.00  0.00    +0.005 A 
ATOM     25  C   UNL     1       5.617   2.432   0.044  0.00  0.00    +0.020 A 
ATOM     26  C   UNL     1       4.333   2.942  -0.015  0.00  0.00    +0.111 A 
ATOM     27  N   UNL     1       3.389   2.315  -0.688  0.00  0.00    -0.263 NA
ATOM     28  C   UNL     1       3.627   1.190  -1.333  0.00  0.00    +0.112 A 
ENDBRANCH  21  23
ENDBRANCH  15  16
ENDBRANCH  10  15
BRANCH   3  29
ATOM     29  O   UNL     1      -2.337   0.021   0.219  0.00  0.00    -0.448 OA
BRANCH  29  30
ATOM     30  C   UNL     1      -2.987  -0.016   1.411  0.00  0.00    +0.143 A 
ATOM     31  C   UNL     1      -2.405  -0.648   2.501  0.00  0.00    +0.047 A 
ATOM     32  C   UNL     1      -3.068  -0.684   3.712  0.00  0.00    +0.004 A 
ATOM     33  C   UNL     1      -4.311  -0.092   3.840  0.00  0.00    +0.001 A 
ATOM     34  C   UNL     1      -4.894   0.538   2.756  0.00  0.00    +0.019 A 
ATOM     35  C   UNL     1      -4.233   0.582   1.543  0.00  0.00    +0.060 A 
ATOM     36 BR   UNL     1      -5.027   1.451   0.063  0.00  0.00    -0.046 Br
ENDBRANCH  29  30
ENDBRANCH   3  29
TORSDOF 6
