REMARK  Name = ZINC15235560
REMARK  5 active torsions:
REMARK  status: ('A' for Active; 'I' for Inactive)
REMARK    1  A    between atoms: C_1  and  C_2
REMARK    2  A    between atoms: N_10  and  C_14
REMARK    3  A    between atoms: C_14  and  C_15
REMARK    4  A    between atoms: C_15  and  C_16
REMARK    5  A    between atoms: N_21  and  C_22
REMARK                            x       y       z     vdW  Elec       q    Type
REMARK                         _______ _______ _______ _____ _____    ______ ____
ROOT
ATOM      1  C   UNL     1       2.657  -2.616  -0.562  0.00  0.00    +0.127 C 
ENDROOT
BRANCH   1  11
ATOM      2  C   UNL     1       2.768 -10.593  -1.159  0.00  0.00    +0.007 C 
ATOM      3  C   UNL     1       2.654  -9.153  -1.662  0.00  0.00    -0.014 C 
ATOM      4  C   UNL     1       1.478  -8.462  -0.968  0.00  0.00    +0.006 C 
ATOM      5  C   UNL     1       1.358  -7.024  -1.481  0.00  0.00    +0.035 C 
ATOM      6  C   UNL     1       2.652  -6.270  -1.197  0.00  0.00    +0.113 C 
ATOM      7  C   UNL     1       3.837  -6.961  -1.862  0.00  0.00    +0.035 C 
ATOM      8  C   UNL     1       3.948  -8.399  -1.347  0.00  0.00    +0.006 C 
ATOM      9  C   UNL     1       2.542  -4.839  -1.672  0.00  0.00    +0.247 C 
ATOM     10  O   UNL     1       2.358  -4.455  -2.806  0.00  0.00    -0.273 OA
ATOM     11  N   UNL     1       2.693  -4.080  -0.566  0.00  0.00    -0.224 N 
ATOM     12  C   UNL     1       2.885  -4.832   0.525  0.00  0.00    +0.309 C 
ATOM     13  O   UNL     1       3.050  -4.375   1.639  0.00  0.00    -0.252 OA
ATOM     14  N   UNL     1       2.871  -6.150   0.250  0.00  0.00    -0.285 N 
ATOM     15  H   UNL     1       2.987  -6.876   0.882  0.00  0.00    +0.151 HD
ENDBRANCH   1  11
BRANCH   1  16
ATOM     16  C   UNL     1       1.219  -2.142  -0.342  0.00  0.00    +0.115 C 
BRANCH  16  17
ATOM     17  C   UNL     1       1.182  -0.635  -0.338  0.00  0.00    +0.222 C 
ATOM     18  O   UNL     1       2.204  -0.003  -0.495  0.00  0.00    -0.275 OA
ATOM     19  N   UNL     1       0.012   0.009  -0.159  0.00  0.00    -0.240 N 
ATOM     20  C   UNL     1      -0.022   1.357  -0.155  0.00  0.00    +0.310 C 
ATOM     21  O   UNL     1       1.004   1.990  -0.312  0.00  0.00    -0.252 OA
ATOM     22  N   UNL     1      -1.192   2.002   0.019  0.00  0.00    -0.269 N 
ATOM     23  H   UNL     1      -0.806  -0.496  -0.033  0.00  0.00    +0.159 HD
ATOM     24  H   UNL     1      -2.021   1.499   0.065  0.00  0.00    +0.156 HD
BRANCH  22  25
ATOM     25  C   UNL     1      -1.213   3.396   0.132  0.00  0.00    +0.035 A 
ATOM     26  C   UNL     1      -0.157   4.060   0.742  0.00  0.00    +0.023 A 
ATOM     27  C   UNL     1      -0.178   5.437   0.847  0.00  0.00    +0.002 A 
ATOM     28  C   UNL     1      -1.254   6.154   0.356  0.00  0.00    +0.000 A 
ATOM     29  C   UNL     1      -2.310   5.495  -0.247  0.00  0.00    +0.002 A 
ATOM     30  C   UNL     1      -2.292   4.118  -0.360  0.00  0.00    +0.023 A 
ENDBRANCH  22  25
ENDBRANCH  16  17
ENDBRANCH   1  16
TORSDOF 4
