REMARK  Name = ZINC40826957
REMARK  7 active torsions:
REMARK  status: ('A' for Active; 'I' for Inactive)
REMARK    1  A    between atoms: C_1  and  C_2
REMARK    2  A    between atoms: C_4  and  C_38
REMARK    3  A    between atoms: C_10  and  C_11
REMARK    4  A    between atoms: C_11  and  C_12
REMARK    5  A    between atoms: N_14  and  N_15
REMARK    6  A    between atoms: C_22  and  C_37
REMARK    7  A    between atoms: C_23  and  C_25
REMARK                            x       y       z     vdW  Elec       q    Type
REMARK                         _______ _______ _______ _____ _____    ______ ____
ROOT
ATOM      1  N   UNL     1       2.546  -7.332  -2.131  0.00  0.00    -0.184 NA
ATOM      2  C   UNL     1       2.644  -8.102  -3.170  0.00  0.00    +0.070 C 
ATOM      3  C   UNL     1       1.437  -8.784  -3.797  0.00  0.00    +0.058 C 
ATOM      4  C   UNL     1       1.828 -10.223  -4.152  0.00  0.00    +0.014 C 
ATOM      5  C   UNL     1       2.919 -10.236  -5.226  0.00  0.00    +0.075 C 
ATOM      6  C   UNL     1       4.067  -9.365  -4.785  0.00  0.00    +0.115 A 
ATOM      7  C   UNL     1       3.937  -8.377  -3.837  0.00  0.00    +0.042 A 
ATOM      8  C   UNL     1       5.191  -7.774  -3.680  0.00  0.00    +0.009 A 
ATOM      9  C   UNL     1       6.033  -8.415  -4.545  0.00  0.00    +0.193 A 
ATOM     10  O   UNL     1       5.333  -9.376  -5.195  0.00  0.00    -0.454 OA
ATOM     11  C   UNL     1       5.541  -6.645  -2.745  0.00  0.00    +0.048 C 
ENDROOT
BRANCH   9  12
ATOM     12  C   UNL     1       7.458  -8.120  -4.729  0.00  0.00    +0.286 C 
ATOM     13  O   UNL     1       7.956  -7.154  -4.181  0.00  0.00    -0.266 OA
ATOM     14  N   UNL     1       8.217  -8.919  -5.505  0.00  0.00    -0.265 N 
ATOM     15  C   UNL     1       7.668 -10.166  -6.055  0.00  0.00    +0.114 C 
ATOM     16  C   UNL     1       8.720 -11.266  -5.862  0.00  0.00    +0.024 C 
ATOM     17  C   UNL     1       9.966 -10.905  -6.672  0.00  0.00    +0.038 C 
ATOM     18  C   UNL     1      10.410  -9.501  -6.358  0.00  0.00    -0.026 A 
ATOM     19  C   UNL     1       9.540  -8.571  -5.806  0.00  0.00    +0.040 A 
ATOM     20  C   UNL     1       9.979  -7.280  -5.538  0.00  0.00    +0.024 A 
ATOM     21  C   UNL     1      11.280  -6.918  -5.824  0.00  0.00    +0.002 A 
ATOM     22  C   UNL     1      12.147  -7.843  -6.377  0.00  0.00    +0.000 A 
ATOM     23  C   UNL     1      11.716  -9.134  -6.636  0.00  0.00    +0.005 A 
ENDBRANCH   9  12
BRANCH   1  26
ATOM     24  C   UNL     1       1.195  -6.308  -0.460  0.00  0.00    +0.237 C 
ATOM     25  O   UNL     1       2.186  -5.782   0.001  0.00  0.00    -0.274 OA
ATOM     26  N   UNL     1       1.296  -7.108  -1.540  0.00  0.00    -0.206 N 
ATOM     27  H   UNL     1       0.503  -7.528  -1.909  0.00  0.00    +0.177 HD
BRANCH  24  28
ATOM     28  C   UNL     1      -0.150  -6.066   0.175  0.00  0.00    +0.136 C 
BRANCH  28  38
ATOM     29  C   UNL     1       1.247  -5.594   6.904  0.00  0.00    +0.044 C 
ATOM     30  C   UNL     1       0.928  -5.561   5.431  0.00  0.00    -0.047 A 
ATOM     31  C   UNL     1       0.892  -6.747   4.711  0.00  0.00    +0.007 A 
ATOM     32  C   UNL     1       0.604  -6.735   3.374  0.00  0.00    -0.039 A 
ATOM     33  C   UNL     1       0.344  -5.525   2.733  0.00  0.00    +0.027 A 
ATOM     34  C   UNL     1       0.379  -4.322   3.458  0.00  0.00    +0.136 A 
ATOM     35  C   UNL     1       0.669  -4.356   4.816  0.00  0.00    +0.050 A 
ATOM     36  O   UNL     1       0.094  -3.326   2.594  0.00  0.00    -0.463 OA
ATOM     37  C   UNL     1      -0.123  -3.810   1.359  0.00  0.00    +0.200 A 
ATOM     38  C   UNL     1       0.010  -5.144   1.356  0.00  0.00    +0.007 A 
ATOM     39  C   UNL     1       0.567  -8.026   2.597  0.00  0.00    +0.044 C 
ENDBRANCH  28  38
ENDBRANCH  24  28
ENDBRANCH   1  26
TORSDOF 4
