REMARK  Name = ZINC04831223
REMARK  14 active torsions:
REMARK  status: ('A' for Active; 'I' for Inactive)
REMARK    1  A    between atoms: C_1  and  C_2
REMARK    2  A    between atoms: C_2  and  C_3
REMARK    3  A    between atoms: C_4  and  C_28
REMARK    4  A    between atoms: CA_5  and  C_26
REMARK    5  A    between atoms: C_8  and  C_9
REMARK    6  A    between atoms: C_9  and  C_10
REMARK    7  A    between atoms: C_11  and  C_25
REMARK    8  A    between atoms: C_12  and  C_20
REMARK    9  A    between atoms: C_13  and  C_16
REMARK   10  A    between atoms: C_16  and  C_18
REMARK   11  A    between atoms: C_18  and  C_19
REMARK   12  A    between atoms: C_20  and  O_22
REMARK   13  A    between atoms: O_22  and  C_23
REMARK   14  A    between atoms: C_23  and  C_24
REMARK                            x       y       z     vdW  Elec       q    Type
REMARK                         _______ _______ _______ _____ _____    ______ ____
ROOT
ATOM      1  C   UNL     1       1.066   0.351   4.169  0.00  0.00    +0.026 A 
ATOM      2  C   UNL     1       0.077   1.032   4.793  0.00  0.00    -0.015 A 
ATOM      3  C   UNL     1      -0.744   1.599   3.798  0.00  0.00    +0.090 A 
ATOM      4  C   UNL     1      -0.201   1.218   2.569  0.00  0.00    +0.097 A 
ATOM      5  N   UNL     1       0.906   0.458   2.829  0.00  0.00    -0.354 N 
ATOM      6  H   UNL     1       1.485   0.060   2.159  0.00  0.00    +0.166 HD
ATOM      7  C   UNL     1      -0.111   1.163   6.283  0.00  0.00    +0.046 C 
ENDROOT
BRANCH   4   8
ATOM      8  C   UNL     1      -0.718   1.572   1.248  0.00  0.00    +0.180 C 
ATOM      9  O   UNL     1      -1.715   2.257   1.150  0.00  0.00    -0.291 OA
BRANCH   8  10
ATOM     10  C   UNL     1      -0.013   1.086   0.008  0.00  0.00    +0.078 C 
ATOM     11  C   UNL     1      -0.753   1.593  -1.232  0.00  0.00    +0.012 C 
ENDBRANCH   8  10
ENDBRANCH   4   8
BRANCH   3  12
ATOM     12  C   UNL     1      -1.944   2.432   4.013  0.00  0.00    +0.342 C 
ATOM     13  O   UNL     1      -3.037   1.910   4.106  0.00  0.00    -0.245 OA
BRANCH  12  14
ATOM     14  O   UNL     1      -1.828   3.771   4.107  0.00  0.00    -0.461 OA
BRANCH  14  15
ATOM     15  C   UNL     1      -3.050   4.526   4.318  0.00  0.00    +0.229 C 
ATOM     16  C   UNL     1      -2.720   6.018   4.398  0.00  0.00    +0.048 C 
ENDBRANCH  14  15
ENDBRANCH  12  14
ENDBRANCH   3  12
BRANCH   1  17
ATOM     17  C   UNL     1       2.172  -0.407   4.858  0.00  0.00    +0.107 C 
BRANCH  17  23
ATOM     18  C   UNL     1       1.709  -2.861   4.363  0.00  0.00    -0.023 A 
ATOM     19  C   UNL     1       1.187  -3.956   5.054  0.00  0.00    -0.019 A 
ATOM     20  CA  UNL     1       0.851  -3.511   6.321  0.00  0.00    +0.082 A 
ATOM     21  N   UNL     1       1.173  -2.172   6.386  0.00  0.00    -0.355 N 
ATOM     22  H   UNL     1       1.047  -1.597   7.157  0.00  0.00    +0.166 HD
ATOM     23  C   UNL     1       1.693  -1.794   5.200  0.00  0.00    +0.026 A 
ATOM     24  C   UNL     1       1.016  -5.355   4.519  0.00  0.00    +0.046 C 
BRANCH  18  26
ATOM     25  C   UNL     1       3.698  -3.209   2.923  0.00  0.00    +0.009 C 
ATOM     26  C   UNL     1       2.207  -2.865   2.941  0.00  0.00    +0.034 C 
ENDBRANCH  18  26
BRANCH  20  27
ATOM     27  C   UNL     1       0.282  -4.287   7.357  0.00  0.00    +0.276 C 
ATOM     28  O   UNL     1       0.044  -5.463   7.174  0.00  0.00    -0.294 OA
ENDBRANCH  20  27
ENDBRANCH  17  23
ENDBRANCH   1  17
TORSDOF 9
