REMARK  Name = ZINC36415213
REMARK  9 active torsions:
REMARK  status: ('A' for Active; 'I' for Inactive)
REMARK    1  A    between atoms: C_1  and  O_2
REMARK    2  A    between atoms: O_2  and  C_3
REMARK    3  A    between atoms: C_6  and  N_9
REMARK    4  A    between atoms: C_12  and  C_14
REMARK    5  A    between atoms: N_20  and  C_23
REMARK    6  A    between atoms: C_26  and  C_29
REMARK    7  A    between atoms: C_29  and  C_32
REMARK    8  A    between atoms: C_32  and  N_33
REMARK    9  A    between atoms: N_33  and  C_34
REMARK                            x       y       z     vdW  Elec       q    Type
REMARK                         _______ _______ _______ _____ _____    ______ ____
ROOT
ATOM      1  N   UNL     1      -7.690  -4.799   0.383  0.00  0.00    -0.227 N 
ATOM      2  C   UNL     1      -6.763  -4.870  -0.595  0.00  0.00    +0.133 A 
ATOM      3  C   UNL     1      -6.920  -3.721  -1.372  0.00  0.00    +0.016 A 
ATOM      4  C   UNL     1      -7.950  -3.015  -0.789  0.00  0.00    +0.170 A 
ATOM      5  N   UNL     1      -8.369  -3.708   0.248  0.00  0.00    -0.161 NA
ATOM      6  C   UNL     1      -6.064  -3.460  -2.579  0.00  0.00    +0.059 C 
ATOM      7  C   UNL     1      -4.711  -4.147  -2.379  0.00  0.00    +0.119 C 
ATOM      8  N   UNL     1      -4.841  -5.513  -1.887  0.00  0.00    -0.266 N 
ATOM      9  C   UNL     1      -5.739  -5.865  -0.938  0.00  0.00    +0.270 C 
ATOM     10  O   UNL     1      -5.701  -6.954  -0.396  0.00  0.00    -0.268 OA
ENDROOT
BRANCH   1  14
ATOM     11  C   UNL     1      -8.280  -7.658   3.360  0.00  0.00    +0.120 A 
ATOM     12  C   UNL     1      -6.992  -7.272   3.014  0.00  0.00    +0.048 A 
ATOM     13  C   UNL     1      -6.796  -6.326   2.029  0.00  0.00    +0.031 A 
ATOM     14  C   UNL     1      -7.888  -5.760   1.383  0.00  0.00    +0.066 A 
ATOM     15  C   UNL     1      -9.176  -6.146   1.730  0.00  0.00    +0.031 A 
ATOM     16  C   UNL     1      -9.371  -7.096   2.712  0.00  0.00    +0.048 A 
BRANCH  11  18
ATOM     17  C   UNL     1      -7.304  -9.126   4.956  0.00  0.00    +0.277 C 
ATOM     18  O   UNL     1      -8.472  -8.590   4.331  0.00  0.00    -0.495 OA
ENDBRANCH  11  18
ENDBRANCH   1  14
BRANCH   8  19
ATOM     19  C   UNL     1      -4.003  -6.499  -2.417  0.00  0.00    +0.037 A 
ATOM     20  C   UNL     1      -4.534  -7.515  -3.201  0.00  0.00    +0.024 A 
ATOM     21  C   UNL     1      -3.704  -8.487  -3.723  0.00  0.00    +0.006 A 
ATOM     22  C   UNL     1      -2.346  -8.450  -3.466  0.00  0.00    -0.043 A 
ATOM     23  C   UNL     1      -1.814  -7.440  -2.686  0.00  0.00    +0.006 A 
ATOM     24  C   UNL     1      -2.638  -6.461  -2.165  0.00  0.00    +0.024 A 
BRANCH  22  25
ATOM     25  C   UNL     1      -1.443  -9.514  -4.037  0.00  0.00    -0.019 C 
ATOM     26  C   UNL     1      -0.149  -9.054  -4.712  0.00  0.00    +0.010 C 
ATOM     27  C   UNL     1      -1.309  -9.584  -5.559  0.00  0.00    +0.010 C 
BRANCH  25  28
ATOM     28  C   UNL     1      -1.406 -10.833  -3.263  0.00  0.00    -0.071 C 
BRANCH  28  29
ATOM     29  N   UNL     1      -0.820 -10.605  -1.935  0.00  0.00    +0.381 N 
ATOM     30  H   UNL     1       0.085 -10.172  -2.036  0.00  0.00    -0.085 HD
ATOM     31  H   UNL     1      -1.425 -10.000  -1.400  0.00  0.00    -0.085 HD
BRANCH  29  32
ATOM     32  C   UNL     1      -0.672 -11.890  -1.238  0.00  0.00    -0.072 C 
ATOM     33  C   UNL     1      -2.061 -12.472  -0.902  0.00  0.00    -0.016 C 
ATOM     34  C   UNL     1      -1.869 -13.133   0.486  0.00  0.00    -0.002 C 
ATOM     35  C   UNL     1      -0.918 -12.145   1.207  0.00  0.00    -0.002 C 
ATOM     36  C   UNL     1       0.054 -11.682   0.102  0.00  0.00    -0.016 C 
ENDBRANCH  29  32
ENDBRANCH  28  29
ENDBRANCH  25  28
ENDBRANCH  22  25
ENDBRANCH   8  19
BRANCH   4  37
ATOM     37  C   UNL     1      -8.499  -1.692  -1.256  0.00  0.00    +0.436 C 
ATOM     38  F   UNL     1      -9.536  -1.913  -2.168  0.00  0.00    -0.164 F 
ATOM     39  F   UNL     1      -8.988  -0.976  -0.158  0.00  0.00    -0.164 F 
ATOM     40  F   UNL     1      -7.482  -0.958  -1.876  0.00  0.00    -0.164 F 
ENDBRANCH   4  37
TORSDOF 8
