REMARK  Name = ZINC39325316
REMARK  13 active torsions:
REMARK  status: ('A' for Active; 'I' for Inactive)
REMARK    1  A    between atoms: C_1  and  C_2
REMARK    2  A    between atoms: C_2  and  O_3
REMARK    3  A    between atoms: O_3  and  C_4
REMARK    4  A    between atoms: C_11  and  C_16
REMARK    5  A    between atoms: C_16  and  N_17
REMARK    6  A    between atoms: N_17  and  C_18
REMARK    7  A    between atoms: N_17  and  S_26
REMARK    8  A    between atoms: C_18  and  C_19
REMARK    9  A    between atoms: C_19  and  C_20
REMARK   10  A    between atoms: S_26  and  C_29
REMARK   11  A    between atoms: C_30  and  C_37
REMARK   12  A    between atoms: C_32  and  C_36
REMARK   13  A    between atoms: C_34  and  C_35
REMARK                            x       y       z     vdW  Elec       q    Type
REMARK                         _______ _______ _______ _____ _____    ______ ____
ROOT
ATOM      1  N   UNL     1       3.747  -6.994   4.220  0.00  0.00    -0.175 NA
ENDROOT
BRANCH   1   2
ATOM      2  S   UNL     1       3.831  -7.409   5.821  0.00  0.00    +0.061 S 
ATOM      3  O   UNL     1       4.451  -8.686   5.877  0.00  0.00    -0.153 OA
ATOM      4  O   UNL     1       4.351  -6.279   6.507  0.00  0.00    -0.153 OA
BRANCH   2   5
ATOM      5  C   UNL     1       2.178  -7.627   6.391  0.00  0.00    +0.111 A 
ATOM      6  C   UNL     1       1.535  -8.835   6.200  0.00  0.00    -0.024 A 
ATOM      7  C   UNL     1       0.238  -9.006   6.646  0.00  0.00    +0.008 A 
ATOM      8  C   UNL     1      -0.416  -7.968   7.285  0.00  0.00    -0.050 A 
ATOM      9  C   UNL     1       0.228  -6.760   7.476  0.00  0.00    +0.008 A 
ATOM     10  C   UNL     1       1.526  -6.591   7.033  0.00  0.00    -0.024 A 
ATOM     11  C   UNL     1       2.230  -5.276   7.247  0.00  0.00    +0.046 C 
ATOM     12  C   UNL     1      -1.830  -8.154   7.771  0.00  0.00    +0.044 C 
ATOM     13  C   UNL     1       2.247  -9.967   5.504  0.00  0.00    +0.046 C 
ENDBRANCH   2   5
ENDBRANCH   1   2
BRANCH   1  14
ATOM     14  C   UNL     1       3.335  -5.642   3.835  0.00  0.00    +0.126 C 
BRANCH  14  22
ATOM     15  C   UNL     1      -0.534  -2.321   0.991  0.00  0.00    +0.121 A 
ATOM     16  C   UNL     1      -0.927  -3.392   0.180  0.00  0.00    +0.047 A 
ATOM     17  C   UNL     1      -0.571  -4.676   0.441  0.00  0.00    +0.027 A 
ATOM     18  C   UNL     1       0.223  -4.985   1.561  0.00  0.00    +0.041 A 
ATOM     19  N   UNL     1       0.564  -6.250   1.805  0.00  0.00    -0.284 N 
ATOM     20  C   UNL     1       1.307  -6.612   2.838  0.00  0.00    +0.225 C 
ATOM     21  O   UNL     1       1.587  -7.783   3.009  0.00  0.00    -0.275 OA
ATOM     22  C   UNL     1       1.807  -5.563   3.806  0.00  0.00    +0.114 C 
ATOM     23  C   UNL     1       1.421  -4.122   3.533  0.00  0.00    -0.003 C 
ATOM     24  C   UNL     1       0.652  -3.879   2.434  0.00  0.00    -0.004 A 
ATOM     25  C   UNL     1       0.240  -2.516   2.095  0.00  0.00    +0.055 A 
ATOM     26  H   UNL     1       0.253  -6.939   1.196  0.00  0.00    +0.155 HD
BRANCH  15  27
ATOM     27  O   UNL     1      -0.928  -1.060   0.668  0.00  0.00    -0.492 OA
BRANCH  27  29
ATOM     28  C   UNL     1      -2.079   0.565  -0.701  0.00  0.00    +0.048 C 
ATOM     29  C   UNL     1      -1.738  -0.913  -0.500  0.00  0.00    +0.225 C 
ENDBRANCH  27  29
ENDBRANCH  15  27
ENDBRANCH  14  22
ENDBRANCH   1  14
BRANCH   1  30
ATOM     30  C   UNL     1       4.084  -7.978   3.189  0.00  0.00    +0.114 C 
BRANCH  30  31
ATOM     31  C   UNL     1       5.554  -7.821   2.796  0.00  0.00    +0.052 C 
BRANCH  31  32
ATOM     32  C   UNL     1       5.901  -8.834   1.735  0.00  0.00    -0.046 A 
ATOM     33  C   UNL     1       6.366 -10.084   2.099  0.00  0.00    +0.003 A 
ATOM     34  C   UNL     1       6.684 -11.013   1.126  0.00  0.00    +0.000 A 
ATOM     35  C   UNL     1       6.537 -10.693  -0.211  0.00  0.00    +0.000 A 
ATOM     36  C   UNL     1       6.072  -9.443  -0.575  0.00  0.00    +0.000 A 
ATOM     37  C   UNL     1       5.749  -8.515   0.398  0.00  0.00    +0.003 A 
ENDBRANCH  31  32
ENDBRANCH  30  31
ENDBRANCH   1  30
TORSDOF 9
