REMARK  Name = ZINC09185504
REMARK  6 active torsions:
REMARK  status: ('A' for Active; 'I' for Inactive)
REMARK    1  A    between atoms: C_1  and  C_2
REMARK    2  A    between atoms: C_3  and  C_36
REMARK    3  A    between atoms: C_5  and  N_11
REMARK    4  A    between atoms: C_6  and  C_7
REMARK    5  A    between atoms: C_7  and  O_9
REMARK    6  A    between atoms: O_9  and  C_10
REMARK                            x       y       z     vdW  Elec       q    Type
REMARK                         _______ _______ _______ _____ _____    ______ ____
ROOT
ATOM      1  N   UNL     1      -1.974  -1.676   1.361  0.00  0.00    -0.203 N 
ATOM      2  C   UNL     1      -3.235  -1.947   0.955  0.00  0.00    +0.229 C 
ATOM      3  O   UNL     1      -3.697  -3.049   0.749  0.00  0.00    -0.275 OA
ATOM      4  C   UNL     1      -3.982  -0.642   0.795  0.00  0.00    +0.074 C 
ATOM      5  C   UNL     1      -4.276  -0.400  -0.696  0.00  0.00    -0.054 C 
ATOM      6  C   UNL     1      -4.268  -1.746  -1.443  0.00  0.00    -0.016 C 
ATOM      7  C   UNL     1      -2.819  -1.938  -1.932  0.00  0.00    -0.020 C 
ATOM      8  C   UNL     1      -2.053  -0.702  -1.417  0.00  0.00    -0.076 C 
ATOM      9  C   UNL     1      -2.693   1.227  -0.107  0.00  0.00    +0.053 C 
ATOM     10  C   UNL     1      -2.936   0.437   1.184  0.00  0.00    +0.089 C 
ATOM     11  C   UNL     1      -1.706  -0.375   1.523  0.00  0.00    +0.230 C 
ATOM     12  O   UNL     1      -0.643   0.081   1.887  0.00  0.00    -0.275 OA
ATOM     13  C   UNL     1      -1.256   1.651  -0.228  0.00  0.00    -0.026 A 
ATOM     14  C   UNL     1      -0.066   0.959  -0.271  0.00  0.00    +0.024 A 
ATOM     15  C   UNL     1       1.130   1.647  -0.395  0.00  0.00    +0.041 A 
ATOM     16  C   UNL     1       1.125   3.029  -0.467  0.00  0.00    +0.022 A 
ATOM     17  C   UNL     1      -0.066   3.724  -0.419  0.00  0.00    +0.025 A 
ATOM     18  C   UNL     1      -1.273   3.040  -0.295  0.00  0.00    +0.036 A 
ATOM     19  N   UNL     1      -2.586   3.511  -0.225  0.00  0.00    -0.286 N 
ATOM     20  C   UNL     1      -3.480   2.509  -0.121  0.00  0.00    +0.212 C 
ATOM     21  O   UNL     1      -4.686   2.620  -0.045  0.00  0.00    -0.277 OA
ATOM     22 CL   UNL     1       2.631   0.777  -0.458  0.00  0.00    -0.084 Cl
ATOM     23  H   UNL     1      -2.827   4.450  -0.257  0.00  0.00    +0.155 HD
ATOM     24  N   UNL     1      -3.106   0.304  -1.169  0.00  0.00    +0.395 N 
ATOM     25  H   UNL     1      -3.313   0.822  -2.030  0.00  0.00    -0.079 HD
ENDROOT
BRANCH   1  30
ATOM     26  C   UNL     1       0.635  -5.152   3.963  0.00  0.00    +0.045 C 
ATOM     27  C   UNL     1       0.268  -4.351   2.741  0.00  0.00    -0.025 A 
ATOM     28  C   UNL     1       0.899  -4.535   1.567  0.00  0.00    -0.008 A 
ATOM     29  S   UNL     1       0.095  -3.371   0.484  0.00  0.00    -0.077 S 
ATOM     30  C   UNL     1      -1.033  -2.673   1.596  0.00  0.00    +0.096 A 
ATOM     31  C   UNL     1      -0.775  -3.354   2.780  0.00  0.00    +0.091 A 
ATOM     32  C   UNL     1       2.013  -5.497   1.244  0.00  0.00    +0.052 C 
BRANCH  31  33
ATOM     33  C   UNL     1      -1.525  -3.074   4.007  0.00  0.00    +0.342 C 
ATOM     34  O   UNL     1      -2.546  -3.689   4.250  0.00  0.00    -0.245 OA
BRANCH  33  35
ATOM     35  O   UNL     1      -1.083  -2.134   4.867  0.00  0.00    -0.464 OA
ATOM     36  C   UNL     1      -1.876  -1.909   6.063  0.00  0.00    +0.280 C 
ENDBRANCH  33  35
ENDBRANCH  31  33
ENDBRANCH   1  30
TORSDOF 3
