REMARK  Name = ZINC43736127
REMARK  6 active torsions:
REMARK  status: ('A' for Active; 'I' for Inactive)
REMARK    1  A    between atoms: C_1  and  C_2
REMARK    2  A    between atoms: C_2  and  O_4
REMARK    3  A    between atoms: O_4  and  C_5
REMARK    4  A    between atoms: C_9  and  C_31
REMARK    5  A    between atoms: C_14  and  C_30
REMARK    6  A    between atoms: C_22  and  O_24
REMARK                            x       y       z     vdW  Elec       q    Type
REMARK                         _______ _______ _______ _____ _____    ______ ____
ROOT
ATOM      1  C   UNL     1      -0.231  -2.156  -0.947  0.00  0.00    +0.179 C 
ATOM      2  C   UNL     1      -1.657  -2.688  -0.913  0.00  0.00    +0.045 C 
ATOM      3  C   UNL     1      -2.356  -2.560  -2.264  0.00  0.00    +0.013 C 
ATOM      4  C   UNL     1      -1.517  -3.225  -3.357  0.00  0.00    +0.001 C 
ATOM      5  C   UNL     1      -2.253  -3.212  -4.694  0.00  0.00    +0.001 C 
ATOM      6  C   UNL     1      -3.667  -2.667  -4.599  0.00  0.00    +0.005 C 
ATOM      7  C   UNL     1      -4.424  -2.797  -5.929  0.00  0.00    +0.015 C 
ATOM      8  C   UNL     1      -3.497  -3.097  -7.075  0.00  0.00    +0.029 C 
ATOM      9  C   UNL     1      -2.216  -2.244  -6.997  0.00  0.00    +0.006 C 
ATOM     10  C   UNL     1      -1.444  -2.438  -5.733  0.00  0.00    -0.002 C 
ATOM     11  C   UNL     1      -0.088  -3.109  -5.899  0.00  0.00    +0.026 C 
ATOM     12  C   UNL     1       0.699  -2.978  -4.593  0.00  0.00    +0.113 C 
ATOM     13  C   UNL     1      -0.171  -2.520  -3.433  0.00  0.00    +0.091 C 
ATOM     14  C   UNL     1       0.578  -2.724  -2.108  0.00  0.00    +0.081 C 
ATOM     15 CL   UNL     1       1.506  -4.543  -4.207  0.00  0.00    -0.119 Cl
ATOM     16  C   UNL     1      -1.540  -2.584  -8.332  0.00  0.00    +0.012 C 
ATOM     17  C   UNL     1      -2.750  -2.632  -9.310  0.00  0.00    +0.075 C 
ATOM     18  C   UNL     1      -4.006  -2.671  -8.445  0.00  0.00    +0.139 C 
ATOM     19  O   UNL     1      -5.138  -2.425  -8.752  0.00  0.00    -0.297 OA
ATOM     20  C   UNL     1      -3.210  -4.595  -7.186  0.00  0.00    +0.019 C 
ATOM     21  C   UNL     1      -1.325  -4.705  -2.976  0.00  0.00    +0.014 C 
ENDROOT
BRANCH  13  22
ATOM     22  O   UNL     1      -0.383  -1.100  -3.552  0.00  0.00    -0.386 OA
ATOM     23  H   UNL     1       0.433  -0.583  -3.606  0.00  0.00    +0.210 HD
ENDBRANCH  13  22
BRANCH   1  24
ATOM     24  O   UNL     1      -0.244  -0.728  -1.003  0.00  0.00    -0.461 OA
BRANCH  24  26
ATOM     25  C   UNL     1      -0.306   1.435   0.187  0.00  0.00    +0.136 C 
ATOM     26  C   UNL     1      -0.289  -0.072   0.168  0.00  0.00    +0.304 C 
ATOM     27  O   UNL     1      -0.317  -0.690   1.206  0.00  0.00    -0.251 OA
ENDBRANCH  24  26
ENDBRANCH   1  24
TORSDOF 3
