REMARK  Name = ZINC03670567
REMARK  6 active torsions:
REMARK  status: ('A' for Active; 'I' for Inactive)
REMARK    1  A    between atoms: C_1  and  C_2
REMARK    2  A    between atoms: C_5  and  N_9
REMARK    3  A    between atoms: C_7  and  C_8
REMARK    4  A    between atoms: C_19  and  C_20
REMARK    5  A    between atoms: C_19  and  O_29
REMARK    6  A    between atoms: N_22  and  C_23
REMARK                            x       y       z     vdW  Elec       q    Type
REMARK                         _______ _______ _______ _____ _____    ______ ____
ROOT
ATOM      1  N   UNL     1       0.493  -0.840  -4.553  0.00  0.00    -0.214 N 
ATOM      2  C   UNL     1       1.622  -1.109  -5.234  0.00  0.00    +0.314 C 
ATOM      3  O   UNL     1       1.878  -2.267  -5.498  0.00  0.00    -0.252 OA
ATOM      4  N   UNL     1       2.477  -0.159  -5.634  0.00  0.00    -0.269 N 
ATOM      5  C   UNL     1       2.276   1.199  -5.381  0.00  0.00    +0.043 A 
ATOM      6  C   UNL     1       3.194   2.145  -5.818  0.00  0.00    +0.025 A 
ATOM      7  C   UNL     1       2.977   3.484  -5.559  0.00  0.00    +0.017 A 
ATOM      8  C   UNL     1       1.850   3.888  -4.865  0.00  0.00    +0.018 A 
ATOM      9  C   UNL     1       0.931   2.948  -4.427  0.00  0.00    +0.025 A 
ATOM     10  C   UNL     1       1.145   1.614  -4.685  0.00  0.00    +0.034 A 
ATOM     11  C   UNL     1       0.168   0.558  -4.224  0.00  0.00    +0.247 C 
ATOM     12 BR   UNL     1       1.563   5.724  -4.515  0.00  0.00    -0.050 Br
ATOM     13  H   UNL     1       3.272  -0.426  -6.121  0.00  0.00    +0.156 HD
ENDROOT
BRANCH   1  18
ATOM     14  C   UNL     1      -2.971  -5.045  -2.968  0.00  0.00    +0.044 C 
ATOM     15  C   UNL     1      -2.051  -3.928  -3.389  0.00  0.00    -0.047 A 
ATOM     16  C   UNL     1      -2.296  -3.236  -4.561  0.00  0.00    +0.005 A 
ATOM     17  C   UNL     1      -1.455  -2.212  -4.949  0.00  0.00    +0.024 A 
ATOM     18  C   UNL     1      -0.361  -1.877  -4.162  0.00  0.00    +0.042 A 
ATOM     19  C   UNL     1      -0.115  -2.577  -2.988  0.00  0.00    +0.027 A 
ATOM     20  C   UNL     1      -0.963  -3.597  -2.603  0.00  0.00    -0.046 A 
ATOM     21  C   UNL     1      -0.699  -4.354  -1.327  0.00  0.00    +0.044 C 
ENDBRANCH   1  18
BRANCH  11  22
ATOM     22  C   UNL     1       0.039   0.666  -2.727  0.00  0.00    +0.269 C 
ATOM     23  O   UNL     1      -1.007   1.030  -2.232  0.00  0.00    -0.270 OA
ATOM     24  N   UNL     1       1.086   0.358  -1.936  0.00  0.00    -0.308 N 
ATOM     25  H   UNL     1       1.923   0.068  -2.331  0.00  0.00    +0.149 HD
BRANCH  24  26
ATOM     26  C   UNL     1       0.961   0.463  -0.480  0.00  0.00    +0.073 C 
ATOM     27  C   UNL     1       1.966  -0.478   0.187  0.00  0.00    +0.022 C 
ATOM     28  C   UNL     1       1.836  -0.368   1.707  0.00  0.00    +0.002 C 
ATOM     29  C   UNL     1       2.119   1.071   2.141  0.00  0.00    +0.000 C 
ATOM     30  C   UNL     1       1.114   2.012   1.474  0.00  0.00    +0.002 C 
ATOM     31  C   UNL     1       1.245   1.903  -0.046  0.00  0.00    +0.022 C 
ENDBRANCH  24  26
ENDBRANCH  11  22
BRANCH  11  32
ATOM     32  O   UNL     1      -1.107   0.860  -4.795  0.00  0.00    -0.360 OA
ATOM     33  H   UNL     1      -1.433   1.746  -4.585  0.00  0.00    +0.213 HD
ENDBRANCH  11  32
TORSDOF 4
