REMARK  Name = ZINC52154710
REMARK  6 active torsions:
REMARK  status: ('A' for Active; 'I' for Inactive)
REMARK    1  A    between atoms: C_1  and  C_2
REMARK    2  A    between atoms: C_3  and  C_19
REMARK    3  A    between atoms: C_6  and  O_11
REMARK    4  A    between atoms: C_7  and  C_8
REMARK    5  A    between atoms: O_11  and  C_12
REMARK    6  A    between atoms: C_12  and  C_13
REMARK                            x       y       z     vdW  Elec       q    Type
REMARK                         _______ _______ _______ _____ _____    ______ ____
ROOT
ATOM      1  C   UNL     1      -0.018   1.503   0.010  0.00  0.00    +0.046 C 
ATOM      2  C   UNL     1       0.002  -0.004   0.002  0.00  0.00    -0.012 A 
ATOM      3  C   UNL     1       0.006  -0.712  -1.189  0.00  0.00    +0.064 A 
ATOM      4  N   UNL     1       0.024  -2.030  -1.174  0.00  0.00    -0.151 NA
ATOM      5  N   UNL     1       0.038  -2.710  -0.087  0.00  0.00    -0.111 NA
ATOM      6  C   UNL     1       0.036  -2.134   1.106  0.00  0.00    +0.245 A 
ATOM      7  C   UNL     1       0.023  -0.733   1.197  0.00  0.00    +0.080 A 
ATOM      8  C   UNL     1      -0.010   0.026  -2.503  0.00  0.00    +0.068 C 
ENDROOT
BRANCH   7   9
ATOM      9  C   UNL     1       0.026  -0.050   2.510  0.00  0.00    +0.100 C 
ATOM     10  N   UNL     1       1.081  -0.162   3.315  0.00  0.00    -0.387 N 
ATOM     11  N   UNL     1      -1.025   0.675   2.886  0.00  0.00    -0.344 N 
ATOM     12  H   UNL     1       1.083   0.286   4.176  0.00  0.00    +0.157 HD
ATOM     13  H   UNL     1      -1.793   0.756   2.299  0.00  0.00    +0.144 HD
ATOM     14  H   UNL     1      -1.023   1.122   3.747  0.00  0.00    +0.144 HD
ATOM     15  H   UNL     1       1.847  -0.690   3.042  0.00  0.00    +0.157 HD
ENDBRANCH   7   9
BRANCH   6  16
ATOM     16  O   UNL     1       0.051  -2.891   2.229  0.00  0.00    -0.475 OA
BRANCH  16  17
ATOM     17  C   UNL     1       0.068  -4.309   2.056  0.00  0.00    +0.234 C 
BRANCH  17  18
ATOM     18  C   UNL     1       0.084  -4.990   3.426  0.00  0.00    +0.027 C 
ATOM     19  C   UNL     1       1.390  -4.654   4.148  0.00  0.00    +0.007 C 
ATOM     20  C   UNL     1       1.405  -5.336   5.518  0.00  0.00    +0.000 C 
ATOM     21  C   UNL     1       1.298  -6.851   5.335  0.00  0.00    +0.000 C 
ATOM     22  C   UNL     1      -0.008  -7.187   4.613  0.00  0.00    +0.000 C 
ATOM     23  C   UNL     1      -0.024  -6.505   3.243  0.00  0.00    +0.007 C 
ENDBRANCH  17  18
ENDBRANCH  16  17
ENDBRANCH   6  16
TORSDOF 4
