REMARK  Name = ZINC38707634
REMARK  15 active torsions:
REMARK  status: ('A' for Active; 'I' for Inactive)
REMARK    1  A    between atoms: C_1  and  C_2
REMARK    2  A    between atoms: C_3  and  C_34
REMARK    3  A    between atoms: C_4  and  C_33
REMARK    4  A    between atoms: C_5  and  S_10
REMARK    5  A    between atoms: C_6  and  C_9
REMARK    6  A    between atoms: C_7  and  C_8
REMARK    7  A    between atoms: S_10  and  N_13
REMARK    8  A    between atoms: N_13  and  C_14
REMARK    9  A    between atoms: C_22  and  C_31
REMARK   10  A    between atoms: C_22  and  C_32
REMARK   11  A    between atoms: N_25  and  C_26
REMARK   12  A    between atoms: C_26  and  C_27
REMARK   13  A    between atoms: C_27  and  C_28
REMARK   14  A    between atoms: C_28  and  C_29
REMARK   15  A    between atoms: C_28  and  C_30
REMARK                            x       y       z     vdW  Elec       q    Type
REMARK                         _______ _______ _______ _____ _____    ______ ____
ROOT
ATOM      1  C   UNL     1       1.680  -5.729   0.806  0.00  0.00    +0.052 A 
ATOM      2  C   UNL     1       1.875  -4.412   1.206  0.00  0.00    +0.026 A 
ATOM      3  C   UNL     1       2.853  -4.107   2.134  0.00  0.00    +0.029 A 
ATOM      4  C   UNL     1       3.640  -5.116   2.666  0.00  0.00    +0.078 A 
ATOM      5  C   UNL     1       3.449  -6.437   2.265  0.00  0.00    +0.144 A 
ATOM      6  C   UNL     1       2.465  -6.742   1.341  0.00  0.00    +0.072 A 
ATOM      7  O   UNL     1       4.234  -7.418   2.784  0.00  0.00    -0.489 OA
ATOM      8  C   UNL     1       5.571  -7.508   2.299  0.00  0.00    +0.244 C 
ATOM      9  C   UNL     1       6.200  -6.119   2.208  0.00  0.00    +0.076 C 
ATOM     10  C   UNL     1       5.877  -5.323   3.446  0.00  0.00    +0.229 C 
ATOM     11  O   UNL     1       6.730  -5.132   4.287  0.00  0.00    -0.275 OA
ATOM     12  N   UNL     1       4.633  -4.821   3.613  0.00  0.00    -0.268 N 
ATOM     13  C   UNL     1       7.718  -6.258   2.075  0.00  0.00    +0.024 C 
ATOM     14  C   UNL     1       5.649  -5.393   0.979  0.00  0.00    +0.024 C 
ENDROOT
BRANCH   1  15
ATOM     15  N   UNL     1       0.688  -6.034  -0.131  0.00  0.00    -0.216 N 
ATOM     16  H   UNL     1       0.891  -6.620  -0.878  0.00  0.00    +0.174 HD
BRANCH  15  17
ATOM     17  S   UNL     1      -0.831  -5.397   0.033  0.00  0.00    +0.073 S 
ATOM     18  O   UNL     1      -1.192  -5.553   1.399  0.00  0.00    -0.150 OA
ATOM     19  O   UNL     1      -1.613  -5.931  -1.027  0.00  0.00    -0.150 OA
BRANCH  17  24
ATOM     20  C   UNL     1      -0.391   0.537  -0.969  0.00  0.00    +0.044 C 
ATOM     21  C   UNL     1      -0.501  -0.945  -0.719  0.00  0.00    -0.044 A 
ATOM     22  C   UNL     1      -0.549  -1.426   0.577  0.00  0.00    -0.043 A 
ATOM     23  C   UNL     1      -0.650  -2.785   0.806  0.00  0.00    -0.020 A 
ATOM     24  C   UNL     1      -0.704  -3.664  -0.260  0.00  0.00    +0.115 A 
ATOM     25  C   UNL     1      -0.657  -3.183  -1.555  0.00  0.00    -0.020 A 
ATOM     26  C   UNL     1      -0.560  -1.823  -1.784  0.00  0.00    -0.043 A 
ATOM     27  C   UNL     1      -0.515  -1.299  -3.196  0.00  0.00    +0.044 C 
ATOM     28  C   UNL     1      -0.716  -4.141  -2.717  0.00  0.00    +0.046 C 
ATOM     29  C   UNL     1      -0.700  -3.309   2.218  0.00  0.00    +0.046 C 
ATOM     30  C   UNL     1      -0.490  -0.468   1.738  0.00  0.00    +0.044 C 
ENDBRANCH  17  24
ENDBRANCH  15  17
ENDBRANCH   1  15
BRANCH  12  31
ATOM     31  C   UNL     1       4.325  -3.978   4.771  0.00  0.00    +0.114 C 
BRANCH  31  32
ATOM     32  C   UNL     1       3.846  -4.857   5.928  0.00  0.00    +0.022 C 
BRANCH  32  33
ATOM     33  C   UNL     1       3.524  -3.978   7.138  0.00  0.00    -0.016 C 
ATOM     34  C   UNL     1       2.928  -4.840   8.252  0.00  0.00    +0.007 C 
ATOM     35  C   UNL     1       4.806  -3.311   7.640  0.00  0.00    +0.007 C 
ENDBRANCH  32  33
ENDBRANCH  31  32
ENDBRANCH  12  31
TORSDOF 6
