REMARK  Name = ZINC39448843
REMARK  6 active torsions:
REMARK  status: ('A' for Active; 'I' for Inactive)
REMARK    1  A    between atoms: C_1  and  O_2
REMARK    2  A    between atoms: O_2  and  C_3
REMARK    3  A    between atoms: C_8  and  C_9
REMARK    4  A    between atoms: C_14  and  S_16
REMARK    5  A    between atoms: S_16  and  C_17
REMARK    6  A    between atoms: C_17  and  C_18
REMARK                            x       y       z     vdW  Elec       q    Type
REMARK                         _______ _______ _______ _____ _____    ______ ____
ROOT
ATOM      1  C   UNL     1       0.052  -2.828   0.005  0.00  0.00    +0.204 C 
ATOM      2  N   UNL     1       0.213  -2.147  -1.284  0.00  0.00    -0.336 N 
ATOM      3  C   UNL     1       1.238  -2.414  -2.049  0.00  0.00    +0.190 C 
ATOM      4  N   UNL     1       2.152  -3.340  -1.717  0.00  0.00    -0.195 NA
ATOM      5  C   UNL     1       1.926  -4.196  -0.736  0.00  0.00    +0.159 C 
ATOM      6  N   UNL     1       0.720  -4.137  -0.076  0.00  0.00    -0.300 N 
ATOM      7  N   UNL     1       1.386  -1.724  -3.236  0.00  0.00    -0.329 N 
ATOM      8  H   UNL     1       0.734  -1.052  -3.490  0.00  0.00    +0.145 HD
ATOM      9  H   UNL     1       2.142  -1.910  -3.814  0.00  0.00    +0.145 HD
ATOM     10  H   UNL     1       0.324  -4.928   0.321  0.00  0.00    +0.150 HD
ATOM     11  H   UNL     1      -0.446  -1.495  -1.571  0.00  0.00    +0.164 HD
ENDROOT
BRANCH   1  17
ATOM     12  C   UNL     1       0.626  -0.618   1.042  0.00  0.00    +0.127 A 
ATOM     13  C   UNL     1       1.202   0.139   2.051  0.00  0.00    +0.046 A 
ATOM     14  C   UNL     1       1.835  -0.488   3.107  0.00  0.00    +0.004 A 
ATOM     15  C   UNL     1       1.895  -1.869   3.158  0.00  0.00    +0.001 A 
ATOM     16  C   UNL     1       1.321  -2.625   2.153  0.00  0.00    +0.011 A 
ATOM     17  C   UNL     1       0.682  -2.003   1.097  0.00  0.00    +0.034 A 
BRANCH  12  19
ATOM     18  C   UNL     1      -0.017   1.425   0.010  0.00  0.00    +0.277 C 
ATOM     19  O   UNL     1       0.002  -0.004   0.002  0.00  0.00    -0.495 OA
ENDBRANCH  12  19
ENDBRANCH   1  17
BRANCH   5  20
ATOM     20  S   UNL     1       3.142  -5.388  -0.282  0.00  0.00    -0.081 S 
BRANCH  20  21
ATOM     21  C   UNL     1       4.518  -5.066  -1.420  0.00  0.00    +0.173 C 
BRANCH  21  22
ATOM     22  C   UNL     1       5.641  -6.030  -1.136  0.00  0.00    +0.234 C 
ATOM     23  O   UNL     1       5.525  -6.853  -0.252  0.00  0.00    -0.274 OA
ATOM     24  N   UNL     1       6.774  -5.978  -1.863  0.00  0.00    -0.239 N 
ATOM     25  C   UNL     1       6.935  -5.032  -2.886  0.00  0.00    +0.044 A 
ATOM     26  C   UNL     1       6.791  -3.688  -2.558  0.00  0.00    +0.024 A 
ATOM     27  C   UNL     1       6.973  -2.711  -3.514  0.00  0.00    +0.002 A 
ATOM     28  C   UNL     1       7.305  -3.083  -4.804  0.00  0.00    +0.000 A 
ATOM     29  C   UNL     1       7.433  -4.413  -5.131  0.00  0.00    +0.005 A 
ATOM     30  C   UNL     1       7.233  -5.420  -4.183  0.00  0.00    -0.025 A 
ATOM     31  C   UNL     1       7.326  -6.827  -4.726  0.00  0.00    +0.042 C 
ATOM     32  C   UNL     1       7.027  -7.893  -3.687  0.00  0.00    +0.042 C 
ATOM     33  C   UNL     1       8.021  -7.853  -2.554  0.00  0.00    -0.025 A 
ATOM     34  C   UNL     1       7.832  -6.863  -1.618  0.00  0.00    +0.044 A 
ATOM     35  C   UNL     1       8.658  -6.761  -0.512  0.00  0.00    +0.024 A 
ATOM     36  C   UNL     1       9.701  -7.662  -0.376  0.00  0.00    +0.002 A 
ATOM     37  C   UNL     1       9.910  -8.641  -1.330  0.00  0.00    +0.000 A 
ATOM     38  C   UNL     1       9.060  -8.747  -2.439  0.00  0.00    +0.005 A 
ENDBRANCH  21  22
ENDBRANCH  20  21
ENDBRANCH   5  20
TORSDOF 5
