REMARK  Name = ZINC12890987
REMARK  15 active torsions:
REMARK  status: ('A' for Active; 'I' for Inactive)
REMARK    1  A    between atoms: CD1_1  and  CG1_2
REMARK    2  A    between atoms: CG1_2  and  CB_3
REMARK    3  A    between atoms: CB_3  and  CG2_5
REMARK    4  A    between atoms: CB_3  and  CA_6
REMARK    5  A    between atoms: CA_6  and  C_8
REMARK    6  A    between atoms: CA_6  and  N_19
REMARK    7  A    between atoms: N_10  and  CA_11
REMARK    8  A    between atoms: CA_11  and  CB_13
REMARK    9  A    between atoms: CA_11  and  C_17
REMARK   10  A    between atoms: CB_13  and  CG_14
REMARK   11  A    between atoms: CG_14  and  SD_15
REMARK   12  A    between atoms: SD_15  and  CE_16
REMARK   13  A    between atoms: C_32  and  C_34
REMARK   14  A    between atoms: C_34  and  C_35
REMARK   15  A    between atoms: C_34  and  C_36
REMARK                            x       y       z     vdW  Elec       q    Type
REMARK                         _______ _______ _______ _____ _____    ______ ____
ROOT
ATOM      1  N   MET A   1       3.824  -1.306   2.529  0.00  0.00    -0.287 N 
ATOM      2  C   UNK A   0       5.128  -1.320   2.869  0.00  0.00    +0.308 C 
ATOM      3  O   UNK A   0       5.980  -1.147   2.018  0.00  0.00    -0.252 OA
ATOM      4  N   UNK A   0       5.488  -1.526   4.151  0.00  0.00    -0.242 N 
ATOM      5  C   UNK A   0       6.834  -1.455   4.546  0.00  0.00    +0.060 A 
ATOM      6  C   UNK A   0       7.856  -1.758   3.668  0.00  0.00    +0.025 A 
ATOM      7  C   UNK A   0       9.171  -1.677   4.090  0.00  0.00    +0.002 A 
ATOM      8  C   UNK A   0       9.463  -1.288   5.385  0.00  0.00    +0.002 A 
ATOM      9  C   UNK A   0       8.446  -0.975   6.267  0.00  0.00    +0.025 A 
ATOM     10  C   UNK A   0       7.125  -1.052   5.853  0.00  0.00    +0.055 A 
ATOM     11  N   UNK A   0       6.081  -0.736   6.729  0.00  0.00    -0.282 N 
ATOM     12  C   UNK A   0       4.810  -1.069   6.434  0.00  0.00    +0.238 C 
ATOM     13  O   UNK A   0       3.916  -0.745   7.186  0.00  0.00    -0.273 OA
ATOM     14  C   UNK A   0       4.486  -1.840   5.180  0.00  0.00    +0.171 C 
ATOM     15  H   MET A   1       3.143  -1.385   3.216  0.00  0.00    +0.151 HD
ATOM     16  H   UNK A   0       6.275  -0.271   7.558  0.00  0.00    +0.155 HD
ENDROOT
BRANCH  14  17
ATOM     17  C   UNK A   0       4.512  -3.340   5.480  0.00  0.00    +0.013 C 
ATOM     18  C   UNK A   0       3.468  -3.664   6.551  0.00  0.00    +0.009 C 
ATOM     19  C   UNK A   0       4.193  -4.121   4.204  0.00  0.00    +0.009 C 
ENDBRANCH  14  17
BRANCH   1  20
ATOM     20  CA  MET A   1       3.434  -1.172   1.123  0.00  0.00    +0.163 C 
BRANCH  20  21
ATOM     21  C   MET A   1       2.050  -0.581   1.039  0.00  0.00    +0.234 C 
ATOM     22  O   MET A   1       1.319  -0.610   2.007  0.00  0.00    -0.274 OA
ATOM     23  N   MET A   1       1.625  -0.021  -0.111  0.00  0.00    -0.301 N 
ATOM     24  H   MET A   1       2.234   0.068  -0.861  0.00  0.00    +0.150 HD
BRANCH  23  25
ATOM     25  CA  MET A   1       0.244   0.453  -0.228  0.00  0.00    +0.187 C 
BRANCH  25  26
ATOM     26  C   MET A   1       0.145   1.852   0.322  0.00  0.00    +0.376 C 
ATOM     27  O   MET A   1       1.127   2.398   0.766  0.00  0.00    -0.244 OA
ATOM     28  OXT MET A   1      -1.034   2.495   0.314  0.00  0.00    -0.244 OA
ENDBRANCH  25  26
BRANCH  25  29
ATOM     29  CB  MET A   1      -0.172   0.452  -1.700  0.00  0.00    +0.044 C 
BRANCH  29  30
ATOM     30  CG  MET A   1      -0.191  -0.985  -2.224  0.00  0.00    +0.071 C 
BRANCH  30  31
ATOM     31  SD  MET A   1      -0.685  -0.985  -3.970  0.00  0.00    -0.164 S 
ATOM     32  CE  MET A   1      -0.659  -2.739  -4.433  0.00  0.00    +0.084 C 
ENDBRANCH  30  31
ENDBRANCH  29  30
ENDBRANCH  25  29
ENDBRANCH  23  25
ENDBRANCH  20  21
BRANCH  20  33
ATOM     33  CB  MET A   1       3.442  -2.550   0.458  0.00  0.00    +0.015 C 
ATOM     34  CG2 MET A   1       2.423  -3.457   1.152  0.00  0.00    +0.010 C 
BRANCH  33  36
ATOM     35  CD1 MET A   1       4.878  -4.487  -0.194  0.00  0.00    +0.004 C 
ATOM     36  CG1 MET A   1       4.837  -3.167   0.578  0.00  0.00    +0.002 C 
ENDBRANCH  33  36
ENDBRANCH  20  33
ENDBRANCH   1  20
TORSDOF 10
