REMARK  Name = ZINC17027862
REMARK  7 active torsions:
REMARK  status: ('A' for Active; 'I' for Inactive)
REMARK    1  A    between atoms: C_1  and  C_2
REMARK    2  A    between atoms: C_2  and  C_3
REMARK    3  A    between atoms: C_2  and  C_4
REMARK    4  A    between atoms: C_2  and  N_5
REMARK    5  A    between atoms: C_10  and  C_28
REMARK    6  A    between atoms: C_28  and  C_29
REMARK    7  A    between atoms: C_32  and  O_35
REMARK                            x       y       z     vdW  Elec       q    Type
REMARK                         _______ _______ _______ _____ _____    ______ ____
ROOT
ATOM      1  N   UNL     1       0.688  -0.476  -1.203  0.00  0.00    -0.236 N 
ATOM      2  C   UNL     1       0.091  -1.247  -2.120  0.00  0.00    +0.228 C 
ATOM      3  O   UNL     1      -1.056  -1.635  -2.069  0.00  0.00    -0.275 OA
ATOM      4  C   UNL     1       1.070  -1.557  -3.230  0.00  0.00    +0.107 C 
ATOM      5  C   UNL     1       1.427  -3.058  -3.185  0.00  0.00    +0.072 C 
ATOM      6  N   UNL     1       2.906  -3.103  -3.321  0.00  0.00    -0.295 NA
ATOM      7  C   UNL     1       3.377  -1.951  -2.530  0.00  0.00    +0.136 C 
ATOM      8  C   UNL     1       2.360  -0.811  -2.788  0.00  0.00    +0.122 C 
ATOM      9  C   UNL     1       1.960  -0.168  -1.480  0.00  0.00    +0.229 C 
ATOM     10  O   UNL     1       2.681   0.518  -0.787  0.00  0.00    -0.275 OA
ATOM     11  C   UNL     1       4.767  -1.542  -2.929  0.00  0.00    +0.006 A 
ATOM     12  C   UNL     1       5.328  -1.124  -4.115  0.00  0.00    +0.046 A 
ATOM     13  C   UNL     1       6.676  -0.810  -4.171  0.00  0.00    +0.124 A 
ATOM     14  C   UNL     1       7.456  -0.919  -3.031  0.00  0.00    +0.040 A 
ATOM     15  C   UNL     1       6.896  -1.336  -1.842  0.00  0.00    +0.026 A 
ATOM     16  C   UNL     1       5.542  -1.654  -1.778  0.00  0.00    +0.039 A 
ATOM     17  N   UNL     1       4.756  -2.092  -0.708  0.00  0.00    -0.283 N 
ATOM     18  C   UNL     1       3.473  -2.290  -1.068  0.00  0.00    +0.243 C 
ATOM     19  O   UNL     1       2.571  -2.669  -0.351  0.00  0.00    -0.273 OA
ATOM     20  F   UNL     1       7.229  -0.401  -5.334  0.00  0.00    -0.205 F 
ATOM     21  H   UNL     1       3.277  -3.968  -2.956  0.00  0.00    +0.124 HD
ATOM     22  H   UNL     1       5.096  -2.238   0.189  0.00  0.00    +0.155 HD
ENDROOT
BRANCH   1  24
ATOM     23  C   UNL     1      -0.019   1.526   0.010  0.00  0.00    +0.031 C 
ATOM     24  C   UNL     1       0.002  -0.004   0.002  0.00  0.00    +0.036 C 
ATOM     25  C   UNL     1       0.742  -0.511   1.242  0.00  0.00    +0.031 C 
ATOM     26  C   UNL     1      -1.433  -0.534   0.013  0.00  0.00    +0.031 C 
ENDBRANCH   1  24
BRANCH   5  27
ATOM     27  C   UNL     1       0.760  -3.799  -4.346  0.00  0.00    +0.054 C 
BRANCH  27  28
ATOM     28  C   UNL     1       1.020  -5.277  -4.214  0.00  0.00    -0.046 A 
ATOM     29  C   UNL     1       2.142  -5.836  -4.797  0.00  0.00    +0.007 A 
ATOM     30  C   UNL     1       2.381  -7.191  -4.678  0.00  0.00    +0.045 A 
ATOM     31  C   UNL     1       1.495  -7.992  -3.971  0.00  0.00    +0.117 A 
ATOM     32  C   UNL     1       0.370  -7.428  -3.387  0.00  0.00    +0.045 A 
ATOM     33  C   UNL     1       0.138  -6.072  -3.505  0.00  0.00    +0.007 A 
BRANCH  31  34
ATOM     34  O   UNL     1       1.728  -9.325  -3.853  0.00  0.00    -0.507 OA
ATOM     35  H   UNL     1       2.255  -9.565  -3.078  0.00  0.00    +0.292 HD
ENDBRANCH  31  34
ENDBRANCH  27  28
ENDBRANCH   5  27
TORSDOF 4
