REMARK  Name = ZINC20728331
REMARK  13 active torsions:
REMARK  status: ('A' for Active; 'I' for Inactive)
REMARK    1  A    between atoms: C_1  and  C_2
REMARK    2  A    between atoms: C_2  and  N_3
REMARK    3  A    between atoms: N_3  and  C_4
REMARK    4  A    between atoms: N_3  and  C_6
REMARK    5  A    between atoms: C_4  and  C_5
REMARK    6  A    between atoms: C_6  and  C_7
REMARK    7  A    between atoms: C_7  and  C_8
REMARK    8  A    between atoms: C_8  and  N_9
REMARK    9  A    between atoms: C_10  and  C_12
REMARK   10  A    between atoms: C_14  and  C_32
REMARK   11  A    between atoms: C_19  and  S_22
REMARK   12  A    between atoms: S_22  and  N_25
REMARK   13  A    between atoms: C_28  and  C_31
REMARK                            x       y       z     vdW  Elec       q    Type
REMARK                         _______ _______ _______ _____ _____    ______ ____
ROOT
ATOM      1  C   UNL     1      -0.018  -5.767   5.355  0.00  0.00    +0.048 A 
ATOM      2  C   UNL     1       0.388  -4.744   6.199  0.00  0.00    +0.042 A 
ATOM      3  C   UNL     1       0.897  -5.056   7.468  0.00  0.00    +0.072 A 
ATOM      4  N   UNL     1       1.002  -6.302   7.884  0.00  0.00    -0.247 NA
ATOM      5  C   UNL     1       0.629  -7.330   7.120  0.00  0.00    +0.072 A 
ATOM      6  C   UNL     1       0.099  -7.101   5.826  0.00  0.00    +0.014 A 
ATOM      7  C   UNL     1      -0.294  -8.187   5.034  0.00  0.00    +0.039 A 
ATOM      8  C   UNL     1      -0.168  -9.455   5.518  0.00  0.00    +0.106 A 
ATOM      9  C   UNL     1       0.347  -9.686   6.792  0.00  0.00    +0.030 A 
ATOM     10  C   UNL     1       0.750  -8.655   7.583  0.00  0.00    +0.030 A 
ENDROOT
BRANCH   3  11
ATOM     11  C   UNL     1       1.328  -3.956   8.365  0.00  0.00    +0.003 A 
ATOM     12  C   UNL     1       1.228  -2.621   7.964  0.00  0.00    +0.030 A 
ATOM     13  C   UNL     1       1.640  -1.628   8.830  0.00  0.00    +0.111 A 
ATOM     14  N   UNL     1       2.123  -1.926  10.020  0.00  0.00    -0.263 NA
ATOM     15  C   UNL     1       2.235  -3.172  10.438  0.00  0.00    +0.111 A 
ATOM     16  C   UNL     1       1.841  -4.226   9.637  0.00  0.00    +0.030 A 
ENDBRANCH   3  11
BRANCH   1  18
ATOM     17  N   UNL     1      -0.555  -4.214   3.540  0.00  0.00    -0.311 N 
ATOM     18  C   UNL     1      -0.560  -5.477   4.010  0.00  0.00    +0.245 C 
ATOM     19  O   UNL     1      -1.009  -6.378   3.329  0.00  0.00    -0.270 OA
ATOM     20  H   UNL     1      -0.197  -3.495   4.083  0.00  0.00    +0.149 HD
BRANCH  17  21
ATOM     21  C   UNL     1      -1.092  -3.927   2.207  0.00  0.00    +0.102 C 
BRANCH  21  22
ATOM     22  C   UNL     1      -0.969  -2.429   1.919  0.00  0.00    +0.000 C 
BRANCH  22  23
ATOM     23  C   UNL     1      -1.529  -2.130   0.528  0.00  0.00    -0.077 C 
BRANCH  23  24
ATOM     24  N   UNL     1      -1.411  -0.692   0.251  0.00  0.00    +0.379 N 
ATOM     25  H   UNL     1      -1.861  -0.169   0.988  0.00  0.00    -0.082 HD
BRANCH  24  27
ATOM     26  C   UNL     1       0.135   1.197   0.040  0.00  0.00    -0.017 C 
ATOM     27  C   UNL     1       0.009  -0.321   0.186  0.00  0.00    -0.082 C 
ENDBRANCH  24  27
BRANCH  24  28
ATOM     28  C   UNL     1      -2.056  -0.385  -1.032  0.00  0.00    -0.082 C 
ATOM     29  C   UNL     1      -3.561  -0.635  -0.919  0.00  0.00    -0.017 C 
ENDBRANCH  24  28
ENDBRANCH  23  24
ENDBRANCH  22  23
ENDBRANCH  21  22
ENDBRANCH  17  21
ENDBRANCH   1  18
BRANCH   8  30
ATOM     30  S   UNL     1      -0.664 -10.820   4.520  0.00  0.00    +0.061 S 
ATOM     31  O   UNL     1      -0.955 -11.889   5.410  0.00  0.00    -0.153 OA
ATOM     32  O   UNL     1      -1.617 -10.320   3.593  0.00  0.00    -0.153 OA
BRANCH  30  33
ATOM     33  N   UNL     1       0.657 -11.286   3.636  0.00  0.00    -0.177 NA
ATOM     34  C   UNL     1       0.921 -10.695   2.317  0.00  0.00    +0.110 C 
ATOM     35  C   UNL     1       1.082 -11.825   1.295  0.00  0.00    +0.020 C 
ATOM     36  C   UNL     1       2.164 -12.794   1.778  0.00  0.00    -0.012 C 
ATOM     37  C   UNL     1       1.741 -13.408   3.114  0.00  0.00    +0.020 C 
ATOM     38  C   UNL     1       1.590 -12.293   4.159  0.00  0.00    +0.110 C 
ATOM     39  C   UNL     1       2.352 -13.904   0.743  0.00  0.00    +0.007 C 
ENDBRANCH  30  33
ENDBRANCH   8  30
TORSDOF 10
