REMARK  Name = ZINC34923719
REMARK  12 active torsions:
REMARK  status: ('A' for Active; 'I' for Inactive)
REMARK    1  A    between atoms: C_1  and  C_2
REMARK    2  A    between atoms: C_3  and  C_32
REMARK    3  A    between atoms: C_4  and  C_24
REMARK    4  A    between atoms: C_7  and  C_12
REMARK    5  A    between atoms: C_13  and  N_15
REMARK    6  A    between atoms: N_15  and  C_16
REMARK    7  A    between atoms: C_16  and  C_17
REMARK    8  A    between atoms: C_17  and  N_18
REMARK    9  A    between atoms: C_29  and  O_30
REMARK   10  A    between atoms: O_30  and  C_31
REMARK   11  A    between atoms: C_32  and  O_34
REMARK   12  A    between atoms: O_34  and  C_35
REMARK                            x       y       z     vdW  Elec       q    Type
REMARK                         _______ _______ _______ _____ _____    ______ ____
ROOT
ATOM      1  C   UNL     1       0.675   1.207   0.145  0.00  0.00    +0.066 C 
ATOM      2  C   UNL     1       0.397  -0.272   0.084  0.00  0.00    +0.053 C 
ATOM      3  C   UNL     1      -0.908  -0.725   0.075  0.00  0.00    +0.083 C 
ATOM      4  C   UNL     1      -1.136  -2.219   0.012  0.00  0.00    +0.153 C 
ATOM      5  N   UNL     1       0.071  -3.086  -0.035  0.00  0.00    -0.267 N 
ATOM      6  C   UNL     1       0.102  -4.465  -0.095  0.00  0.00    +0.048 C 
ATOM      7  C   UNL     1       1.313  -5.064  -0.130  0.00  0.00    +0.072 C 
ATOM      8  S   UNL     1       2.417  -3.667  -0.078  0.00  0.00    -0.060 S 
ATOM      9  C   UNL     1       1.275  -2.439  -0.016  0.00  0.00    +0.166 C 
ATOM     10  N   UNL     1       1.404  -1.129   0.035  0.00  0.00    -0.230 NA
ENDROOT
BRANCH   4  11
ATOM     11  C   UNL     1      -1.964  -2.511  -1.213  0.00  0.00    +0.020 A 
ATOM     12  C   UNL     1      -3.298  -2.846  -1.082  0.00  0.00    +0.009 A 
ATOM     13  C   UNL     1      -4.058  -3.115  -2.205  0.00  0.00    +0.001 A 
ATOM     14  C   UNL     1      -3.485  -3.048  -3.462  0.00  0.00    +0.004 A 
ATOM     15  C   UNL     1      -2.152  -2.713  -3.598  0.00  0.00    +0.046 A 
ATOM     16  C   UNL     1      -1.389  -2.438  -2.473  0.00  0.00    +0.125 A 
BRANCH  16  17
ATOM     17  O   UNL     1      -0.078  -2.103  -2.605  0.00  0.00    -0.495 OA
ATOM     18  C   UNL     1       0.420  -1.942  -3.934  0.00  0.00    +0.277 C 
ENDBRANCH  16  17
ENDBRANCH   4  11
BRANCH   6  19
ATOM     19  C   UNL     1      -1.138  -5.254  -0.119  0.00  0.00    +0.091 C 
ATOM     20  C   UNL     1      -1.084  -6.597  -0.041  0.00  0.00    +0.239 C 
ATOM     21  O   UNL     1       0.115  -7.229  -0.056  0.00  0.00    -0.271 OA
BRANCH  20  22
ATOM     22  N   UNL     1      -2.253  -7.333   0.054  0.00  0.00    -0.314 N 
ATOM     23  H   UNL     1      -3.111  -6.881   0.064  0.00  0.00    +0.149 HD
BRANCH  22  24
ATOM     24  C   UNL     1      -2.193  -8.795   0.138  0.00  0.00    +0.086 C 
BRANCH  24  25
ATOM     25  C   UNL     1      -3.613  -9.358   0.234  0.00  0.00    -0.060 C 
BRANCH  25  26
ATOM     26  N   UNL     1      -3.553 -10.824   0.318  0.00  0.00    +0.381 N 
ATOM     27  C   UNL     1      -2.996 -11.362  -0.928  0.00  0.00    -0.079 C 
ATOM     28  C   UNL     1      -2.856 -12.882  -0.815  0.00  0.00    -0.019 C 
ATOM     29  C   UNL     1      -4.235 -13.498  -0.562  0.00  0.00    -0.004 C 
ATOM     30  C   UNL     1      -4.838 -12.875   0.700  0.00  0.00    -0.019 C 
ATOM     31  C   UNL     1      -4.905 -11.355   0.530  0.00  0.00    -0.079 C 
ATOM     32  H   UNL     1      -2.962 -11.091   1.092  0.00  0.00    -0.082 HD
ENDBRANCH  25  26
ENDBRANCH  24  25
ENDBRANCH  22  24
ENDBRANCH  20  22
ENDBRANCH   6  19
BRANCH   3  33
ATOM     33  C   UNL     1      -1.985   0.169   0.122  0.00  0.00    +0.339 C 
ATOM     34  O   UNL     1      -1.778   1.367   0.218  0.00  0.00    -0.245 OA
BRANCH  33  35
ATOM     35  O   UNL     1      -3.252  -0.295   0.062  0.00  0.00    -0.465 OA
ATOM     36  C   UNL     1      -4.297   0.677  -0.007  0.00  0.00    +0.280 C 
ENDBRANCH  33  35
ENDBRANCH   3  33
TORSDOF 9
