REMARK  Name = ZINC18196971
REMARK  4 active torsions:
REMARK  status: ('A' for Active; 'I' for Inactive)
REMARK    1  A    between atoms: C_4  and  O_30
REMARK    2  A    between atoms: C_5  and  C_7
REMARK    3  A    between atoms: C_14  and  O_15
REMARK    4  A    between atoms: C_22  and  C_25
REMARK                            x       y       z     vdW  Elec       q    Type
REMARK                         _______ _______ _______ _____ _____    ______ ____
ROOT
ATOM      1  C   UNL     1      -0.021  -0.435  -2.583  0.00  0.00    +0.096 C 
ATOM      2  C   UNL     1      -0.003  -0.814  -1.129  0.00  0.00    +0.067 A 
ATOM      3  C   UNL     1       0.027  -2.118  -0.712  0.00  0.00    +0.126 A 
ATOM      4  N   UNL     1       0.036  -2.118   0.635  0.00  0.00    -0.260 N 
ATOM      5  H   UNL     1       0.051  -2.926   1.224  0.00  0.00    +0.190 HD
ATOM      6  N   UNL     1       0.022  -0.781   1.063  0.00  0.00    -0.134 NA
ATOM      7  C   UNL     1       0.002  -0.004   0.002  0.00  0.00    +0.237 A 
ATOM      8  N   UNL     1       0.042  -3.169  -1.621  0.00  0.00    -0.303 N 
ATOM      9  C   UNL     1       0.343  -2.896  -2.932  0.00  0.00    +0.017 C 
ATOM     10  C   UNL     1       0.327  -1.641  -3.430  0.00  0.00    +0.024 C 
ATOM     11  C   UNL     1       0.635  -1.396  -4.780  0.00  0.00    +0.162 C 
ATOM     12  O   UNL     1       0.622  -0.254  -5.195  0.00  0.00    -0.292 OA
ATOM     13  C   UNL     1       0.980  -2.516  -5.722  0.00  0.00    +0.088 C 
ATOM     14  C   UNL     1       0.279  -3.794  -5.250  0.00  0.00    +0.039 C 
ATOM     15  C   UNL     1       0.706  -4.072  -3.808  0.00  0.00    +0.060 C 
ATOM     16  H   UNL     1      -0.155  -4.075  -1.335  0.00  0.00    +0.153 HD
ENDROOT
BRANCH   1  21
ATOM     17  C   UNL     1      -3.753  -0.331  -3.146  0.00  0.00    +0.001 A 
ATOM     18  C   UNL     1      -3.928   0.954  -3.625  0.00  0.00    +0.004 A 
ATOM     19  C   UNL     1      -2.840   1.792  -3.769  0.00  0.00    +0.046 A 
ATOM     20  C   UNL     1      -1.571   1.344  -3.432  0.00  0.00    +0.121 A 
ATOM     21  C   UNL     1      -1.398   0.055  -2.950  0.00  0.00    +0.006 A 
ATOM     22  C   UNL     1      -2.489  -0.782  -2.813  0.00  0.00    +0.008 A 
BRANCH  20  23
ATOM     23  O   UNL     1      -0.498   2.168  -3.572  0.00  0.00    -0.506 OA
ATOM     24  H   UNL     1      -0.071   2.113  -4.438  0.00  0.00    +0.292 HD
ENDBRANCH  20  23
ENDBRANCH   1  21
BRANCH  14  25
ATOM     25  C   UNL     1       0.681  -4.949  -6.131  0.00  0.00    -0.006 A 
ATOM     26  C   UNL     1      -0.099  -5.749  -6.898  0.00  0.00    +0.011 A 
ATOM     27  C   UNL     1       0.494  -6.756  -7.636  0.00  0.00    +0.008 A 
ATOM     28  C   UNL     1       1.838  -6.921  -7.561  0.00  0.00    +0.045 A 
ATOM     29  S   UNL     1       2.307  -5.623  -6.429  0.00  0.00    -0.101 S 
ENDBRANCH  14  25
BRANCH   7  30
ATOM     30  O   UNL     1      -0.016   1.356   0.009  0.00  0.00    -0.491 OA
ATOM     31  H   UNL     1      -0.007   1.684   0.954  0.00  0.00    +0.294 HD
ENDBRANCH   7  30
TORSDOF 4
