REMARK  Name = ZINC12500084
REMARK  9 active torsions:
REMARK  status: ('A' for Active; 'I' for Inactive)
REMARK    1  A    between atoms: C_1  and  C_2
REMARK    2  A    between atoms: C_2  and  C_3
REMARK    3  A    between atoms: C_4  and  C_31
REMARK    4  A    between atoms: C_8  and  S_22
REMARK    5  A    between atoms: C_10  and  C_12
REMARK    6  A    between atoms: S_22  and  C_23
REMARK    7  A    between atoms: C_23  and  C_24
REMARK    8  A    between atoms: N_26  and  N_27
REMARK    9  A    between atoms: C_28  and  C_30
REMARK                            x       y       z     vdW  Elec       q    Type
REMARK                         _______ _______ _______ _____ _____    ______ ____
ROOT
ATOM      1  C   UNL     1      -1.185   1.913   4.740  0.00  0.00    -0.026 A 
ATOM      2  C   UNL     1      -1.364   1.787   6.064  0.00  0.00    -0.007 A 
ATOM      3  S   UNL     1       0.082   0.890   6.596  0.00  0.00    -0.074 S 
ATOM      4  C   UNL     1       0.893   0.720   5.028  0.00  0.00    +0.113 A 
ATOM      5  C   UNL     1       0.011   1.361   4.131  0.00  0.00    +0.043 A 
ATOM      6  C   UNL     1       0.424   1.366   2.769  0.00  0.00    +0.109 A 
ATOM      7  N   UNL     1       1.575   0.798   2.442  0.00  0.00    -0.225 NA
ATOM      8  C   UNL     1       2.354   0.220   3.338  0.00  0.00    +0.138 A 
ATOM      9  N   UNL     1       2.022   0.179   4.614  0.00  0.00    -0.224 NA
ATOM     10  C   UNL     1      -2.518   2.277   6.900  0.00  0.00    +0.052 C 
ENDROOT
BRANCH   8  11
ATOM     11  C   UNL     1       3.650  -0.407   2.893  0.00  0.00    +0.031 C 
ATOM     12  C   UNL     1       4.538   0.660   2.250  0.00  0.00    +0.018 C 
ATOM     13  C   UNL     1       5.854   0.024   1.798  0.00  0.00    -0.010 C 
ATOM     14  C   UNL     1       6.572  -0.577   3.008  0.00  0.00    +0.007 C 
ATOM     15  C   UNL     1       5.684  -1.644   3.651  0.00  0.00    -0.010 C 
ATOM     16  C   UNL     1       4.368  -1.007   4.103  0.00  0.00    +0.018 C 
ATOM     17  C   UNL     1       5.394  -2.747   2.632  0.00  0.00    +0.007 C 
ATOM     18  C   UNL     1       4.675  -2.147   1.421  0.00  0.00    -0.010 C 
ATOM     19  C   UNL     1       5.563  -1.080   0.779  0.00  0.00    +0.007 C 
ATOM     20  C   UNL     1       3.359  -1.510   1.873  0.00  0.00    +0.018 C 
ENDBRANCH   8  11
BRANCH   1  22
ATOM     21  C   UNL     1      -1.803   4.081   3.707  0.00  0.00    +0.009 C 
ATOM     22  C   UNL     1      -2.215   2.619   3.896  0.00  0.00    +0.033 C 
ENDBRANCH   1  22
BRANCH   6  23
ATOM     23  S   UNL     1      -0.579   2.126   1.536  0.00  0.00    -0.096 S 
BRANCH  23  24
ATOM     24  C   UNL     1       0.443   1.825   0.072  0.00  0.00    +0.173 C 
BRANCH  24  25
ATOM     25  C   UNL     1      -0.237   2.405  -1.142  0.00  0.00    +0.239 C 
ATOM     26  O   UNL     1      -1.306   2.966  -1.028  0.00  0.00    -0.273 OA
ATOM     27  N   UNL     1       0.344   2.301  -2.354  0.00  0.00    -0.234 N 
ATOM     28  H   UNL     1       1.199   1.852  -2.445  0.00  0.00    +0.173 HD
BRANCH  27  29
ATOM     29  N   UNL     1      -0.287   2.840  -3.482  0.00  0.00    -0.235 N 
ATOM     30  C   UNL     1       0.293   2.735  -4.694  0.00  0.00    +0.226 C 
ATOM     31  O   UNL     1       1.363   2.174  -4.807  0.00  0.00    -0.275 OA
ATOM     32  C   UNL     1      -0.386   3.315  -5.908  0.00  0.00    +0.110 C 
ATOM     33  H   UNL     1      -1.142   3.289  -3.391  0.00  0.00    +0.173 HD
ENDBRANCH  27  29
ENDBRANCH  24  25
ENDBRANCH  23  24
ENDBRANCH   6  23
TORSDOF 6
