REMARK  Name = ZINC39623491
REMARK  10 active torsions:
REMARK  status: ('A' for Active; 'I' for Inactive)
REMARK    1  A    between atoms: C_1  and  C_2
REMARK    2  A    between atoms: C_2  and  C_3
REMARK    3  A    between atoms: C_3  and  C_4
REMARK    4  A    between atoms: C_4  and  C_5
REMARK    5  A    between atoms: C_5  and  N_6
REMARK    6  A    between atoms: C_7  and  C_9
REMARK    7  A    between atoms: C_20  and  C_22
REMARK    8  A    between atoms: C_28  and  O_30
REMARK    9  A    between atoms: O_30  and  C_31
REMARK   10  A    between atoms: C_31  and  C_32
REMARK                            x       y       z     vdW  Elec       q    Type
REMARK                         _______ _______ _______ _____ _____    ______ ____
ROOT
ATOM      1  C   UNL     1      -3.966  -6.254   0.006  0.00  0.00    +0.100 C 
ATOM      2  C   UNL     1      -3.178  -6.788   1.224  0.00  0.00    +0.121 C 
ATOM      3  N   UNL     1      -4.213  -7.056   2.250  0.00  0.00    -0.300 N 
ATOM      4  C   UNL     1      -5.349  -7.627   1.488  0.00  0.00    +0.115 C 
ATOM      5  C   UNL     1      -5.389  -6.810   0.182  0.00  0.00    -0.004 C 
ATOM      6  C   UNL     1      -5.753  -7.712  -0.994  0.00  0.00    -0.010 C 
ATOM      7  C   UNL     1      -7.192  -8.205  -0.827  0.00  0.00    -0.082 C 
ATOM      8  N   UNL     1      -8.102  -7.055  -0.766  0.00  0.00    +0.379 N 
ATOM      9  C   UNL     1      -7.805  -6.243   0.420  0.00  0.00    -0.082 C 
ATOM     10  C   UNL     1      -6.391  -5.667   0.305  0.00  0.00    -0.010 C 
ATOM     11  C   UNL     1      -4.138  -6.832   3.577  0.00  0.00    +0.219 C 
ATOM     12  O   UNL     1      -5.077  -7.108   4.293  0.00  0.00    -0.275 OA
ATOM     13  H   UNL     1      -7.986  -6.491  -1.595  0.00  0.00    -0.086 HD
ATOM     14  H   UNL     1      -9.055  -7.383  -0.718  0.00  0.00    -0.086 HD
ENDROOT
BRANCH  11  15
ATOM     15  C   UNL     1      -2.886  -6.239   4.171  0.00  0.00    +0.078 C 
ATOM     16  C   UNL     1      -1.698  -7.161   3.883  0.00  0.00    +0.032 C 
ATOM     17  C   UNL     1      -0.422  -6.538   4.458  0.00  0.00    +0.112 C 
ATOM     18  N   UNL     1      -0.635  -6.257   5.884  0.00  0.00    -0.267 N 
ATOM     19  C   UNL     1      -1.801  -5.455   6.280  0.00  0.00    +0.112 C 
ATOM     20  C   UNL     1      -3.061  -6.090   5.684  0.00  0.00    +0.032 C 
ATOM     21  C   UNL     1       0.223  -6.726   6.812  0.00  0.00    +0.403 C 
ATOM     22  O   UNL     1       1.183  -7.389   6.472  0.00  0.00    -0.226 OA
BRANCH  21  23
ATOM     23  O   UNL     1       0.016  -6.461   8.116  0.00  0.00    -0.445 OA
BRANCH  23  24
ATOM     24  C   UNL     1       0.965  -6.990   9.044  0.00  0.00    +0.269 C 
BRANCH  24  25
ATOM     25  C   UNL     1       0.572  -6.593  10.444  0.00  0.00    -0.010 A 
ATOM     26  C   UNL     1       1.041  -5.411  10.985  0.00  0.00    +0.007 A 
ATOM     27  C   UNL     1       0.681  -5.047  12.269  0.00  0.00    +0.000 A 
ATOM     28  C   UNL     1      -0.148  -5.866  13.012  0.00  0.00    +0.000 A 
ATOM     29  C   UNL     1      -0.618  -7.048  12.471  0.00  0.00    +0.000 A 
ATOM     30  C   UNL     1      -0.261  -7.410  11.185  0.00  0.00    +0.007 A 
ENDBRANCH  24  25
ENDBRANCH  23  24
ENDBRANCH  21  23
ENDBRANCH  11  15
BRANCH   1  32
ATOM     31  N   UNL     1      -4.084  -4.069  -1.145  0.00  0.00    -0.315 N 
ATOM     32  C   UNL     1      -3.986  -4.748   0.015  0.00  0.00    +0.218 C 
ATOM     33  O   UNL     1      -3.914  -4.146   1.065  0.00  0.00    -0.275 OA
ATOM     34  H   UNL     1      -4.142  -4.550  -1.986  0.00  0.00    +0.149 HD
BRANCH  31  35
ATOM     35  C   UNL     1      -4.104  -2.604  -1.137  0.00  0.00    +0.104 C 
BRANCH  35  36
ATOM     36  C   UNL     1      -4.221  -2.087  -2.573  0.00  0.00    +0.019 C 
BRANCH  36  37
ATOM     37  C   UNL     1      -4.242  -0.558  -2.564  0.00  0.00    +0.001 C 
BRANCH  37  39
ATOM     38  C   UNL     1      -4.380   1.489  -3.991  0.00  0.00    +0.004 C 
ATOM     39  C   UNL     1      -4.359  -0.041  -4.000  0.00  0.00    -0.003 C 
ENDBRANCH  37  39
ENDBRANCH  36  37
ENDBRANCH  35  36
ENDBRANCH  31  35
ENDBRANCH   1  32
TORSDOF 9
