REMARK  Name = ZINC13121311
REMARK  10 active torsions:
REMARK  status: ('A' for Active; 'I' for Inactive)
REMARK    1  A    between atoms: C_1  and  C_2
REMARK    2  A    between atoms: C_2  and  O_3
REMARK    3  A    between atoms: O_3  and  C_4
REMARK    4  A    between atoms: C_4  and  C_6
REMARK    5  A    between atoms: C_7  and  C_29
REMARK    6  A    between atoms: C_10  and  N_11
REMARK    7  A    between atoms: C_12  and  C_14
REMARK    8  A    between atoms: C_14  and  N_65
REMARK    9  A    between atoms: C_17  and  C_20
REMARK   10  A    between atoms: C_32  and  C_35
REMARK                            x       y       z     vdW  Elec       q    Type
REMARK                         _______ _______ _______ _____ _____    ______ ____
ROOT
ATOM      1  N   UNL     1       4.598   8.906  -1.309  0.00  0.00    -0.281 N 
ATOM      2  C   UNL     1       4.166   7.643  -1.118  0.00  0.00    +0.201 C 
ATOM      3  O   UNL     1       4.543   6.755  -1.853  0.00  0.00    -0.278 OA
ATOM      4  H   UNL     1       4.297   9.616  -0.721  0.00  0.00    +0.155 HD
ENDROOT
BRANCH   1   9
ATOM      5  C   UNL     1       6.021  10.415  -2.698  0.00  0.00    +0.095 A 
ATOM      6  C   UNL     1       6.916  10.426  -3.840  0.00  0.00    +0.005 A 
ATOM      7  C   UNL     1       7.133   9.236  -4.457  0.00  0.00    +0.056 A 
ATOM      8  S   UNL     1       6.147   8.097  -3.509  0.00  0.00    -0.080 S 
ATOM      9  C   UNL     1       5.472   9.189  -2.347  0.00  0.00    +0.086 A 
BRANCH   6  10
ATOM     10  C   UNL     1       7.562  11.674  -4.310  0.00  0.00    -0.017 A 
ATOM     11  C   UNL     1       6.795  12.818  -4.533  0.00  0.00    +0.009 A 
ATOM     12  C   UNL     1       7.403  13.978  -4.967  0.00  0.00    +0.004 A 
ATOM     13  C   UNL     1       8.768  14.007  -5.189  0.00  0.00    -0.050 A 
ATOM     14  C   UNL     1       9.533  12.874  -4.974  0.00  0.00    +0.004 A 
ATOM     15  C   UNL     1       8.937  11.709  -4.536  0.00  0.00    +0.009 A 
ATOM     16  C   UNL     1       9.424  15.276  -5.668  0.00  0.00    +0.044 C 
ENDBRANCH   6  10
BRANCH   5  17
ATOM     17  C   UNL     1       5.711  11.636  -1.955  0.00  0.00    +0.342 C 
ATOM     18  O   UNL     1       6.400  11.962  -1.006  0.00  0.00    -0.245 OA
BRANCH  17  19
ATOM     19  O   UNL     1       4.662  12.401  -2.321  0.00  0.00    -0.461 OA
BRANCH  19  21
ATOM     20  C   UNL     1       3.193  14.330  -2.098  0.00  0.00    +0.048 C 
ATOM     21  C   UNL     1       4.414  13.598  -1.537  0.00  0.00    +0.229 C 
ENDBRANCH  19  21
ENDBRANCH  17  19
ENDBRANCH   5  17
ENDBRANCH   1   9
BRANCH   2  22
ATOM     22  C   UNL     1       3.216   7.335   0.011  0.00  0.00    +0.019 C 
BRANCH  22  28
ATOM     23  C   UNL     1       2.170   5.519   1.222  0.00  0.00    -0.078 C 
ATOM     24  C   UNL     1       1.985   4.000   1.252  0.00  0.00    -0.009 C 
ATOM     25  C   UNL     1       1.207   3.561   0.009  0.00  0.00    +0.041 C 
ATOM     26  C   UNL     1       1.962   4.013  -1.244  0.00  0.00    -0.009 C 
ATOM     27  C   UNL     1       2.148   5.532  -1.201  0.00  0.00    -0.078 C 
ATOM     28  N   UNL     1       2.925   5.887   0.006  0.00  0.00    +0.385 N 
ATOM     29  H   UNL     1       3.812   5.369  -0.004  0.00  0.00    -0.081 HD
BRANCH  25  30
ATOM     30  C   UNL     1       1.073   2.060   0.003  0.00  0.00    +0.082 A 
ATOM     31  N   UNL     1      -0.016   1.345   0.009  0.00  0.00    -0.244 NA
ATOM     32  C   UNL     1       0.002  -0.004   0.002  0.00  0.00    +0.078 A 
ATOM     33  C   UNL     1      -1.082  -0.909   0.007  0.00  0.00    +0.029 A 
ATOM     34  C   UNL     1      -0.866  -2.252  -0.002  0.00  0.00    +0.002 A 
ATOM     35  C   UNL     1       0.417  -2.783  -0.017  0.00  0.00    +0.001 A 
ATOM     36  C   UNL     1       1.504  -1.931  -0.023  0.00  0.00    +0.017 A 
ATOM     37  C   UNL     1       1.296  -0.573  -0.013  0.00  0.00    +0.039 A 
ATOM     38  S   UNL     1       2.335   0.867  -0.016  0.00  0.00    -0.072 S 
ENDBRANCH  25  30
ENDBRANCH  22  28
ENDBRANCH   2  22
TORSDOF 8
