REMARK  Name = ZINC60343455
REMARK  10 active torsions:
REMARK  status: ('A' for Active; 'I' for Inactive)
REMARK    1  A    between atoms: C_1  and  C_2
REMARK    2  A    between atoms: C_5  and  C_10
REMARK    3  A    between atoms: C_6  and  O_9
REMARK    4  A    between atoms: C_7  and  O_8
REMARK    5  A    between atoms: C_10  and  O_12
REMARK    6  A    between atoms: O_12  and  C_13
REMARK    7  A    between atoms: C_13  and  C_14
REMARK    8  A    between atoms: N_16  and  C_17
REMARK    9  A    between atoms: N_16  and  C_18
REMARK   10  A    between atoms: C_18  and  C_25
REMARK                            x       y       z     vdW  Elec       q    Type
REMARK                         _______ _______ _______ _____ _____    ______ ____
ROOT
ATOM      1  C   UNL     1       0.089  -6.904  -2.544  0.00  0.00    +0.254 C 
ATOM      2  O   UNL     1       0.034  -6.146  -3.489  0.00  0.00    -0.272 OA
ATOM      3  N   UNL     1       0.101  -8.236  -2.748  0.00  0.00    -0.285 N 
ATOM      4  C   UNL     1       0.168  -9.151  -1.607  0.00  0.00    +0.133 C 
ENDROOT
BRANCH   3   5
ATOM      5  C   UNL     1       0.047  -8.768  -4.112  0.00  0.00    +0.122 C 
ATOM      6  C   UNL     1      -1.161  -8.179  -4.847  0.00  0.00    +0.038 C 
ATOM      7  C   UNL     1      -2.449  -8.661  -4.176  0.00  0.00    +0.003 C 
ATOM      8  C   UNL     1      -2.564 -10.180  -4.307  0.00  0.00    +0.008 C 
ATOM      9  C   UNL     1      -1.408 -10.845  -3.551  0.00  0.00    +0.077 C 
ATOM     10  C   UNL     1      -0.106 -10.272  -4.065  0.00  0.00    +0.161 C 
ATOM     11  O   UNL     1       0.789 -10.997  -4.428  0.00  0.00    -0.295 OA
BRANCH   5  12
ATOM     12  C   UNL     1       1.314  -8.411  -4.845  0.00  0.00    +0.002 A 
ATOM     13  C   UNL     1       2.304  -7.689  -4.204  0.00  0.00    +0.007 A 
ATOM     14  C   UNL     1       3.466  -7.361  -4.877  0.00  0.00    +0.000 A 
ATOM     15  C   UNL     1       3.640  -7.755  -6.191  0.00  0.00    +0.001 A 
ATOM     16  C   UNL     1       2.651  -8.477  -6.832  0.00  0.00    +0.020 A 
ATOM     17  C   UNL     1       1.490  -8.810  -6.158  0.00  0.00    +0.047 A 
ATOM     18 CL   UNL     1       0.251  -9.722  -6.961  0.00  0.00    -0.083 Cl
ENDBRANCH   5  12
ENDBRANCH   3   5
BRANCH   1  19
ATOM     19  C   UNL     1       0.145  -6.356  -1.141  0.00  0.00    +0.328 C 
BRANCH  19  20
ATOM     20  O   UNL     1       0.120  -4.928  -1.186  0.00  0.00    -0.452 OA
BRANCH  20  21
ATOM     21  C   UNL     1       0.164  -4.278  -0.006  0.00  0.00    +0.343 C 
ATOM     22  O   UNL     1       0.221  -4.907   1.032  0.00  0.00    -0.245 OA
BRANCH  21  27
ATOM     23  C   UNL     1       0.076   1.478   0.099  0.00  0.00    +0.047 C 
ATOM     24  C   UNL     1       0.099  -0.029   0.076  0.00  0.00    -0.005 A 
ATOM     25  C   UNL     1       0.055  -0.701  -1.135  0.00  0.00    +0.008 A 
ATOM     26  C   UNL     1       0.076  -2.077  -1.168  0.00  0.00    +0.019 A 
ATOM     27  C   UNL     1       0.142  -2.804   0.025  0.00  0.00    +0.104 A 
ATOM     28  C   UNL     1       0.187  -2.126   1.249  0.00  0.00    +0.173 A 
ATOM     29  C   UNL     1       0.170  -0.734   1.265  0.00  0.00    +0.162 A 
BRANCH  29  30
ATOM     30  O   UNL     1       0.219  -0.067   2.450  0.00  0.00    -0.503 OA
ATOM     31  H   UNL     1      -0.649   0.112   2.836  0.00  0.00    +0.292 HD
ENDBRANCH  29  30
BRANCH  28  32
ATOM     32  O   UNL     1       0.251  -2.821   2.413  0.00  0.00    -0.503 OA
ATOM     33  H   UNL     1       1.152  -3.008   2.710  0.00  0.00    +0.292 HD
ENDBRANCH  28  32
ENDBRANCH  21  27
ENDBRANCH  20  21
ENDBRANCH  19  20
ENDBRANCH   1  19
TORSDOF 8
