REMARK  Name = ZINC08770134
REMARK  11 active torsions:
REMARK  status: ('A' for Active; 'I' for Inactive)
REMARK    1  A    between atoms: C_7  and  C_11
REMARK    2  A    between atoms: C_11  and  C_12
REMARK    3  A    between atoms: C_12  and  N_63
REMARK    4  A    between atoms: C_13  and  C_14
REMARK    5  A    between atoms: C_13  and  N_63
REMARK    6  A    between atoms: C_14  and  C_16
REMARK    7  A    between atoms: C_14  and  O_37
REMARK    8  A    between atoms: C_16  and  N_17
REMARK    9  A    between atoms: C_19  and  C_26
REMARK   10  A    between atoms: C_27  and  C_28
REMARK   11  A    between atoms: C_28  and  C_30
REMARK                            x       y       z     vdW  Elec       q    Type
REMARK                         _______ _______ _______ _____ _____    ______ ____
ROOT
ATOM      1  C   UNL     1       0.649   6.284   0.029  0.00  0.00    +0.151 C 
ENDROOT
BRANCH   1   2
ATOM      2  N   UNL     1      -0.336   5.200   0.032  0.00  0.00    -0.344 N 
ATOM      3  C   UNL     1      -1.679   5.377   0.046  0.00  0.00    +0.094 A 
ATOM      4  C   UNL     1      -2.306   4.149   0.045  0.00  0.00    +0.000 A 
ATOM      5  C   UNL     1      -1.232   3.138   0.030  0.00  0.00    +0.007 A 
ATOM      6  C   UNL     1      -0.025   3.855   0.022  0.00  0.00    +0.050 A 
ATOM      7  C   UNL     1       1.181   3.161   0.007  0.00  0.00    +0.026 A 
ATOM      8  C   UNL     1       1.181   1.783   0.000  0.00  0.00    +0.002 A 
ATOM      9  C   UNL     1      -0.013   1.076   0.008  0.00  0.00    +0.001 A 
ATOM     10  C   UNL     1      -1.217   1.746   0.017  0.00  0.00    +0.010 A 
BRANCH   4  11
ATOM     11  C   UNL     1      -3.746   3.900   0.057  0.00  0.00    +0.014 C 
ATOM     12  C   UNL     1      -4.616   4.942   0.071  0.00  0.00    +0.052 C 
BRANCH  12  13
ATOM     13  C   UNL     1      -6.007   4.701   0.083  0.00  0.00    +0.186 C 
ATOM     14  O   UNL     1      -6.427   3.557   0.080  0.00  0.00    -0.287 OA
BRANCH  13  15
ATOM     15  C   UNL     1      -6.955   5.837   0.098  0.00  0.00    +0.022 A 
ATOM     16  C   UNL     1      -6.477   7.148   0.107  0.00  0.00    +0.013 A 
ATOM     17  C   UNL     1      -7.365   8.203   0.116  0.00  0.00    +0.016 A 
ATOM     18  C   UNL     1      -8.729   7.963   0.127  0.00  0.00    +0.018 A 
ATOM     19  C   UNL     1      -9.209   6.664   0.124  0.00  0.00    +0.016 A 
ATOM     20  C   UNL     1      -8.331   5.601   0.109  0.00  0.00    +0.013 A 
ATOM     21 BR   UNL     1      -9.940   9.415   0.147  0.00  0.00    -0.050 Br
ENDBRANCH  13  15
ENDBRANCH  12  13
ENDBRANCH   4  11
ENDBRANCH   1   2
BRANCH   1  22
ATOM     22  C   UNL     1       1.072   6.585  -1.410  0.00  0.00    +0.117 C 
BRANCH  22  23
ATOM     23  O   UNL     1       1.754   5.453  -1.953  0.00  0.00    -0.392 OA
ATOM     24  H   UNL     1       2.553   5.205  -1.467  0.00  0.00    +0.210 HD
ENDBRANCH  22  23
BRANCH  22  25
ATOM     25  C   UNL     1       2.004   7.798  -1.425  0.00  0.00    -0.049 C 
BRANCH  25  26
ATOM     26  N   UNL     1       2.311   8.155  -2.823  0.00  0.00    +0.381 N 
ATOM     27  H   UNL     1       2.767   7.359  -3.284  0.00  0.00    -0.086 HD
ATOM     28  H   UNL     1       1.438   8.380  -3.314  0.00  0.00    -0.086 HD
BRANCH  26  29
ATOM     29  C   UNL     1       3.210   9.324  -2.868  0.00  0.00    -0.078 C 
BRANCH  29  30
ATOM     30  C   UNL     1       3.509   9.670  -4.328  0.00  0.00    +0.018 C 
BRANCH  30  37
ATOM     31  C   UNL     1       8.166  10.147  -4.084  0.00  0.00    +0.001 A 
ATOM     32  C   UNL     1       8.581  11.468  -4.183  0.00  0.00    +0.002 A 
ATOM     33  C   UNL     1       7.662  12.483  -4.335  0.00  0.00    +0.026 A 
ATOM     34  C   UNL     1       6.304  12.184  -4.390  0.00  0.00    +0.047 A 
ATOM     35  C   UNL     1       5.890  10.843  -4.290  0.00  0.00    +0.003 A 
ATOM     36  C   UNL     1       6.838   9.830  -4.136  0.00  0.00    +0.010 A 
ATOM     37  C   UNL     1       4.428  10.864  -4.382  0.00  0.00    -0.024 A 
ATOM     38  C   UNL     1       4.062  12.147  -4.531  0.00  0.00    +0.087 A 
ATOM     39  N   UNL     1       5.169  12.950  -4.532  0.00  0.00    -0.360 N 
ATOM     40  H   UNL     1       5.157  13.916  -4.624  0.00  0.00    +0.165 HD
ENDBRANCH  30  37
ENDBRANCH  29  30
ENDBRANCH  26  29
ENDBRANCH  25  26
ENDBRANCH  22  25
ENDBRANCH   1  22
TORSDOF 11
