REMARK  Name = ZINC26179302
REMARK  10 active torsions:
REMARK  status: ('A' for Active; 'I' for Inactive)
REMARK    1  A    between atoms: C_1  and  C_2
REMARK    2  A    between atoms: C_2  and  C_27
REMARK    3  A    between atoms: C_4  and  N_10
REMARK    4  A    between atoms: C_6  and  C_8
REMARK    5  A    between atoms: C_6  and  C_9
REMARK    6  A    between atoms: N_13  and  C_14
REMARK    7  A    between atoms: N_13  and  C_15
REMARK    8  A    between atoms: C_15  and  C_16
REMARK    9  A    between atoms: C_21  and  O_22
REMARK   10  A    between atoms: O_22  and  C_23
REMARK                            x       y       z     vdW  Elec       q    Type
REMARK                         _______ _______ _______ _____ _____    ______ ____
ROOT
ATOM      1  N   UNL     1       3.755   1.290  -3.467  0.00  0.00    -0.296 N 
ATOM      2  C   UNL     1       3.482   1.695  -2.211  0.00  0.00    +0.302 C 
ATOM      3  O   UNL     1       3.862   2.784  -1.827  0.00  0.00    -0.253 OA
ATOM      4  N   UNL     1       2.788   0.892  -1.380  0.00  0.00    -0.284 N 
ATOM      5  C   UNL     1       2.330  -0.420  -1.843  0.00  0.00    +0.134 C 
ATOM      6  H   UNL     1       3.411   0.304  -3.814  0.00  0.00    +0.151 HD
ENDROOT
BRANCH   1  10
ATOM      7  C   UNL     1       7.266   2.699  -5.724  0.00  0.00    -0.010 C 
ATOM      8  C   UNL     1       5.986   2.197  -6.401  0.00  0.00    -0.072 C 
ATOM      9  C   UNL     1       5.209   1.311  -5.431  0.00  0.00    +0.009 C 
ATOM     10  C   UNL     1       4.511   2.164  -4.372  0.00  0.00    +0.072 C 
ATOM     11  C   UNL     1       3.545   3.117  -5.076  0.00  0.00    +0.009 C 
ATOM     12  C   UNL     1       4.303   4.026  -6.040  0.00  0.00    -0.072 C 
ATOM     13  N   UNL     1       5.199   3.299  -6.915  0.00  0.00    +0.386 N 
ATOM     14  C   UNL     1       5.055   5.102  -5.247  0.00  0.00    -0.010 C 
ATOM     15  C   UNL     1       3.257   4.751  -6.916  0.00  0.00    -0.010 C 
ATOM     16  C   UNL     1       6.416   1.314  -7.594  0.00  0.00    -0.010 C 
ATOM     17  H   UNL     1       5.870   4.076  -7.309  0.00  0.00    -0.084 HD
ATOM     18  H   UNL     1       4.544   2.937  -7.721  0.00  0.00    -0.084 HD
ENDBRANCH   1  10
BRANCH   4  19
ATOM     19  C   UNL     1       2.491   1.332  -0.015  0.00  0.00    +0.147 C 
BRANCH  19  20
ATOM     20  C   UNL     1       1.175   2.066   0.002  0.00  0.00    +0.012 A 
ATOM     21  C   UNL     1       1.153   3.447   0.009  0.00  0.00    +0.009 A 
ATOM     22  C   UNL     1      -0.054   4.121   0.023  0.00  0.00    +0.001 A 
ATOM     23  C   UNL     1      -1.243   3.414   0.031  0.00  0.00    +0.004 A 
ATOM     24  C   UNL     1      -1.227   2.033   0.019  0.00  0.00    +0.046 A 
ATOM     25  C   UNL     1      -0.016   1.355   0.009  0.00  0.00    +0.135 A 
BRANCH  25  26
ATOM     26  O   UNL     1       0.002  -0.004   0.002  0.00  0.00    -0.405 OA
BRANCH  26  27
ATOM     27  C   UNL     1      -1.262  -0.670   0.011  0.00  0.00    +0.575 C 
ATOM     28  F   UNL     1      -1.993  -0.298  -1.123  0.00  0.00    -0.133 F 
ATOM     29  F   UNL     1      -1.060  -2.054   0.001  0.00  0.00    -0.133 F 
ATOM     30  F   UNL     1      -1.971  -0.310   1.162  0.00  0.00    -0.133 F 
ENDBRANCH  26  27
ENDBRANCH  25  26
ENDBRANCH  19  20
ENDBRANCH   4  19
TORSDOF 5
