REMARK  Name = ZINC16770031
REMARK  9 active torsions:
REMARK  status: ('A' for Active; 'I' for Inactive)
REMARK    1  A    between atoms: C_1  and  C_2
REMARK    2  A    between atoms: C_5  and  C_8
REMARK    3  A    between atoms: C_11  and  S_14
REMARK    4  A    between atoms: N_12  and  N_13
REMARK    5  A    between atoms: S_14  and  C_15
REMARK    6  A    between atoms: C_15  and  C_17
REMARK    7  A    between atoms: C_15  and  C_18
REMARK    8  A    between atoms: N_20  and  C_21
REMARK    9  A    between atoms: C_22  and  C_31
REMARK                            x       y       z     vdW  Elec       q    Type
REMARK                         _______ _______ _______ _____ _____    ______ ____
ROOT
ATOM      1  C   UNL     1      -3.627   3.260   0.034  0.00  0.00    +0.137 C 
ATOM      2  C   UNL     1      -3.313   3.985   1.345  0.00  0.00    +0.029 C 
ENDROOT
BRANCH   1   3
ATOM      3  C   UNL     1      -5.115   3.060  -0.085  0.00  0.00    +0.231 C 
ATOM      4  O   UNL     1      -5.618   2.016   0.276  0.00  0.00    -0.274 OA
ATOM      5  N   UNL     1      -5.889   4.040  -0.593  0.00  0.00    -0.278 N 
ATOM      6  H   UNL     1      -5.487   4.874  -0.881  0.00  0.00    +0.155 HD
BRANCH   5   7
ATOM      7  C   UNL     1      -7.260   3.856  -0.702  0.00  0.00    +0.090 A 
ATOM      8  C   UNL     1      -8.210   4.736  -1.193  0.00  0.00    +0.084 A 
ATOM      9  C   UNL     1      -9.599   4.298  -1.203  0.00  0.00    -0.018 A 
ATOM     10  C   UNL     1      -9.808   3.057  -0.713  0.00  0.00    -0.004 A 
ATOM     11  S   UNL     1      -8.198   2.466  -0.267  0.00  0.00    -0.077 S 
ATOM     12  C   UNL     1     -11.111   2.333  -0.576  0.00  0.00    +0.043 C 
ATOM     13  C   UNL     1     -11.881   2.424  -1.901  0.00  0.00    +0.005 C 
ATOM     14  C   UNL     1     -12.743   3.682  -1.874  0.00  0.00    +0.001 C 
ATOM     15  C   UNL     1     -12.044   4.782  -1.077  0.00  0.00    +0.005 C 
ATOM     16  C   UNL     1     -10.728   5.168  -1.741  0.00  0.00    +0.037 C 
BRANCH   8  17
ATOM     17  C   UNL     1      -7.840   6.033  -1.673  0.00  0.00    +0.102 C 
ATOM     18  N   UNL     1      -7.546   7.062  -2.055  0.00  0.00    -0.191 NA
ENDBRANCH   8  17
ENDBRANCH   5   7
ENDBRANCH   1   3
BRANCH   1  19
ATOM     19  S   UNL     1      -2.799   1.650   0.022  0.00  0.00    -0.072 S 
BRANCH  19  23
ATOM     20  C   UNL     1       1.068   2.208   0.004  0.00  0.00    +0.182 A 
ATOM     21  N   UNL     1       0.601   3.434   0.014  0.00  0.00    -0.127 NA
ATOM     22  N   UNL     1      -0.684   3.414   0.026  0.00  0.00    -0.121 NA
ATOM     23  C   UNL     1      -1.116   2.172   0.018  0.00  0.00    +0.209 A 
ATOM     24  N   UNL     1      -0.016   1.362   0.009  0.00  0.00    -0.224 N 
BRANCH  20  29
ATOM     25  C   UNL     1       6.611   0.662  -0.055  0.00  0.00    +0.044 C 
ATOM     26  C   UNL     1       5.160   1.067  -0.040  0.00  0.00    -0.050 A 
ATOM     27  C   UNL     1       4.805   2.370  -0.340  0.00  0.00    +0.004 A 
ATOM     28  C   UNL     1       3.478   2.747  -0.328  0.00  0.00    +0.012 A 
ATOM     29  C   UNL     1       2.492   1.811  -0.012  0.00  0.00    +0.021 A 
ATOM     30  C   UNL     1       2.858   0.499   0.296  0.00  0.00    +0.012 A 
ATOM     31  C   UNL     1       4.188   0.134   0.275  0.00  0.00    +0.004 A 
ENDBRANCH  20  29
BRANCH  24  32
ATOM     32  N   UNL     1       0.002  -0.004   0.002  0.00  0.00    -0.295 N 
ATOM     33  H   UNL     1       0.016  -0.371   0.942  0.00  0.00    +0.163 HD
ATOM     34  H   UNL     1      -0.779  -0.373  -0.519  0.00  0.00    +0.163 HD
ENDBRANCH  24  32
ENDBRANCH  19  23
ENDBRANCH   1  19
TORSDOF 7
