REMARK  Name = ZINC56574658
REMARK  8 active torsions:
REMARK  status: ('A' for Active; 'I' for Inactive)
REMARK    1  A    between atoms: C_1  and  C_2
REMARK    2  A    between atoms: C_2  and  C_4
REMARK    3  A    between atoms: C_2  and  N_14
REMARK    4  A    between atoms: C_8  and  S_10
REMARK    5  A    between atoms: S_10  and  N_13
REMARK    6  A    between atoms: N_17  and  C_18
REMARK    7  A    between atoms: C_23  and  O_24
REMARK    8  A    between atoms: O_24  and  C_25
REMARK                            x       y       z     vdW  Elec       q    Type
REMARK                         _______ _______ _______ _____ _____    ______ ____
ROOT
ATOM      1  N   UNL     1      -1.366  -0.528   0.010  0.00  0.00    -0.293 N 
ATOM      2  C   UNL     1      -2.048  -0.649  -1.146  0.00  0.00    +0.304 C 
ATOM      3  O   UNL     1      -1.522  -0.344  -2.198  0.00  0.00    -0.252 OA
ATOM      4  N   UNL     1      -3.315  -1.109  -1.135  0.00  0.00    -0.266 N 
ATOM      5  H   UNL     1      -1.786  -0.771   0.849  0.00  0.00    +0.151 HD
ATOM      6  H   UNL     1      -3.714  -1.414  -0.305  0.00  0.00    +0.156 HD
ENDROOT
BRANCH   4   7
ATOM      7  C   UNL     1      -4.057  -1.148  -2.324  0.00  0.00    +0.078 A 
ATOM      8  C   UNL     1      -3.427  -1.425  -3.528  0.00  0.00    +0.027 A 
ATOM      9  C   UNL     1      -4.160  -1.463  -4.699  0.00  0.00    +0.003 A 
ATOM     10  C   UNL     1      -5.522  -1.224  -4.674  0.00  0.00    +0.024 A 
ATOM     11  C   UNL     1      -6.157  -0.947  -3.477  0.00  0.00    +0.084 A 
ATOM     12  C   UNL     1      -5.429  -0.913  -2.298  0.00  0.00    +0.159 A 
ATOM     13 CL   UNL     1      -7.867  -0.648  -3.451  0.00  0.00    -0.080 Cl
BRANCH  12  14
ATOM     14  O   UNL     1      -6.053  -0.647  -1.119  0.00  0.00    -0.492 OA
ATOM     15  C   UNL     1      -6.142   0.725  -0.728  0.00  0.00    +0.277 C 
ENDBRANCH  12  14
ENDBRANCH   4   7
BRANCH   1  17
ATOM     16  C   UNL     1      -0.001   1.502   0.015  0.00  0.00    +0.033 C 
ATOM     17  C   UNL     1       0.011  -0.028  -0.002  0.00  0.00    +0.102 C 
BRANCH  17  18
ATOM     18  C   UNL     1       0.741  -0.538   1.214  0.00  0.00    -0.026 A 
ATOM     19  C   UNL     1       0.095  -0.596   2.434  0.00  0.00    +0.005 A 
ATOM     20  C   UNL     1       0.764  -1.064   3.549  0.00  0.00    +0.002 A 
ATOM     21  C   UNL     1       2.080  -1.474   3.444  0.00  0.00    +0.028 A 
ATOM     22  C   UNL     1       2.727  -1.416   2.224  0.00  0.00    +0.105 A 
ATOM     23  C   UNL     1       2.056  -0.952   1.107  0.00  0.00    +0.034 A 
BRANCH  22  24
ATOM     24  S   UNL     1       4.404  -1.937   2.090  0.00  0.00    +0.056 S 
ATOM     25  O   UNL     1       4.947  -1.272   0.957  0.00  0.00    -0.153 OA
ATOM     26  O   UNL     1       4.971  -1.818   3.387  0.00  0.00    -0.153 OA
BRANCH  24  27
ATOM     27  N   UNL     1       4.388  -3.553   1.727  0.00  0.00    -0.204 NA
ATOM     28  H   UNL     1       5.106  -3.940   1.203  0.00  0.00    +0.144 HD
ATOM     29  H   UNL     1       3.659  -4.112   2.039  0.00  0.00    +0.144 HD
ENDBRANCH  24  27
ENDBRANCH  22  24
ENDBRANCH  17  18
ENDBRANCH   1  17
TORSDOF 6
