REMARK  Name = ZINC36333174
REMARK  14 active torsions:
REMARK  status: ('A' for Active; 'I' for Inactive)
REMARK    1  A    between atoms: C_1  and  C_2
REMARK    2  A    between atoms: C_2  and  N_3
REMARK    3  A    between atoms: N_3  and  C_4
REMARK    4  A    between atoms: N_3  and  C_6
REMARK    5  A    between atoms: C_4  and  C_5
REMARK    6  A    between atoms: C_6  and  C_8
REMARK    7  A    between atoms: C_6  and  C_31
REMARK    8  A    between atoms: C_8  and  N_9
REMARK    9  A    between atoms: C_10  and  C_12
REMARK   10  A    between atoms: C_13  and  C_14
REMARK   11  A    between atoms: C_17  and  O_29
REMARK   12  A    between atoms: C_18  and  S_20
REMARK   13  A    between atoms: S_20  and  N_23
REMARK   14  A    between atoms: O_29  and  C_30
REMARK                            x       y       z     vdW  Elec       q    Type
REMARK                         _______ _______ _______ _____ _____    ______ ____
ROOT
ATOM      1  C   UNL     1       2.483   2.880  -0.054  0.00  0.00    +0.068 C 
ATOM      2  C   UNL     1       3.441   3.830  -0.087  0.00  0.00    +0.013 C 
ENDROOT
BRANCH   2   3
ATOM      3  C   UNL     1       3.514   4.838   0.980  0.00  0.00    -0.023 A 
ATOM      4  C   UNL     1       2.594   4.811   2.035  0.00  0.00    +0.011 A 
ATOM      5  C   UNL     1       2.666   5.758   3.032  0.00  0.00    +0.048 A 
ATOM      6  C   UNL     1       3.650   6.739   2.993  0.00  0.00    +0.146 A 
ATOM      7  C   UNL     1       4.566   6.770   1.947  0.00  0.00    +0.147 A 
ATOM      8  C   UNL     1       4.506   5.824   0.949  0.00  0.00    +0.040 A 
BRANCH   7   9
ATOM      9  S   UNL     1       5.809   8.018   1.904  0.00  0.00    +0.064 S 
ATOM     10  O   UNL     1       6.409   8.038   3.192  0.00  0.00    -0.153 OA
ATOM     11  O   UNL     1       6.561   7.801   0.718  0.00  0.00    -0.153 OA
BRANCH   9  12
ATOM     12  N   UNL     1       5.038   9.471   1.717  0.00  0.00    -0.176 NA
ATOM     13  C   UNL     1       4.762  10.005   0.377  0.00  0.00    +0.109 C 
ATOM     14  C   UNL     1       3.268  10.329   0.274  0.00  0.00    +0.017 C 
ATOM     15  C   UNL     1       2.873  11.267   1.417  0.00  0.00    +0.003 C 
ATOM     16  C   UNL     1       3.126  10.573   2.758  0.00  0.00    +0.017 C 
ATOM     17  C   UNL     1       4.612  10.249   2.889  0.00  0.00    +0.109 C 
ENDBRANCH   9  12
ENDBRANCH   7   9
BRANCH   6  18
ATOM     18  O   UNL     1       3.717   7.670   3.978  0.00  0.00    -0.493 OA
ATOM     19  C   UNL     1       2.745   7.581   5.022  0.00  0.00    +0.277 C 
ENDBRANCH   6  18
ENDBRANCH   2   3
BRANCH   1  21
ATOM     20  N   UNL     1       1.454   0.928  -1.083  0.00  0.00    -0.313 N 
ATOM     21  C   UNL     1       2.410   1.877  -1.116  0.00  0.00    +0.237 C 
ATOM     22  O   UNL     1       3.215   1.899  -2.030  0.00  0.00    -0.271 OA
ATOM     23  H   UNL     1       0.813   0.911  -0.355  0.00  0.00    +0.149 HD
BRANCH  20  24
ATOM     24  C   UNL     1       1.381  -0.076  -2.147  0.00  0.00    +0.094 C 
BRANCH  24  25
ATOM     25  C   UNL     1       0.142  -0.949  -1.941  0.00  0.00    -0.020 C 
BRANCH  25  26
ATOM     26  C   UNL     1       0.151  -2.079  -2.938  0.00  0.00    -0.059 A 
ATOM     27  C   UNL     1       1.348  -2.519  -3.473  0.00  0.00    +0.002 A 
ATOM     28  C   UNL     1       1.356  -3.555  -4.388  0.00  0.00    +0.000 A 
ATOM     29  C   UNL     1       0.168  -4.151  -4.768  0.00  0.00    +0.000 A 
ATOM     30  C   UNL     1      -1.028  -3.711  -4.233  0.00  0.00    +0.000 A 
ATOM     31  C   UNL     1      -1.036  -2.678  -3.315  0.00  0.00    +0.002 A 
ENDBRANCH  25  26
BRANCH  25  32
ATOM     32  N   UNL     1       0.151  -1.499  -0.579  0.00  0.00    +0.385 N 
ATOM     33  H   UNL     1       0.227  -0.745   0.088  0.00  0.00    -0.081 HD
BRANCH  32  35
ATOM     34  C   UNL     1      -2.277  -1.268  -0.360  0.00  0.00    -0.017 C 
ATOM     35  C   UNL     1      -1.095  -2.240  -0.341  0.00  0.00    -0.081 C 
ENDBRANCH  32  35
BRANCH  32  36
ATOM     36  C   UNL     1       1.297  -2.406  -0.425  0.00  0.00    -0.081 C 
ATOM     37  C   UNL     1       2.518  -1.611   0.042  0.00  0.00    -0.017 C 
ENDBRANCH  32  36
ENDBRANCH  25  32
ENDBRANCH  24  25
ENDBRANCH  20  24
ENDBRANCH   1  21
TORSDOF 11
