REMARK  Name = ZINC27570117
REMARK  5 active torsions:
REMARK  status: ('A' for Active; 'I' for Inactive)
REMARK    1  A    between atoms: C_1  and  C_2
REMARK    2  A    between atoms: N_7  and  S_9
REMARK    3  A    between atoms: S_9  and  C_12
REMARK    4  A    between atoms: C_15  and  C_18
REMARK    5  A    between atoms: N_20  and  C_21
REMARK                            x       y       z     vdW  Elec       q    Type
REMARK                         _______ _______ _______ _____ _____    ______ ____
ROOT
ATOM      1  C   UNL     1       3.591   6.109   0.680  0.00  0.00    +0.248 C 
ATOM      2  O   UNL     1       4.637   5.550   0.415  0.00  0.00    -0.270 OA
ATOM      3  N   UNL     1       2.426   5.436   0.589  0.00  0.00    -0.281 N 
ATOM      4  H   UNL     1       1.474   5.961   0.754  0.00  0.00    +0.155 HD
ENDROOT
BRANCH   3   5
ATOM      5  C   UNL     1       2.429   4.080   0.286  0.00  0.00    +0.045 A 
ATOM      6  C   UNL     1       3.382   3.558  -0.589  0.00  0.00    +0.024 A 
ATOM      7  C   UNL     1       3.389   2.213  -0.891  0.00  0.00    +0.003 A 
ATOM      8  C   UNL     1       2.450   1.359  -0.332  0.00  0.00    +0.012 A 
ATOM      9  C   UNL     1       1.492   1.856   0.542  0.00  0.00    +0.035 A 
ATOM     10  C   UNL     1       1.476   3.229   0.856  0.00  0.00    +0.054 A 
ATOM     11  C   UNL     1       0.457   3.757   1.781  0.00  0.00    +0.196 C 
ATOM     12  O   UNL     1       0.574   4.870   2.256  0.00  0.00    -0.287 OA
ATOM     13  C   UNL     1      -0.711   2.916   2.127  0.00  0.00    +0.033 A 
ATOM     14  C   UNL     1      -1.821   3.469   2.755  0.00  0.00    +0.012 A 
ATOM     15  C   UNL     1      -2.913   2.667   3.054  0.00  0.00    +0.001 A 
ATOM     16  C   UNL     1      -2.899   1.319   2.747  0.00  0.00    +0.001 A 
ATOM     17  C   UNL     1      -1.799   0.752   2.126  0.00  0.00    +0.012 A 
ATOM     18  C   UNL     1      -0.700   1.544   1.809  0.00  0.00    +0.033 A 
ATOM     19  C   UNL     1       0.484   0.957   1.145  0.00  0.00    +0.195 C 
ATOM     20  O   UNL     1       0.625  -0.249   1.092  0.00  0.00    -0.287 OA
ENDBRANCH   3   5
BRANCH   1  24
ATOM     21  C   UNL     1       3.603  10.179   1.893  0.00  0.00    +0.106 A 
ATOM     22  C   UNL     1       4.796   9.546   1.592  0.00  0.00    +0.029 A 
ATOM     23  C   UNL     1       4.799   8.225   1.197  0.00  0.00    +0.015 A 
ATOM     24  C   UNL     1       3.595   7.525   1.102  0.00  0.00    +0.037 A 
ATOM     25  C   UNL     1       2.394   8.171   1.401  0.00  0.00    +0.015 A 
ATOM     26  C   UNL     1       2.406   9.491   1.800  0.00  0.00    +0.029 A 
BRANCH  21  27
ATOM     27  S   UNL     1       3.608  11.867   2.396  0.00  0.00    +0.061 S 
ATOM     28  O   UNL     1       2.418  12.071   3.146  0.00  0.00    -0.153 OA
ATOM     29  O   UNL     1       4.899  12.128   2.930  0.00  0.00    -0.153 OA
BRANCH  27  35
ATOM     30  C   UNL     1       0.724  13.269  -1.538  0.00  0.00    +0.009 C 
ATOM     31  C   UNL     1       2.041  12.756  -0.953  0.00  0.00    +0.002 C 
ATOM     32  C   UNL     1       3.214  13.353  -1.733  0.00  0.00    +0.006 C 
ATOM     33  C   UNL     1       4.531  12.813  -1.169  0.00  0.00    +0.017 C 
ATOM     34  C   UNL     1       4.663  13.237   0.301  0.00  0.00    +0.109 C 
ATOM     35  N   UNL     1       3.467  12.787   1.027  0.00  0.00    -0.176 NA
ATOM     36  C   UNL     1       2.145  13.174   0.517  0.00  0.00    +0.112 C 
ENDBRANCH  27  35
ENDBRANCH  21  27
ENDBRANCH   1  24
TORSDOF 4
