REMARK  Name = ZINC38779141
REMARK  10 active torsions:
REMARK  status: ('A' for Active; 'I' for Inactive)
REMARK    1  A    between atoms: C_1  and  C_2
REMARK    2  A    between atoms: C_2  and  C_3
REMARK    3  A    between atoms: C_3  and  N_4
REMARK    4  A    between atoms: C_10  and  N_15
REMARK    5  A    between atoms: C_11  and  C_12
REMARK    6  A    between atoms: C_16  and  C_18
REMARK    7  A    between atoms: C_21  and  S_24
REMARK    8  A    between atoms: S_24  and  N_27
REMARK    9  A    between atoms: C_29  and  C_36
REMARK   10  A    between atoms: C_32  and  C_35
REMARK                            x       y       z     vdW  Elec       q    Type
REMARK                         _______ _______ _______ _____ _____    ______ ____
ROOT
ATOM      1  N   UNL     1      -0.765  -7.859   2.276  0.00  0.00    -0.275 N 
ATOM      2  C   UNL     1       0.146  -8.109   3.237  0.00  0.00    +0.249 C 
ATOM      3  O   UNL     1       0.788  -7.196   3.718  0.00  0.00    -0.270 OA
ATOM      4  H   UNL     1      -1.278  -8.587   1.892  0.00  0.00    +0.156 HD
ENDROOT
BRANCH   1  11
ATOM      5  N   UNL     1      -1.413  -2.002   0.005  0.00  0.00    +0.383 N 
ATOM      6  C   UNL     1      -2.787  -2.509  -0.110  0.00  0.00    -0.074 C 
ATOM      7  C   UNL     1      -2.773  -4.007  -0.433  0.00  0.00    +0.018 C 
ATOM      8  C   UNL     1      -1.878  -4.697   0.588  0.00  0.00    -0.027 A 
ATOM      9  C   UNL     1      -1.009  -3.973   1.329  0.00  0.00    -0.021 A 
ATOM     10  S   UNL     1      -0.201  -5.161   2.357  0.00  0.00    -0.079 S 
ATOM     11  C   UNL     1      -0.970  -6.561   1.837  0.00  0.00    +0.085 A 
ATOM     12  C   UNL     1      -1.857  -6.119   0.865  0.00  0.00    +0.068 A 
ATOM     13  C   UNL     1      -0.807  -2.492   1.257  0.00  0.00    -0.035 C 
ATOM     14  H   UNL     1      -0.870  -2.327  -0.781  0.00  0.00    -0.081 HD
BRANCH  12  15
ATOM     15  C   UNL     1      -2.735  -7.051   0.151  0.00  0.00    +0.244 C 
ATOM     16  O   UNL     1      -2.359  -7.571  -0.883  0.00  0.00    -0.270 OA
ATOM     17  N   UNL     1      -3.960  -7.332   0.639  0.00  0.00    -0.325 N 
ATOM     18  H   UNL     1      -4.260  -6.918   1.464  0.00  0.00    +0.145 HD
ATOM     19  H   UNL     1      -4.541  -7.949   0.167  0.00  0.00    +0.145 HD
ENDBRANCH  12  15
BRANCH   5  20
ATOM     20  C   UNL     1      -1.433  -0.534   0.013  0.00  0.00    -0.079 C 
BRANCH  20  22
ATOM     21  C   UNL     1      -0.019   1.526   0.010  0.00  0.00    +0.002 C 
ATOM     22  C   UNL     1       0.002  -0.004   0.002  0.00  0.00    -0.022 C 
ENDBRANCH  20  22
ENDBRANCH   5  20
ENDBRANCH   1  11
BRANCH   2  23
ATOM     23  C   UNL     1       0.364  -9.494   3.705  0.00  0.00    +0.037 A 
ATOM     24  C   UNL     1      -0.367 -10.545   3.151  0.00  0.00    +0.015 A 
ATOM     25  C   UNL     1      -0.158 -11.835   3.592  0.00  0.00    +0.029 A 
ATOM     26  C   UNL     1       0.774 -12.088   4.583  0.00  0.00    +0.106 A 
ATOM     27  C   UNL     1       1.502 -11.050   5.138  0.00  0.00    +0.029 A 
ATOM     28  C   UNL     1       1.307  -9.756   4.701  0.00  0.00    +0.015 A 
BRANCH  26  29
ATOM     29  S   UNL     1       1.034 -13.739   5.142  0.00  0.00    +0.061 S 
ATOM     30  O   UNL     1       1.567 -13.643   6.456  0.00  0.00    -0.153 OA
ATOM     31  O   UNL     1      -0.157 -14.458   4.853  0.00  0.00    -0.153 OA
BRANCH  29  32
ATOM     32  N   UNL     1       2.225 -14.394   4.196  0.00  0.00    -0.176 NA
ATOM     33  C   UNL     1       1.889 -15.098   2.951  0.00  0.00    +0.112 C 
ATOM     34  C   UNL     1       2.694 -14.482   1.802  0.00  0.00    +0.002 C 
ATOM     35  C   UNL     1       4.183 -14.509   2.157  0.00  0.00    +0.009 C 
ATOM     36  C   UNL     1       4.423 -13.675   3.418  0.00  0.00    +0.002 C 
ATOM     37  C   UNL     1       3.638 -14.277   4.581  0.00  0.00    +0.112 C 
ATOM     38  C   UNL     1       5.916 -13.674   3.753  0.00  0.00    +0.009 C 
ATOM     39  C   UNL     1       2.459 -15.288   0.524  0.00  0.00    +0.009 C 
ENDBRANCH  29  32
ENDBRANCH  26  29
ENDBRANCH   2  23
TORSDOF 7
