REMARK  Name = ZINC36378923
REMARK  8 active torsions:
REMARK  status: ('A' for Active; 'I' for Inactive)
REMARK    1  A    between atoms: C_1  and  C_2
REMARK    2  A    between atoms: C_2  and  C_4
REMARK    3  A    between atoms: C_2  and  N_33
REMARK    4  A    between atoms: C_10  and  C_32
REMARK    5  A    between atoms: C_21  and  C_31
REMARK    6  A    between atoms: C_24  and  O_27
REMARK    7  A    between atoms: O_27  and  C_28
REMARK    8  A    between atoms: C_28  and  C_30
REMARK                            x       y       z     vdW  Elec       q    Type
REMARK                         _______ _______ _______ _____ _____    ______ ____
ROOT
ATOM      1  C   UNL     1       0.583  -0.752   1.321  0.00  0.00    -0.020 C 
ATOM      2  C   UNL     1       2.034  -0.228   1.490  0.00  0.00    +0.003 C 
ATOM      3  C   UNL     1       2.974  -1.387   1.054  0.00  0.00    +0.004 C 
ATOM      4  C   UNL     1       2.033  -2.273   0.219  0.00  0.00    -0.001 C 
ATOM      5  C   UNL     1       0.761  -2.265   1.091  0.00  0.00    -0.028 C 
ATOM      6  C   UNL     1      -0.358  -2.991   0.405  0.00  0.00    +0.007 C 
ATOM      7  C   UNL     1       0.089  -4.351  -0.152  0.00  0.00    +0.005 C 
ATOM      8  C   UNL     1       1.499  -4.734   0.249  0.00  0.00    -0.001 C 
ATOM      9  C   UNL     1       2.511  -3.650  -0.114  0.00  0.00    -0.004 C 
ATOM     10  C   UNL     1       3.853  -4.002   0.531  0.00  0.00    +0.004 C 
ATOM     11  C   UNL     1       4.340  -5.310  -0.103  0.00  0.00    +0.004 C 
ATOM     12  C   UNL     1       3.326  -6.427   0.140  0.00  0.00    -0.001 C 
ATOM     13  C   UNL     1       1.944  -6.056  -0.400  0.00  0.00    -0.026 C 
ATOM     14  C   UNL     1       1.981  -5.920  -1.916  0.00  0.00    +0.011 C 
ATOM     15  C   UNL     1       2.486  -7.209  -2.564  0.00  0.00    +0.045 C 
ATOM     16  C   UNL     1       3.877  -7.553  -2.032  0.00  0.00    +0.177 C 
ATOM     17  C   UNL     1       3.830  -7.713  -0.514  0.00  0.00    +0.048 C 
ATOM     18  C   UNL     1       0.943  -7.149   0.001  0.00  0.00    +0.012 C 
ATOM     19  C   UNL     1       1.010  -2.861   2.485  0.00  0.00    +0.011 C 
ENDROOT
BRANCH   1  21
ATOM     20  C   UNL     1       0.832  -0.119  -1.077  0.00  0.00    -0.014 C 
ATOM     21  C   UNL     1      -0.092  -0.065   0.141  0.00  0.00    -0.075 C 
BRANCH  21  22
ATOM     22  N   UNL     1      -0.370   1.336   0.483  0.00  0.00    +0.380 N 
ATOM     23  H   UNL     1      -0.900   1.765  -0.261  0.00  0.00    -0.090 HD
ATOM     24  H   UNL     1      -0.903   1.374   1.339  0.00  0.00    -0.090 HD
ATOM     25  H   UNL     1       0.500   1.831   0.606  0.00  0.00    -0.090 HD
ENDBRANCH  21  22
ENDBRANCH   1  21
BRANCH  16  26
ATOM     26  O   UNL     1       4.317  -8.780  -2.623  0.00  0.00    -0.462 OA
BRANCH  26  27
ATOM     27  C   UNL     1       5.001  -8.691  -3.775  0.00  0.00    +0.304 C 
ATOM     28  O   UNL     1       5.218  -7.609  -4.267  0.00  0.00    -0.251 OA
ATOM     29  C   UNL     1       5.497  -9.941  -4.456  0.00  0.00    +0.136 C 
ENDBRANCH  26  27
ENDBRANCH  16  26
TORSDOF 4
