REMARK  Name = ZINC36643073
REMARK  12 active torsions:
REMARK  status: ('A' for Active; 'I' for Inactive)
REMARK    1  A    between atoms: C_1  and  C_2
REMARK    2  A    between atoms: C_2  and  N_3
REMARK    3  A    between atoms: N_3  and  C_4
REMARK    4  A    between atoms: N_3  and  C_6
REMARK    5  A    between atoms: C_4  and  C_5
REMARK    6  A    between atoms: C_6  and  C_7
REMARK    7  A    between atoms: C_7  and  N_8
REMARK    8  A    between atoms: C_12  and  C_19
REMARK    9  A    between atoms: C_20  and  C_22
REMARK   10  A    between atoms: C_22  and  N_23
REMARK   11  A    between atoms: N_30  and  C_35
REMARK   12  A    between atoms: N_33  and  C_34
REMARK                            x       y       z     vdW  Elec       q    Type
REMARK                         _______ _______ _______ _____ _____    ______ ____
ROOT
ATOM      1  N   UNL     1      -2.915  -4.087   0.184  0.00  0.00    -0.251 N 
ATOM      2  C   UNL     1      -3.083  -4.630   1.448  0.00  0.00    +0.168 A 
ATOM      3  N   UNL     1      -3.102  -5.893   1.805  0.00  0.00    -0.224 NA
ATOM      4  C   UNL     1      -3.276  -6.282   3.087  0.00  0.00    +0.085 A 
ATOM      5  C   UNL     1      -3.318  -7.599   3.601  0.00  0.00    -0.006 A 
ATOM      6  C   UNL     1      -3.505  -7.821   4.941  0.00  0.00    +0.046 A 
ATOM      7  C   UNL     1      -3.660  -6.771   5.836  0.00  0.00    +0.021 A 
ATOM      8  C   UNL     1      -3.624  -5.471   5.367  0.00  0.00    +0.019 A 
ATOM      9  C   UNL     1      -3.437  -5.239   4.027  0.00  0.00    +0.041 A 
ATOM     10  S   UNL     1      -3.319  -3.789   3.007  0.00  0.00    -0.052 S 
ATOM     11 CL   UNL     1      -3.550  -9.453   5.532  0.00  0.00    -0.083 Cl
ATOM     12  C   UNL     1      -3.155  -8.770   2.667  0.00  0.00    +0.047 C 
ATOM     13  C   UNL     1      -2.748  -4.897  -0.881  0.00  0.00    +0.241 C 
ATOM     14  O   UNL     1      -2.745  -6.100  -0.733  0.00  0.00    -0.273 OA
ENDROOT
BRANCH   1  15
ATOM     15  C   UNL     1      -2.919  -2.633   0.005  0.00  0.00    +0.097 C 
BRANCH  15  16
ATOM     16  C   UNL     1      -1.492  -2.098   0.144  0.00  0.00    -0.059 C 
BRANCH  16  17
ATOM     17  N   UNL     1      -1.476  -0.660  -0.156  0.00  0.00    +0.380 N 
ATOM     18  H   UNL     1      -1.879  -0.503  -1.068  0.00  0.00    -0.082 HD
BRANCH  17  20
ATOM     19  C   UNL     1      -2.348   1.539   0.475  0.00  0.00    -0.017 C 
ATOM     20  C   UNL     1      -2.260   0.060   0.856  0.00  0.00    -0.082 C 
ENDBRANCH  17  20
BRANCH  17  21
ATOM     21  C   UNL     1      -0.091  -0.172  -0.142  0.00  0.00    -0.082 C 
ATOM     22  C   UNL     1       0.685  -0.807  -1.298  0.00  0.00    -0.017 C 
ENDBRANCH  17  21
ENDBRANCH  16  17
ENDBRANCH  15  16
ENDBRANCH   1  15
BRANCH  13  23
ATOM     23  C   UNL     1      -2.566  -4.306  -2.255  0.00  0.00    +0.219 C 
BRANCH  23  24
ATOM     24  N   UNL     1      -2.406  -5.385  -3.233  0.00  0.00    -0.316 N 
ATOM     25  C   UNL     1      -1.242  -5.894  -3.682  0.00  0.00    +0.202 A 
ATOM     26  N   UNL     1      -1.482  -6.846  -4.548  0.00  0.00    -0.218 NA
ATOM     27  C   UNL     1      -2.800  -6.998  -4.701  0.00  0.00    +0.168 A 
ATOM     28  C   UNL     1      -3.420  -6.077  -3.865  0.00  0.00    +0.152 A 
ATOM     29  C   UNL     1      -4.830  -6.026  -3.825  0.00  0.00    +0.282 A 
ATOM     30  O   UNL     1      -5.397  -5.226  -3.103  0.00  0.00    -0.265 OA
ATOM     31  N   UNL     1      -5.542  -6.873  -4.596  0.00  0.00    -0.262 N 
ATOM     32  C   UNL     1      -4.929  -7.761  -5.398  0.00  0.00    +0.333 A 
ATOM     33  O   UNL     1      -5.604  -8.509  -6.079  0.00  0.00    -0.246 OA
ATOM     34  N   UNL     1      -3.587  -7.838  -5.472  0.00  0.00    -0.280 N 
ATOM     35  C   UNL     1      -2.958  -8.821  -6.357  0.00  0.00    +0.155 C 
ATOM     36  C   UNL     1      -7.006  -6.825  -4.559  0.00  0.00    +0.157 C 
ENDBRANCH  23  24
ENDBRANCH  13  23
TORSDOF 7
