REMARK  Name = ZINC22609670
REMARK  5 active torsions:
REMARK  status: ('A' for Active; 'I' for Inactive)
REMARK    1  A    between atoms: C_1  and  C_2
REMARK    2  A    between atoms: C_5  and  C_28
REMARK    3  A    between atoms: N_8  and  C_10
REMARK    4  A    between atoms: C_10  and  C_12
REMARK    5  A    between atoms: C_10  and  C_19
REMARK                            x       y       z     vdW  Elec       q    Type
REMARK                         _______ _______ _______ _____ _____    ______ ____
ROOT
ATOM      1  C   UNL     1       2.787  -0.345  -2.509  0.00  0.00    +0.006 C 
ENDROOT
BRANCH   1   7
ATOM      2  C   UNL     1      -0.019   1.526   0.010  0.00  0.00    +0.005 C 
ATOM      3  C   UNL     1       0.002  -0.004   0.002  0.00  0.00    -0.031 C 
ATOM      4  C   UNL     1       0.743  -0.512   1.242  0.00  0.00    +0.003 C 
ATOM      5  C   UNL     1       2.194  -0.026   1.196  0.00  0.00    -0.031 C 
ATOM      6  C   UNL     1       2.851  -0.519  -0.096  0.00  0.00    -0.074 C 
ATOM      7  N   UNL     1       2.106  -0.006  -1.252  0.00  0.00    +0.388 N 
ATOM      8  C   UNL     1       0.723  -0.498  -1.254  0.00  0.00    -0.074 C 
ATOM      9  C   UNL     1       2.957  -0.579   2.401  0.00  0.00    +0.005 C 
ATOM     10  H   UNL     1       2.072   1.090  -1.169  0.00  0.00    -0.080 HD
ENDBRANCH   1   7
BRANCH   1  11
ATOM     11  C   UNL     1       4.116   0.363  -2.567  0.00  0.00    +0.050 A 
ATOM     12  C   UNL     1       5.313  -0.114  -2.928  0.00  0.00    +0.282 A 
ATOM     13  N   UNL     1       6.423   0.696  -2.916  0.00  0.00    -0.170 N 
ATOM     14  C   UNL     1       6.247   1.988  -2.525  0.00  0.00    +0.199 A 
ATOM     15  S   UNL     1       4.506   2.063  -2.180  0.00  0.00    -0.050 S 
ATOM     16  N   UNL     1       7.389   2.618  -2.569  0.00  0.00    -0.208 NA
ATOM     17  C   UNL     1       8.338   1.781  -2.982  0.00  0.00    +0.246 A 
ATOM     18  N   UNL     1       7.809   0.608  -3.205  0.00  0.00    -0.150 NA
ATOM     19  O   UNL     1       5.432  -1.414  -3.310  0.00  0.00    -0.265 OA
ENDBRANCH   1  11
BRANCH   1  20
ATOM     20  C   UNL     1       1.936   0.089  -3.675  0.00  0.00    -0.056 A 
ATOM     21  C   UNL     1       1.253   1.290  -3.622  0.00  0.00    +0.005 A 
ATOM     22  C   UNL     1       0.476   1.690  -4.692  0.00  0.00    +0.038 A 
ATOM     23  C   UNL     1       0.372   0.884  -5.813  0.00  0.00    +0.123 A 
ATOM     24  C   UNL     1       1.052  -0.321  -5.862  0.00  0.00    +0.038 A 
ATOM     25  C   UNL     1       1.833  -0.718  -4.793  0.00  0.00    +0.005 A 
ATOM     26  F   UNL     1      -0.391   1.272  -6.857  0.00  0.00    -0.205 F 
ENDBRANCH   1  20
TORSDOF 3
