REMARK  Name = ZINC01830904
REMARK  4 active torsions:
REMARK  status: ('A' for Active; 'I' for Inactive)
REMARK    1  A    between atoms: C_1  and  C_2
REMARK    2  A    between atoms: C_3  and  N_9
REMARK    3  A    between atoms: C_15  and  C_17
REMARK    4  A    between atoms: C_17  and  N_48
REMARK                            x       y       z     vdW  Elec       q    Type
REMARK                         _______ _______ _______ _____ _____    ______ ____
ROOT
ATOM      1  N   UNL     1       0.258  -0.148   0.821  0.00  0.00    -0.212 NA
ATOM      2  C   UNL     1      -0.911  -0.752   0.681  0.00  0.00    +0.233 A 
ATOM      3  N   UNL     1      -2.074  -0.015   0.602  0.00  0.00    -0.297 N 
ATOM      4  H   UNL     1      -2.050   0.954   0.648  0.00  0.00    +0.171 HD
ATOM      5  C   UNL     1      -3.260  -0.673   0.451  0.00  0.00    +0.194 A 
ATOM      6  N   UNL     1      -3.272  -1.996   0.397  0.00  0.00    -0.203 NA
ATOM      7  C   UNL     1      -2.144  -2.691   0.480  0.00  0.00    +0.120 A 
ATOM      8  N   UNL     1      -0.981  -2.092   0.620  0.00  0.00    -0.199 NA
ATOM      9  N   UNL     1      -4.429   0.028   0.364  0.00  0.00    -0.329 N 
ATOM     10  H   UNL     1      -5.271  -0.443   0.261  0.00  0.00    +0.145 HD
ATOM     11  H   UNL     1      -4.417   0.997   0.404  0.00  0.00    +0.145 HD
ENDROOT
BRANCH   1  14
ATOM     12  C   UNL     1       0.678   1.462  -1.483  0.00  0.00    +0.047 C 
ATOM     13  C   UNL     1       0.514   2.047  -0.104  0.00  0.00    -0.007 A 
ATOM     14  C   UNL     1       0.310   1.207   0.994  0.00  0.00    +0.072 A 
ATOM     15  C   UNL     1       0.153   1.759   2.268  0.00  0.00    +0.028 A 
ATOM     16  C   UNL     1       0.213   3.127   2.436  0.00  0.00    +0.004 A 
ATOM     17  C   UNL     1       0.415   3.953   1.345  0.00  0.00    +0.020 A 
ATOM     18  C   UNL     1       0.566   3.414   0.078  0.00  0.00    +0.046 A 
ATOM     19 CL   UNL     1       0.820   4.460  -1.284  0.00  0.00    -0.083 Cl
ENDBRANCH   1  14
BRANCH   7  20
ATOM     20  C   UNL     1      -2.196  -4.195   0.414  0.00  0.00    -0.001 C 
BRANCH  20  30
ATOM     21  C   UNL     1      -4.609  -4.391   0.301  0.00  0.00    -0.073 C 
ATOM     22  C   UNL     1      -5.768  -5.215   0.863  0.00  0.00    +0.017 C 
ATOM     23  C   UNL     1      -5.862  -5.021   2.354  0.00  0.00    -0.048 A 
ATOM     24  C   UNL     1      -7.036  -5.386   2.996  0.00  0.00    +0.004 A 
ATOM     25  C   UNL     1      -7.162  -5.229   4.362  0.00  0.00    +0.000 A 
ATOM     26  C   UNL     1      -6.113  -4.705   5.094  0.00  0.00    +0.000 A 
ATOM     27  C   UNL     1      -4.945  -4.340   4.456  0.00  0.00    +0.002 A 
ATOM     28  C   UNL     1      -4.817  -4.495   3.083  0.00  0.00    -0.061 A 
ATOM     29  C   UNL     1      -3.526  -4.074   2.431  0.00  0.00    -0.042 C 
ATOM     30  N   UNL     1      -3.407  -4.697   1.102  0.00  0.00    +0.387 N 
ATOM     31  H   UNL     1      -3.330  -5.715   1.215  0.00  0.00    -0.081 HD
ENDBRANCH  20  30
ENDBRANCH   7  20
TORSDOF 3
