REMARK  Name = ZINC63363017
REMARK  8 active torsions:
REMARK  status: ('A' for Active; 'I' for Inactive)
REMARK    1  A    between atoms: C_1  and  C_2
REMARK    2  A    between atoms: C_2  and  C_4
REMARK    3  A    between atoms: C_2  and  N_16
REMARK    4  A    between atoms: N_6  and  C_7
REMARK    5  A    between atoms: C_7  and  C_8
REMARK    6  A    between atoms: C_19  and  C_37
REMARK    7  A    between atoms: C_25  and  O_30
REMARK    8  A    between atoms: O_30  and  C_31
REMARK                            x       y       z     vdW  Elec       q    Type
REMARK                         _______ _______ _______ _____ _____    ______ ____
ROOT
ATOM      1  N   UNL     1       0.688  -0.476  -1.203  0.00  0.00    -0.212 N 
ATOM      2  C   UNL     1       1.797  -1.245  -1.192  0.00  0.00    +0.249 C 
ATOM      3  O   UNL     1       2.411  -1.631  -0.221  0.00  0.00    -0.273 OA
ATOM      4  C   UNL     1       2.114  -1.524  -2.645  0.00  0.00    +0.136 C 
ATOM      5  C   UNL     1       3.507  -1.007  -3.001  0.00  0.00    +0.139 C 
ATOM      6  C   UNL     1       3.325   0.179  -3.937  0.00  0.00    -0.034 C 
ATOM      7  C   UNL     1       3.962   1.200  -3.370  0.00  0.00    +0.003 A 
ATOM      8  C   UNL     1       4.194   2.581  -3.821  0.00  0.00    +0.055 A 
ATOM      9  C   UNL     1       4.891   3.389  -2.975  0.00  0.00    +0.121 A 
ATOM     10  C   UNL     1       5.385   2.979  -1.728  0.00  0.00    +0.047 A 
ATOM     11  C   UNL     1       5.231   1.731  -1.218  0.00  0.00    +0.029 A 
ATOM     12  C   UNL     1       4.497   0.763  -2.044  0.00  0.00    +0.043 A 
ATOM     13  N   UNL     1       4.218  -0.502  -1.824  0.00  0.00    -0.375 N 
ATOM     14  C   UNL     1       2.502   0.129  -5.200  0.00  0.00    +0.052 C 
ATOM     15  C   UNL     1       1.127  -0.456  -4.818  0.00  0.00    +0.115 C 
ATOM     16  N   UNL     1       1.127  -0.699  -3.373  0.00  0.00    -0.269 N 
ATOM     17  C   UNL     1       0.288  -0.204  -2.453  0.00  0.00    +0.313 C 
ATOM     18  O   UNL     1      -0.719   0.423  -2.721  0.00  0.00    -0.252 OA
ATOM     19  C   UNL     1       1.952  -3.009  -2.975  0.00  0.00    +0.044 C 
ATOM     20  H   UNL     1       4.435  -1.013  -1.029  0.00  0.00    +0.160 HD
ENDROOT
BRANCH   1  22
ATOM     21  C   UNL     1      -0.019   1.526   0.010  0.00  0.00    +0.038 C 
ATOM     22  C   UNL     1       0.002  -0.004   0.002  0.00  0.00    +0.168 C 
BRANCH  22  23
ATOM     23  C   UNL     1      -1.412  -0.526   0.013  0.00  0.00    +0.234 C 
ATOM     24  O   UNL     1      -1.808  -1.223  -0.897  0.00  0.00    -0.274 OA
ATOM     25  N   UNL     1      -2.236  -0.217   1.033  0.00  0.00    -0.310 N 
ATOM     26  H   UNL     1      -1.920   0.341   1.761  0.00  0.00    +0.149 HD
BRANCH  25  27
ATOM     27  C   UNL     1      -3.611  -0.724   1.044  0.00  0.00    +0.144 C 
BRANCH  27  28
ATOM     28  C   UNL     1      -4.316  -0.238   2.283  0.00  0.00    +0.023 A 
ATOM     29  C   UNL     1      -4.271  -0.989   3.446  0.00  0.00    +0.129 A 
ATOM     30  C   UNL     1      -4.919  -0.541   4.584  0.00  0.00    +0.039 A 
ATOM     31  C   UNL     1      -5.611   0.655   4.560  0.00  0.00    +0.004 A 
ATOM     32  C   UNL     1      -5.657   1.404   3.400  0.00  0.00    +0.020 A 
ATOM     33  C   UNL     1      -5.005   0.961   2.263  0.00  0.00    +0.048 A 
ATOM     34 CL   UNL     1      -5.056   1.907   0.808  0.00  0.00    -0.083 Cl
ATOM     35  F   UNL     1      -3.594  -2.158   3.469  0.00  0.00    -0.205 F 
ENDBRANCH  27  28
ENDBRANCH  25  27
ENDBRANCH  22  23
ENDBRANCH   1  22
BRANCH   9  36
ATOM     36  O   UNL     1       5.123   4.671  -3.363  0.00  0.00    -0.495 OA
ATOM     37  C   UNL     1       5.856   5.500  -2.459  0.00  0.00    +0.277 C 
ENDBRANCH   9  36
TORSDOF 5
