REMARK  Name = ZINC11838578
REMARK  10 active torsions:
REMARK  status: ('A' for Active; 'I' for Inactive)
REMARK    1  A    between atoms: C_1  and  N_73
REMARK    2  A    between atoms: C_2  and  N_73
REMARK    3  A    between atoms: C_3  and  C_4
REMARK    4  A    between atoms: C_3  and  N_73
REMARK    5  A    between atoms: C_4  and  N_5
REMARK    6  A    between atoms: C_8  and  C_12
REMARK    7  A    between atoms: C_8  and  C_20
REMARK    8  A    between atoms: C_12  and  C_13
REMARK    9  A    between atoms: C_13  and  C_14
REMARK   10  A    between atoms: C_26  and  C_28
REMARK                            x       y       z     vdW  Elec       q    Type
REMARK                         _______ _______ _______ _____ _____    ______ ____
ROOT
ATOM      1  N   UNL     1      -1.137   1.940   0.018  0.00  0.00    -0.226 N 
ATOM      2  C   UNL     1      -0.871   3.261   0.028  0.00  0.00    +0.247 C 
ATOM      3  O   UNL     1      -1.675   4.169   0.040  0.00  0.00    -0.273 OA
ATOM      4  C   UNL     1       0.640   3.376   0.014  0.00  0.00    +0.116 C 
ATOM      5  N   UNL     1       1.094   1.974   0.002  0.00  0.00    -0.285 N 
ATOM      6  C   UNL     1      -0.014   1.211   0.009  0.00  0.00    +0.309 C 
ATOM      7  O   UNL     1       0.002  -0.004   0.002  0.00  0.00    -0.252 OA
ATOM      8  H   UNL     1       2.012   1.662  -0.008  0.00  0.00    +0.151 HD
ENDROOT
BRANCH   4   9
ATOM      9  C   UNL     1       1.116   4.106  -1.243  0.00  0.00    +0.024 C 
ATOM     10  C   UNL     1       0.725   5.583  -1.154  0.00  0.00    +0.025 C 
ATOM     11  C   UNL     1       1.234   6.318  -2.398  0.00  0.00    +0.108 C 
ATOM     12  N   UNL     1       0.727   5.631  -3.593  0.00  0.00    -0.301 N 
ATOM     13  C   UNL     1       0.969   4.189  -3.735  0.00  0.00    +0.108 C 
ATOM     14  C   UNL     1       0.463   3.478  -2.476  0.00  0.00    +0.025 C 
ATOM     15  C   UNL     1       0.052   6.311  -4.542  0.00  0.00    +0.219 C 
ATOM     16  O   UNL     1      -0.362   5.732  -5.524  0.00  0.00    -0.275 OA
BRANCH  15  17
ATOM     17  C   UNL     1      -0.189   7.790  -4.381  0.00  0.00    +0.083 C 
ATOM     18  C   UNL     1      -1.121   8.062  -3.176  0.00  0.00    +0.021 C 
ATOM     19  C   UNL     1      -2.379   8.723  -3.824  0.00  0.00    +0.013 C 
ATOM     20  C   UNL     1      -1.666   9.607  -4.941  0.00  0.00    +0.016 C 
ATOM     21  C   UNL     1      -0.987   8.351  -5.601  0.00  0.00    +0.024 C 
ATOM     22  C   UNL     1      -2.191   7.410  -5.723  0.00  0.00    -0.027 C 
ATOM     23  C   UNL     1      -2.994   7.625  -4.700  0.00  0.00    -0.027 C 
ENDBRANCH  15  17
ENDBRANCH   4   9
BRANCH   1  24
ATOM     24  C   UNL     1      -2.487   1.371   0.020  0.00  0.00    +0.099 C 
BRANCH  24  25
ATOM     25  C   UNL     1      -2.951   1.165   1.463  0.00  0.00    -0.060 C 
BRANCH  25  28
ATOM     26  C   UNL     1      -4.306  -0.761   0.900  0.00  0.00    -0.097 C 
ATOM     27  C   UNL     1      -4.878   0.603   2.818  0.00  0.00    -0.097 C 
ATOM     28  N   UNL     1      -4.322   0.612   1.448  0.00  0.00    +0.377 N 
ATOM     29  H   UNL     1      -4.913   1.202   0.852  0.00  0.00    -0.083 HD
ENDBRANCH  25  28
ENDBRANCH  24  25
ENDBRANCH   1  24
BRANCH   4  30
ATOM     30  C   UNL     1       1.137   4.092   1.272  0.00  0.00    +0.040 C 
BRANCH  30  31
ATOM     31  C   UNL     1       0.709   3.303   2.511  0.00  0.00    +0.038 C 
BRANCH  31  32
ATOM     32  C   UNL     1       1.198   4.008   3.749  0.00  0.00    -0.047 A 
ATOM     33  C   UNL     1       2.439   3.701   4.274  0.00  0.00    +0.003 A 
ATOM     34  C   UNL     1       2.891   4.352   5.407  0.00  0.00    +0.000 A 
ATOM     35  C   UNL     1       2.096   5.301   6.022  0.00  0.00    +0.000 A 
ATOM     36  C   UNL     1       0.853   5.604   5.500  0.00  0.00    +0.000 A 
ATOM     37  C   UNL     1       0.404   4.958   4.363  0.00  0.00    +0.003 A 
ENDBRANCH  31  32
ENDBRANCH  30  31
ENDBRANCH   4  30
TORSDOF 8
