REMARK  Name = ZINC43525587
REMARK  10 active torsions:
REMARK  status: ('A' for Active; 'I' for Inactive)
REMARK    1  A    between atoms: C_1  and  N_2
REMARK    2  A    between atoms: C_3  and  C_15
REMARK    3  A    between atoms: C_5  and  C_7
REMARK    4  A    between atoms: C_10  and  O_13
REMARK    5  A    between atoms: O_13  and  C_14
REMARK    6  A    between atoms: C_24  and  C_26
REMARK    7  A    between atoms: C_26  and  N_27
REMARK    8  A    between atoms: N_27  and  C_28
REMARK    9  A    between atoms: C_28  and  N_30
REMARK   10  A    between atoms: N_30  and  C_31
REMARK                            x       y       z     vdW  Elec       q    Type
REMARK                         _______ _______ _______ _____ _____    ______ ____
ROOT
ATOM      1  C   UNL     1      -0.327   0.454  -3.106  0.00  0.00    +0.024 C 
ATOM      2  C   UNL     1       1.164   0.181  -3.320  0.00  0.00    -0.068 C 
ATOM      3  N   UNL     1       1.361  -0.600  -4.543  0.00  0.00    +0.383 N 
ATOM      4  C   UNL     1       0.687  -1.897  -4.441  0.00  0.00    -0.078 C 
ATOM      5  C   UNL     1      -0.819  -1.692  -4.264  0.00  0.00    -0.015 C 
ATOM      6  C   UNL     1      -1.119  -0.185  -4.254  0.00  0.00    -0.007 C 
ATOM      7  C   UNL     1      -0.624   0.415  -5.577  0.00  0.00    -0.010 C 
ATOM      8  C   UNL     1       0.878   0.141  -5.711  0.00  0.00    -0.051 C 
ATOM      9  H   UNL     1       2.349  -0.769  -4.658  0.00  0.00    -0.081 HD
ENDROOT
BRANCH   1  12
ATOM     10  C   UNL     1      -2.942   1.086  -1.575  0.00  0.00    +0.172 C 
ATOM     11  N   UNL     1      -1.911   0.142  -1.137  0.00  0.00    -0.271 N 
ATOM     12  C   UNL     1      -0.767  -0.143  -1.794  0.00  0.00    +0.041 A 
ATOM     13  C   UNL     1      -0.086  -1.057  -1.070  0.00  0.00    +0.053 A 
ATOM     14  C   UNL     1      -0.844  -1.347   0.082  0.00  0.00    +0.093 A 
ATOM     15  N   UNL     1      -1.939  -0.618   0.039  0.00  0.00    -0.171 NA
BRANCH  14  16
ATOM     16  C   UNL     1      -0.470  -2.300   1.156  0.00  0.00    +0.002 A 
ATOM     17  C   UNL     1       0.732  -3.001   1.080  0.00  0.00    +0.013 A 
ATOM     18  C   UNL     1       1.077  -3.886   2.080  0.00  0.00    +0.046 A 
ATOM     19  C   UNL     1       0.228  -4.079   3.161  0.00  0.00    +0.120 A 
ATOM     20  C   UNL     1      -0.970  -3.382   3.240  0.00  0.00    +0.046 A 
ATOM     21  C   UNL     1      -1.317  -2.491   2.245  0.00  0.00    +0.013 A 
BRANCH  19  22
ATOM     22  O   UNL     1       0.570  -4.952   4.145  0.00  0.00    -0.495 OA
ATOM     23  C   UNL     1      -0.350  -5.102   5.228  0.00  0.00    +0.277 C 
ENDBRANCH  19  22
ENDBRANCH  14  16
ENDBRANCH   1  12
BRANCH   8  24
ATOM     24  C   UNL     1       1.134  -0.681  -6.975  0.00  0.00    +0.088 C 
BRANCH  24  25
ATOM     25  N   UNL     1       2.555  -1.032  -7.050  0.00  0.00    -0.328 N 
ATOM     26  H   UNL     1       3.164  -0.740  -6.354  0.00  0.00    +0.148 HD
BRANCH  25  27
ATOM     27  C   UNL     1       3.015  -1.760  -8.087  0.00  0.00    +0.134 C 
ATOM     28  S   UNL     1       1.940  -2.275  -9.316  0.00  0.00    -0.019 S 
BRANCH  27  29
ATOM     29  N   UNL     1       4.322  -2.083  -8.156  0.00  0.00    -0.297 N 
ATOM     30  H   UNL     1       4.916  -1.861  -7.421  0.00  0.00    +0.154 HD
BRANCH  29  31
ATOM     31  C   UNL     1       4.822  -2.738  -9.286  0.00  0.00    +0.033 A 
ATOM     32  C   UNL     1       4.403  -2.357 -10.554  0.00  0.00    +0.023 A 
ATOM     33  C   UNL     1       4.898  -3.006 -11.668  0.00  0.00    +0.002 A 
ATOM     34  C   UNL     1       5.811  -4.034 -11.522  0.00  0.00    +0.000 A 
ATOM     35  C   UNL     1       6.231  -4.416 -10.261  0.00  0.00    +0.002 A 
ATOM     36  C   UNL     1       5.743  -3.768  -9.143  0.00  0.00    +0.023 A 
ENDBRANCH  29  31
ENDBRANCH  27  29
ENDBRANCH  25  27
ENDBRANCH  24  25
ENDBRANCH   8  24
TORSDOF 8
