REMARK  Name = ZINC41350331
REMARK  8 active torsions:
REMARK  status: ('A' for Active; 'I' for Inactive)
REMARK    1  A    between atoms: C_1  and  C_2
REMARK    2  A    between atoms: C_2  and  C_4
REMARK    3  A    between atoms: C_2  and  O_26
REMARK    4  A    between atoms: C_11  and  O_12
REMARK    5  A    between atoms: C_14  and  C_18
REMARK    6  A    between atoms: C_21  and  O_24
REMARK    7  A    between atoms: O_24  and  C_25
REMARK    8  A    between atoms: O_26  and  C_27
REMARK                            x       y       z     vdW  Elec       q    Type
REMARK                         _______ _______ _______ _____ _____    ______ ____
ROOT
ATOM      1  C   UNL     1       0.626  -0.704   1.238  0.00  0.00    +0.258 C 
ATOM      2  O   UNL     1       1.409  -1.633   1.151  0.00  0.00    -0.271 OA
ATOM      3  N   UNL     1       0.234  -0.281   2.424  0.00  0.00    -0.282 N 
ATOM      4  C   UNL     1       0.808  -0.786   3.551  0.00  0.00    +0.037 A 
ATOM      5  C   UNL     1       2.026  -1.482   3.463  0.00  0.00    +0.024 A 
ATOM      6  C   UNL     1       2.608  -1.991   4.582  0.00  0.00    +0.017 A 
ATOM      7  C   UNL     1       1.993  -1.822   5.832  0.00  0.00    +0.059 A 
ATOM      8  C   UNL     1       2.584  -2.344   7.010  0.00  0.00    +0.131 A 
ATOM      9  C   UNL     1       1.930  -2.146   8.224  0.00  0.00    +0.093 A 
ATOM     10  C   UNL     1       0.734  -1.454   8.254  0.00  0.00    +0.139 A 
ATOM     11  O   UNL     1       0.181  -0.963   7.134  0.00  0.00    -0.455 OA
ATOM     12  C   UNL     1       0.770  -1.124   5.931  0.00  0.00    +0.141 A 
ATOM     13  C   UNL     1       0.188  -0.605   4.788  0.00  0.00    +0.070 A 
ATOM     14  H   UNL     1      -0.463   0.389   2.494  0.00  0.00    +0.155 HD
ENDROOT
BRANCH  10  15
ATOM     15  C   UNL     1       0.051  -1.250   9.543  0.00  0.00    +0.018 A 
ATOM     16  C   UNL     1       0.615  -1.750  10.722  0.00  0.00    +0.015 A 
ATOM     17  C   UNL     1      -0.026  -1.557  11.925  0.00  0.00    +0.046 A 
ATOM     18  C   UNL     1      -1.233  -0.867  11.969  0.00  0.00    +0.120 A 
ATOM     19  C   UNL     1      -1.797  -0.369  10.800  0.00  0.00    +0.046 A 
ATOM     20  C   UNL     1      -1.160  -0.552   9.593  0.00  0.00    +0.015 A 
BRANCH  18  21
ATOM     21  O   UNL     1      -1.861  -0.679  13.157  0.00  0.00    -0.495 OA
ATOM     22  C   UNL     1      -3.097   0.038  13.131  0.00  0.00    +0.277 C 
ENDBRANCH  18  21
ENDBRANCH  10  15
BRANCH   1  24
ATOM     23  C   UNL     1       0.599   1.409  -0.059  0.00  0.00    +0.062 C 
ATOM     24  C   UNL     1       0.105  -0.038  -0.009  0.00  0.00    +0.256 C 
BRANCH  24  25
ATOM     25  O   UNL     1       0.579  -0.742  -1.159  0.00  0.00    -0.474 OA
BRANCH  25  26
ATOM     26  C   UNL     1      -0.215  -0.727  -2.264  0.00  0.00    +0.198 A 
ATOM     27  C   UNL     1      -1.176  -1.712  -2.442  0.00  0.00    +0.206 A 
ATOM     28  C   UNL     1      -1.984  -1.695  -3.567  0.00  0.00    +0.200 A 
ATOM     29  C   UNL     1      -1.833  -0.695  -4.514  0.00  0.00    +0.199 A 
ATOM     30  C   UNL     1      -0.873   0.289  -4.337  0.00  0.00    +0.200 A 
ATOM     31  C   UNL     1      -0.068   0.277  -3.210  0.00  0.00    +0.206 A 
ATOM     32  F   UNL     1       0.864   1.240  -3.035  0.00  0.00    -0.198 F 
ATOM     33  F   UNL     1      -0.727   1.263  -5.262  0.00  0.00    -0.199 F 
ATOM     34  F   UNL     1      -2.622  -0.679  -5.611  0.00  0.00    -0.199 F 
ATOM     35  F   UNL     1      -2.920  -2.654  -3.741  0.00  0.00    -0.199 F 
ATOM     36  F   UNL     1      -1.323  -2.687  -1.519  0.00  0.00    -0.198 F 
ENDBRANCH  25  26
ENDBRANCH  24  25
ENDBRANCH   1  24
BRANCH   8  37
ATOM     37  O   UNL     1       3.755  -3.018   6.956  0.00  0.00    -0.506 OA
ATOM     38  H   UNL     1       4.068  -3.330   7.816  0.00  0.00    +0.292 HD
ENDBRANCH   8  37
TORSDOF 6
