REMARK  Name = ZINC39330599
REMARK  12 active torsions:
REMARK  status: ('A' for Active; 'I' for Inactive)
REMARK    1  A    between atoms: C_1  and  C_2
REMARK    2  A    between atoms: C_4  and  C_37
REMARK    3  A    between atoms: N_10  and  C_11
REMARK    4  A    between atoms: C_11  and  C_13
REMARK    5  A    between atoms: C_13  and  S_14
REMARK    6  A    between atoms: S_14  and  C_15
REMARK    7  A    between atoms: C_19  and  C_22
REMARK    8  A    between atoms: N_23  and  C_24
REMARK    9  A    between atoms: C_24  and  C_25
REMARK   10  A    between atoms: C_25  and  C_26
REMARK   11  A    between atoms: C_30  and  O_35
REMARK   12  A    between atoms: O_35  and  C_36
REMARK                            x       y       z     vdW  Elec       q    Type
REMARK                         _______ _______ _______ _____ _____    ______ ____
ROOT
ATOM      1  C   UNL     1      -0.603  -6.837   3.839  0.00  0.00    +0.066 C 
ATOM      2  C   UNL     1      -0.549  -5.875   2.680  0.00  0.00    +0.044 A 
ATOM      3  C   UNL     1      -0.521  -6.346   1.377  0.00  0.00    +0.046 A 
ATOM      4  C   UNL     1      -0.472  -5.427   0.341  0.00  0.00    +0.044 A 
ATOM      5  N   UNL     1      -0.454  -4.135   0.625  0.00  0.00    -0.217 NA
ATOM      6  C   UNL     1      -0.481  -3.718   1.881  0.00  0.00    +0.231 A 
ATOM      7  N   UNL     1      -0.534  -4.569   2.894  0.00  0.00    -0.217 NA
ATOM      8  N   UNL     1      -0.461  -2.354   2.143  0.00  0.00    -0.297 N 
ATOM      9  C   UNL     1      -0.379  -1.907   3.431  0.00  0.00    +0.196 C 
ATOM     10  N   UNL     1      -0.210  -2.771   4.424  0.00  0.00    -0.146 NA
ATOM     11  N   UNL     1      -0.469  -0.574   3.697  0.00  0.00    -0.357 N 
ATOM     12  C   UNL     1      -0.439  -5.894  -1.092  0.00  0.00    +0.066 C 
ATOM     13  H   UNL     1      -0.505  -1.719   1.411  0.00  0.00    +0.171 HD
ATOM     14  H   UNL     1      -0.320  -0.248   4.598  0.00  0.00    +0.162 HD
ENDROOT
BRANCH  10  15
ATOM     15  C   UNL     1      -0.012  -2.329   5.664  0.00  0.00    +0.249 C 
ATOM     16  O   UNL     1      -0.086  -1.140   5.905  0.00  0.00    -0.273 OA
BRANCH  15  17
ATOM     17  C   UNL     1       0.304  -3.304   6.769  0.00  0.00    +0.170 C 
BRANCH  17  18
ATOM     18  S   UNL     1       0.518  -2.401   8.329  0.00  0.00    -0.113 S 
BRANCH  18  19
ATOM     19  C   UNL     1       0.888  -3.700   9.540  0.00  0.00    +0.245 C 
ATOM     20  N   UNL     1       2.037  -4.528   9.109  0.00  0.00    -0.166 NA
ATOM     21  N   UNL     1       1.970  -5.742   9.130  0.00  0.00    -0.177 NA
ATOM     22  C   UNL     1       0.738  -6.423   9.588  0.00  0.00    +0.184 C 
ATOM     23  S   UNL     1      -0.434  -4.992   9.568  0.00  0.00    -0.094 S 
ATOM     24  C   UNL     1       0.904  -6.987  11.001  0.00  0.00    +0.046 C 
ENDBRANCH  18  19
ENDBRANCH  17  18
ENDBRANCH  15  17
ENDBRANCH  10  15
BRANCH  11  25
ATOM     25  C   UNL     1      -0.791   0.367   2.621  0.00  0.00    +0.120 C 
BRANCH  25  26
ATOM     26  C   UNL     1      -0.712   1.798   3.154  0.00  0.00    +0.058 C 
BRANCH  26  27
ATOM     27  C   UNL     1      -1.161   2.759   2.084  0.00  0.00    -0.021 A 
ATOM     28  C   UNL     1      -2.537   3.189   1.821  0.00  0.00    +0.003 A 
ATOM     29  C   UNL     1      -3.772   2.895   2.401  0.00  0.00    +0.014 A 
ATOM     30  C   UNL     1      -4.908   3.476   1.914  0.00  0.00    +0.046 A 
ATOM     31  C   UNL     1      -4.844   4.361   0.840  0.00  0.00    +0.122 A 
ATOM     32  C   UNL     1      -3.631   4.664   0.252  0.00  0.00    +0.071 A 
ATOM     33  C   UNL     1      -2.464   4.082   0.736  0.00  0.00    +0.050 A 
ATOM     34  N   UNL     1      -1.138   4.178   0.377  0.00  0.00    -0.360 N 
ATOM     35  C   UNL     1      -0.376   3.388   1.195  0.00  0.00    +0.087 A 
ATOM     36  H   UNL     1      -0.795   4.727  -0.345  0.00  0.00    +0.165 HD
BRANCH  31  37
ATOM     37  O   UNL     1      -5.984   4.930   0.367  0.00  0.00    -0.495 OA
ATOM     38  C   UNL     1      -7.205   4.575   1.019  0.00  0.00    +0.277 C 
ENDBRANCH  31  37
ENDBRANCH  26  27
ENDBRANCH  25  26
ENDBRANCH  11  25
TORSDOF 8
