REMARK  Name = ZINC56064767
REMARK  6 active torsions:
REMARK  status: ('A' for Active; 'I' for Inactive)
REMARK    1  A    between atoms: C_1  and  C_2
REMARK    2  A    between atoms: C_5  and  S_9
REMARK    3  A    between atoms: S_9  and  N_12
REMARK    4  A    between atoms: N_12  and  C_13
REMARK    5  A    between atoms: C_13  and  C_14
REMARK    6  A    between atoms: C_24  and  C_27
REMARK                            x       y       z     vdW  Elec       q    Type
REMARK                         _______ _______ _______ _____ _____    ______ ____
ROOT
ATOM      1  C   UNL     1       1.800  -4.715   2.040  0.00  0.00    +0.142 C 
ENDROOT
BRANCH   1   2
ATOM      2  C   UNL     1       2.972  -5.548   2.489  0.00  0.00    -0.016 A 
ATOM      3  C   UNL     1       2.770  -6.820   3.010  0.00  0.00    +0.009 A 
ATOM      4  C   UNL     1       3.873  -7.552   3.410  0.00  0.00    +0.042 A 
ATOM      5  C   UNL     1       5.140  -6.993   3.279  0.00  0.00    +0.099 A 
ATOM      6  N   UNL     1       5.291  -5.777   2.777  0.00  0.00    -0.349 N 
ATOM      7  C   UNL     1       4.258  -5.058   2.382  0.00  0.00    +0.089 A 
ATOM      8  N   UNL     1       6.257  -7.718   3.677  0.00  0.00    -0.312 N 
ATOM      9  C   UNL     1       6.116  -9.017   4.354  0.00  0.00    +0.134 C 
ATOM     10  C   UNL     1       6.972  -8.995   5.625  0.00  0.00    +0.179 C 
ATOM     11  O   UNL     1       8.303  -8.596   5.290  0.00  0.00    -0.374 OA
ATOM     12  C   UNL     1       8.400  -7.275   4.751  0.00  0.00    +0.132 C 
ATOM     13  C   UNL     1       7.617  -7.211   3.430  0.00  0.00    +0.137 C 
ATOM     14  C   UNL     1       9.869  -6.936   4.491  0.00  0.00    +0.039 C 
ATOM     15  H   UNL     1       6.184  -5.407   2.695  0.00  0.00    +0.167 HD
ENDBRANCH   1   2
BRANCH   1  16
ATOM     16  N   UNL     1       1.520  -4.986   0.627  0.00  0.00    -0.186 NA
ATOM     17  H   UNL     1       2.178  -5.444   0.082  0.00  0.00    +0.148 HD
BRANCH  16  18
ATOM     18  S   UNL     1       0.081  -4.508  -0.038  0.00  0.00    +0.060 S 
ATOM     19  O   UNL     1      -0.941  -4.952   0.843  0.00  0.00    -0.153 OA
ATOM     20  O   UNL     1       0.123  -4.885  -1.408  0.00  0.00    -0.153 OA
BRANCH  18  25
ATOM     21  C   UNL     1      -0.033   1.524   0.089  0.00  0.00    +0.044 C 
ATOM     22  C   UNL     1      -0.004   0.018   0.058  0.00  0.00    -0.049 A 
ATOM     23  C   UNL     1       0.015  -0.648  -1.153  0.00  0.00    +0.005 A 
ATOM     24  C   UNL     1       0.042  -2.030  -1.183  0.00  0.00    +0.030 A 
ATOM     25  C   UNL     1       0.049  -2.747  -0.001  0.00  0.00    +0.123 A 
ATOM     26  C   UNL     1       0.029  -2.081   1.212  0.00  0.00    +0.068 A 
ATOM     27  C   UNL     1       0.009  -0.698   1.240  0.00  0.00    +0.025 A 
ATOM     28 CL   UNL     1       0.038  -2.980   2.696  0.00  0.00    -0.082 Cl
ENDBRANCH  18  25
ENDBRANCH  16  18
ENDBRANCH   1  16
TORSDOF 4
