REMARK  Name = ZINC13116944
REMARK  7 active torsions:
REMARK  status: ('A' for Active; 'I' for Inactive)
REMARK    1  A    between atoms: C_1  and  C_2
REMARK    2  A    between atoms: C_2  and  C_25
REMARK    3  A    between atoms: N_9  and  C_24
REMARK    4  A    between atoms: C_11  and  C_12
REMARK    5  A    between atoms: N_13  and  N_14
REMARK    6  A    between atoms: C_15  and  C_17
REMARK    7  A    between atoms: C_20  and  N_23
REMARK                            x       y       z     vdW  Elec       q    Type
REMARK                         _______ _______ _______ _____ _____    ______ ____
ROOT
ATOM      1  C   UNL     1       1.920   6.010   0.080  0.00  0.00    +0.132 C 
ATOM      2  N   UNL     1       2.304   7.250  -0.030  0.00  0.00    -0.188 NA
ENDROOT
BRANCH   1  13
ATOM      3  C   UNL     1       4.201   2.396   1.291  0.00  0.00    +0.022 C 
ATOM      4  C   UNL     1       3.368   2.418   0.008  0.00  0.00    +0.030 C 
ATOM      5  C   UNL     1       2.394   1.263  -0.010  0.00  0.00    -0.015 A 
ATOM      6  C   UNL     1       2.572  -0.103   0.009  0.00  0.00    +0.006 A 
ATOM      7  C   UNL     1       1.474  -0.944  -0.016  0.00  0.00    +0.000 A 
ATOM      8  C   UNL     1       0.199  -0.410  -0.060  0.00  0.00    +0.002 A 
ATOM      9  C   UNL     1       0.016   0.957  -0.078  0.00  0.00    +0.024 A 
ATOM     10  C   UNL     1       1.119   1.812  -0.053  0.00  0.00    +0.038 A 
ATOM     11  N   UNL     1       1.186   3.203  -0.064  0.00  0.00    -0.306 N 
ATOM     12  C   UNL     1       2.488   3.649  -0.029  0.00  0.00    +0.022 C 
ATOM     13  C   UNL     1       2.898   4.929  -0.030  0.00  0.00    +0.041 C 
ATOM     14  C   UNL     1       0.016   4.083  -0.108  0.00  0.00    +0.135 C 
ATOM     15  C   UNL     1       4.277   2.372  -1.222  0.00  0.00    +0.022 C 
ENDBRANCH   1  13
BRANCH   2  16
ATOM     16  N   UNL     1       1.367   8.285   0.074  0.00  0.00    -0.203 N 
ATOM     17  C   UNL     1       1.764   9.568  -0.039  0.00  0.00    +0.263 C 
ATOM     18  O   UNL     1       2.937   9.827  -0.233  0.00  0.00    -0.268 OA
ATOM     19  H   UNL     1       0.431   8.079   0.229  0.00  0.00    +0.178 HD
BRANCH  17  20
ATOM     20  C   UNL     1       0.777  10.659   0.071  0.00  0.00    +0.038 A 
ATOM     21  C   UNL     1      -0.572  10.363   0.288  0.00  0.00    +0.015 A 
ATOM     22  C   UNL     1      -1.490  11.383   0.395  0.00  0.00    +0.023 A 
ATOM     23  C   UNL     1      -1.077  12.707   0.277  0.00  0.00    +0.025 A 
ATOM     24  C   UNL     1       0.265  13.005   0.056  0.00  0.00    +0.023 A 
ATOM     25  C   UNL     1       1.188  11.990  -0.047  0.00  0.00    +0.015 A 
BRANCH  23  26
ATOM     26  N   UNL     1      -2.008  13.736   0.381  0.00  0.00    -0.358 N 
ATOM     27  H   UNL     1      -1.722  14.659   0.300  0.00  0.00    +0.142 HD
ATOM     28  H   UNL     1      -2.943  13.530   0.535  0.00  0.00    +0.142 HD
ENDBRANCH  23  26
ENDBRANCH  17  20
ENDBRANCH   2  16
TORSDOF 4
