REMARK  Name = ZINC63361818
REMARK  12 active torsions:
REMARK  status: ('A' for Active; 'I' for Inactive)
REMARK    1  A    between atoms: C_1  and  C_2
REMARK    2  A    between atoms: C_2  and  C_3
REMARK    3  A    between atoms: C_3  and  C_4
REMARK    4  A    between atoms: C_4  and  C_5
REMARK    5  A    between atoms: C_5  and  C_6
REMARK    6  A    between atoms: C_6  and  C_8
REMARK    7  A    between atoms: C_6  and  N_9
REMARK    8  A    between atoms: C_10  and  C_12
REMARK    9  A    between atoms: C_17  and  N_18
REMARK   10  A    between atoms: C_21  and  C_39
REMARK   11  A    between atoms: C_27  and  O_32
REMARK   12  A    between atoms: O_32  and  C_33
REMARK                            x       y       z     vdW  Elec       q    Type
REMARK                         _______ _______ _______ _____ _____    ______ ____
ROOT
ATOM      1  N   UNL     1      -0.421  -8.362  -1.514  0.00  0.00    -0.192 N 
ATOM      2  C   UNL     1      -1.367  -9.263  -1.180  0.00  0.00    +0.253 C 
ATOM      3  O   UNL     1      -2.401  -9.491  -1.771  0.00  0.00    -0.272 OA
ATOM      4  C   UNL     1      -0.871  -9.931   0.084  0.00  0.00    +0.137 C 
ATOM      5  C   UNL     1      -1.848  -9.669   1.236  0.00  0.00    +0.139 C 
ATOM      6  C   UNL     1      -1.059  -9.873   2.524  0.00  0.00    -0.034 C 
ATOM      7  C   UNL     1      -1.702 -10.811   3.212  0.00  0.00    +0.003 A 
ATOM      8  C   UNL     1      -1.462 -11.388   4.543  0.00  0.00    +0.055 A 
ATOM      9  C   UNL     1      -2.322 -12.362   4.950  0.00  0.00    +0.121 A 
ATOM     10  C   UNL     1      -3.398 -12.829   4.182  0.00  0.00    +0.047 A 
ATOM     11  C   UNL     1      -3.713 -12.363   2.946  0.00  0.00    +0.029 A 
ATOM     12  C   UNL     1      -2.856 -11.303   2.398  0.00  0.00    +0.043 A 
ATOM     13  N   UNL     1      -2.926 -10.661   1.258  0.00  0.00    -0.375 N 
ATOM     14  C   UNL     1       0.229  -9.147   2.829  0.00  0.00    +0.052 C 
ATOM     15  C   UNL     1       1.162  -9.347   1.617  0.00  0.00    +0.115 C 
ATOM     16  N   UNL     1       0.369  -9.185   0.395  0.00  0.00    -0.268 N 
ATOM     17  C   UNL     1       0.583  -8.347  -0.627  0.00  0.00    +0.317 C 
ATOM     18  O   UNL     1       1.572  -7.649  -0.735  0.00  0.00    -0.252 OA
ATOM     19  C   UNL     1      -0.607 -11.423  -0.125  0.00  0.00    +0.044 C 
ATOM     20  H   UNL     1      -3.572 -10.811   0.550  0.00  0.00    +0.160 HD
ENDROOT
BRANCH   1  26
ATOM     21  C   UNL     1      -1.084  -6.287  -2.582  0.00  0.00    +0.059 A 
ATOM     22  C   UNL     1      -1.129  -5.482  -3.722  0.00  0.00    +0.015 A 
ATOM     23  C   UNL     1      -0.583  -5.933  -4.904  0.00  0.00    +0.001 A 
ATOM     24  C   UNL     1       0.011  -7.183  -4.968  0.00  0.00    +0.002 A 
ATOM     25  C   UNL     1       0.063  -7.990  -3.849  0.00  0.00    +0.025 A 
ATOM     26  C   UNL     1      -0.477  -7.550  -2.649  0.00  0.00    +0.058 A 
BRANCH  21  28
ATOM     27  N   UNL     1      -2.249  -4.596  -1.253  0.00  0.00    -0.309 N 
ATOM     28  C   UNL     1      -1.666  -5.810  -1.313  0.00  0.00    +0.246 C 
ATOM     29  O   UNL     1      -1.621  -6.512  -0.321  0.00  0.00    -0.270 OA
ATOM     30  H   UNL     1      -2.285  -4.037  -2.044  0.00  0.00    +0.149 HD
BRANCH  27  31
ATOM     31  C   UNL     1      -2.827  -4.123   0.007  0.00  0.00    +0.070 C 
ATOM     32  C   UNL     1      -4.256  -4.653   0.143  0.00  0.00    +0.028 C 
BRANCH  31  33
ATOM     33  C   UNL     1      -2.848  -2.593   0.015  0.00  0.00    +0.022 C 
BRANCH  33  34
ATOM     34  C   UNL     1      -1.413  -2.063   0.004  0.00  0.00    +0.002 C 
BRANCH  34  35
ATOM     35  C   UNL     1      -1.433  -0.534   0.013  0.00  0.00    -0.000 C 
BRANCH  35  37
ATOM     36  C   UNL     1      -0.019   1.526   0.010  0.00  0.00    +0.004 C 
ATOM     37  C   UNL     1       0.002  -0.004   0.002  0.00  0.00    -0.003 C 
ENDBRANCH  35  37
ENDBRANCH  34  35
ENDBRANCH  33  34
ENDBRANCH  31  33
ENDBRANCH  27  31
ENDBRANCH  21  28
ENDBRANCH   1  26
BRANCH   9  38
ATOM     38  O   UNL     1      -2.125 -12.915   6.176  0.00  0.00    -0.495 OA
ATOM     39  C   UNL     1      -3.040 -13.935   6.582  0.00  0.00    +0.277 C 
ENDBRANCH   9  38
TORSDOF 8
