REMARK  Name = ZINC39825022
REMARK  8 active torsions:
REMARK  status: ('A' for Active; 'I' for Inactive)
REMARK    1  A    between atoms: C_1  and  C_2
REMARK    2  A    between atoms: C_5  and  C_8
REMARK    3  A    between atoms: C_8  and  N_9
REMARK    4  A    between atoms: C_10  and  C_26
REMARK    5  A    between atoms: C_17  and  C_25
REMARK    6  A    between atoms: C_29  and  O_32
REMARK    7  A    between atoms: O_32  and  C_33
REMARK    8  A    between atoms: C_33  and  C_34
REMARK                            x       y       z     vdW  Elec       q    Type
REMARK                         _______ _______ _______ _____ _____    ______ ____
ROOT
ATOM      1  N   UNL     1       1.447  -4.746  -0.032  0.00  0.00    -0.279 N 
ATOM      2  C   UNL     1       2.261  -5.011  -1.229  0.00  0.00    +0.145 C 
ATOM      3  C   UNL     1       3.590  -5.469  -0.724  0.00  0.00    +0.072 A 
ATOM      4  C   UNL     1       4.803  -5.885  -1.436  0.00  0.00    +0.199 A 
ATOM      5  O   UNL     1       4.952  -5.748  -2.638  0.00  0.00    -0.287 OA
ATOM      6  C   UNL     1       5.833  -6.489  -0.553  0.00  0.00    +0.065 A 
ATOM      7  C   UNL     1       6.954  -7.113  -1.099  0.00  0.00    +0.018 A 
ATOM      8  C   UNL     1       7.891  -7.668  -0.273  0.00  0.00    -0.050 A 
ATOM      9  C   UNL     1       7.728  -7.613   1.104  0.00  0.00    +0.007 A 
ATOM     10  C   UNL     1       6.629  -6.999   1.661  0.00  0.00    +0.047 A 
ATOM     11  C   UNL     1       5.660  -6.423   0.839  0.00  0.00    +0.139 A 
ATOM     12  O   UNL     1       4.593  -5.817   1.407  0.00  0.00    -0.450 OA
ATOM     13  C   UNL     1       3.543  -5.460   0.641  0.00  0.00    +0.199 A 
ATOM     14  C   UNL     1       2.204  -5.006   1.054  0.00  0.00    +0.283 C 
ATOM     15  O   UNL     1       1.834  -4.885   2.205  0.00  0.00    -0.267 OA
ATOM     16  C   UNL     1       9.104  -8.343  -0.859  0.00  0.00    +0.044 C 
ENDROOT
BRANCH   2  17
ATOM     17  C   UNL     1       2.417  -3.752  -2.041  0.00  0.00    -0.022 A 
ATOM     18  C   UNL     1       2.626  -2.542  -1.405  0.00  0.00    +0.009 A 
ATOM     19  C   UNL     1       2.769  -1.386  -2.148  0.00  0.00    +0.046 A 
ATOM     20  C   UNL     1       2.704  -1.440  -3.533  0.00  0.00    +0.121 A 
ATOM     21  C   UNL     1       2.495  -2.655  -4.168  0.00  0.00    +0.046 A 
ATOM     22  C   UNL     1       2.358  -3.809  -3.421  0.00  0.00    +0.009 A 
BRANCH  20  23
ATOM     23  O   UNL     1       2.844  -0.303  -4.265  0.00  0.00    -0.483 OA
BRANCH  23  24
ATOM     24  C   UNL     1       2.766  -0.434  -5.686  0.00  0.00    +0.324 C 
BRANCH  24  25
ATOM     25  C   UNL     1       2.942   0.919  -6.325  0.00  0.00    +0.248 C 
ATOM     26  O   UNL     1       3.118   1.899  -5.633  0.00  0.00    -0.272 OA
ATOM     27  N   UNL     1       2.905   1.041  -7.667  0.00  0.00    -0.327 N 
ATOM     28  H   UNL     1       2.764   0.257  -8.221  0.00  0.00    +0.145 HD
ATOM     29  H   UNL     1       3.018   1.912  -8.079  0.00  0.00    +0.145 HD
ENDBRANCH  24  25
ENDBRANCH  23  24
ENDBRANCH  20  23
ENDBRANCH   2  17
BRANCH   1  30
ATOM     30  C   UNL     1       0.059  -4.275  -0.021  0.00  0.00    +0.144 C 
BRANCH  30  35
ATOM     31  C   UNL     1      -0.018   1.503   0.010  0.00  0.00    +0.044 C 
ATOM     32  C   UNL     1       0.002  -0.004   0.002  0.00  0.00    -0.050 A 
ATOM     33  C   UNL     1       0.006  -0.689  -1.199  0.00  0.00    +0.003 A 
ATOM     34  C   UNL     1       0.025  -2.071  -1.206  0.00  0.00    +0.005 A 
ATOM     35  C   UNL     1       0.040  -2.768  -0.013  0.00  0.00    -0.030 A 
ATOM     36  C   UNL     1       0.037  -2.084   1.188  0.00  0.00    +0.005 A 
ATOM     37  C   UNL     1       0.023  -0.702   1.195  0.00  0.00    +0.003 A 
ENDBRANCH  30  35
ENDBRANCH   1  30
TORSDOF 6
