REMARK  Name = ZINC10812103
REMARK  9 active torsions:
REMARK  status: ('A' for Active; 'I' for Inactive)
REMARK    1  A    between atoms: C_1  and  C_2
REMARK    2  A    between atoms: C_2  and  C_33
REMARK    3  A    between atoms: C_5  and  C_31
REMARK    4  A    between atoms: C_6  and  N_12
REMARK    5  A    between atoms: C_9  and  C_10
REMARK    6  A    between atoms: C_9  and  C_11
REMARK    7  A    between atoms: C_13  and  C_15
REMARK    8  A    between atoms: N_21  and  S_22
REMARK    9  A    between atoms: S_22  and  C_25
REMARK                            x       y       z     vdW  Elec       q    Type
REMARK                         _______ _______ _______ _____ _____    ______ ____
ROOT
ATOM      1  N   UNL     1      -2.296   1.171   3.806  0.00  0.00    -0.278 N 
ATOM      2  C   UNL     1      -2.809   1.421   2.585  0.00  0.00    +0.236 C 
ATOM      3  O   UNL     1      -3.838   2.054   2.479  0.00  0.00    -0.274 OA
ATOM      4  H   UNL     1      -1.472   0.665   3.891  0.00  0.00    +0.155 HD
ENDROOT
BRANCH   1  10
ATOM      5  C   UNL     1      -3.243   4.424   9.342  0.00  0.00    -0.010 C 
ATOM      6  C   UNL     1      -3.978   3.092   9.490  0.00  0.00    -0.069 C 
ATOM      7  C   UNL     1      -3.188   1.992   8.778  0.00  0.00    +0.024 C 
ATOM      8  C   UNL     1      -3.436   2.070   7.279  0.00  0.00    -0.021 A 
ATOM      9  C   UNL     1      -2.577   1.479   6.270  0.00  0.00    +0.084 A 
ATOM     10  C   UNL     1      -2.945   1.636   4.941  0.00  0.00    +0.090 A 
ATOM     11  S   UNL     1      -4.413   2.551   5.043  0.00  0.00    -0.078 S 
ATOM     12  C   UNL     1      -4.520   2.720   6.802  0.00  0.00    -0.015 A 
ATOM     13  C   UNL     1      -5.574   3.415   7.606  0.00  0.00    -0.041 C 
ATOM     14  C   UNL     1      -5.603   4.906   7.274  0.00  0.00    -0.005 C 
ATOM     15  C   UNL     1      -6.940   2.815   7.210  0.00  0.00    -0.005 C 
ATOM     16  C   UNL     1      -4.001   2.743  10.994  0.00  0.00    -0.010 C 
ATOM     17  N   UNL     1      -5.399   3.162   9.065  0.00  0.00    +0.389 N 
ATOM     18  H   UNL     1      -5.855   3.922   9.583  0.00  0.00    -0.084 HD
ATOM     19  H   UNL     1      -5.852   2.270   9.296  0.00  0.00    -0.084 HD
BRANCH   9  20
ATOM     20  C   UNL     1      -1.393   0.756   6.626  0.00  0.00    +0.102 C 
ATOM     21  N   UNL     1      -0.454   0.182   6.908  0.00  0.00    -0.191 NA
ENDBRANCH   9  20
ENDBRANCH   1  10
BRANCH   2  22
ATOM     22  C   UNL     1      -2.104   0.916   1.353  0.00  0.00    +0.166 C 
ATOM     23  C   UNL     1      -1.652   2.103   0.497  0.00  0.00    +0.030 C 
ATOM     24  C   UNL     1      -1.062   1.585  -0.817  0.00  0.00    +0.003 C 
ATOM     25  C   UNL     1      -2.134   0.812  -1.589  0.00  0.00    +0.017 C 
ATOM     26  C   UNL     1      -2.591  -0.390  -0.756  0.00  0.00    +0.110 C 
ATOM     27  N   UNL     1      -3.025   0.087   0.564  0.00  0.00    -0.164 NA
BRANCH  27  28
ATOM     28  S   UNL     1      -4.523  -0.302   1.151  0.00  0.00    +0.068 S 
ATOM     29  O   UNL     1      -4.913  -1.506   0.503  0.00  0.00    -0.152 OA
ATOM     30  O   UNL     1      -4.448  -0.188   2.565  0.00  0.00    -0.152 OA
BRANCH  28  31
ATOM     31  C   UNL     1      -5.638   0.948   0.603  0.00  0.00    +0.144 A 
ATOM     32  C   UNL     1      -6.374   0.996  -0.534  0.00  0.00    +0.038 A 
ATOM     33  C   UNL     1      -7.191   2.088  -0.758  0.00  0.00    +0.030 A 
ATOM     34  C   UNL     1      -7.231   3.080   0.167  0.00  0.00    +0.080 A 
ATOM     35  S   UNL     1      -6.096   2.475   1.405  0.00  0.00    -0.057 S 
ATOM     36 CL   UNL     1      -8.152   4.551   0.153  0.00  0.00    -0.076 Cl
ENDBRANCH  28  31
ENDBRANCH  27  28
ENDBRANCH   2  22
TORSDOF 5
