REMARK  Name = ZINC11848909
REMARK  6 active torsions:
REMARK  status: ('A' for Active; 'I' for Inactive)
REMARK    1  A    between atoms: C_1  and  C_2
REMARK    2  A    between atoms: C_2  and  O_3
REMARK    3  A    between atoms: O_3  and  C_4
REMARK    4  A    between atoms: C_4  and  C_6
REMARK    5  A    between atoms: C_20  and  N_30
REMARK    6  A    between atoms: C_25  and  C_26
REMARK                            x       y       z     vdW  Elec       q    Type
REMARK                         _______ _______ _______ _____ _____    ______ ____
ROOT
ATOM      1  C   UNL     1       1.170   2.100   0.002  0.00  0.00    +0.060 A 
ATOM      2  C   UNL     1      -0.016   1.351   0.009  0.00  0.00    +0.017 A 
ATOM      3  C   UNL     1       0.002  -0.004   0.002  0.00  0.00    +0.030 A 
ATOM      4  C   UNL     1       1.226  -0.719  -0.014  0.00  0.00    +0.081 A 
ATOM      5  C   UNL     1       2.410   0.059  -0.021  0.00  0.00    +0.042 A 
ATOM      6  C   UNL     1       2.396   1.427  -0.014  0.00  0.00    +0.032 A 
ATOM      7  S   UNL     1       3.679  -1.185  -0.039  0.00  0.00    -0.049 S 
ATOM      8  C   UNL     1       2.594  -2.606  -0.036  0.00  0.00    +0.183 A 
ATOM      9  N   UNL     1       1.405  -2.049  -0.022  0.00  0.00    -0.222 NA
ATOM     10  N   UNL     1       2.924  -3.954  -0.046  0.00  0.00    -0.235 N 
ATOM     11  C   UNL     1       4.226  -4.326  -0.065  0.00  0.00    +0.268 A 
ATOM     12  O   UNL     1       5.119  -3.500  -0.074  0.00  0.00    -0.267 OA
ATOM     13  C   UNL     1       4.518  -5.767  -0.069  0.00  0.00    +0.067 A 
ATOM     14  C   UNL     1       5.823  -6.253  -0.084  0.00  0.00    +0.038 A 
ATOM     15  C   UNL     1       6.037  -7.621  -0.093  0.00  0.00    +0.025 A 
ATOM     16  C   UNL     1       4.957  -8.504  -0.087  0.00  0.00    +0.025 A 
ATOM     17  C   UNL     1       3.672  -8.041  -0.073  0.00  0.00    +0.030 A 
ATOM     18  C   UNL     1       3.428  -6.666  -0.064  0.00  0.00    +0.079 A 
ATOM     19  N   UNL     1       2.165  -6.169  -0.050  0.00  0.00    -0.225 NA
ATOM     20  C   UNL     1       1.935  -4.892  -0.041  0.00  0.00    +0.224 A 
ENDROOT
BRANCH  20  21
ATOM     21  C   UNL     1       0.503  -4.423  -0.026  0.00  0.00    +0.451 C 
ATOM     22  F   UNL     1      -0.351  -5.531  -0.023  0.00  0.00    -0.163 F 
ATOM     23  F   UNL     1       0.277  -3.657   1.123  0.00  0.00    -0.163 F 
ATOM     24  F   UNL     1       0.255  -3.645  -1.162  0.00  0.00    -0.163 F 
ENDBRANCH  20  21
BRANCH  15  25
ATOM     25  N   UNL     1       7.342  -8.120  -0.107  0.00  0.00    -0.358 N 
ATOM     26  H   UNL     1       8.095  -7.509  -0.111  0.00  0.00    +0.142 HD
ATOM     27  H   UNL     1       7.495  -9.078  -0.114  0.00  0.00    +0.142 HD
ENDBRANCH  15  25
BRANCH   1  28
ATOM     28  C   UNL     1       1.125   3.573   0.010  0.00  0.00    +0.339 C 
ATOM     29  O   UNL     1       2.158   4.212   0.004  0.00  0.00    -0.245 OA
BRANCH  28  30
ATOM     30  O   UNL     1      -0.063   4.210   0.024  0.00  0.00    -0.461 OA
BRANCH  30  32
ATOM     31  C   UNL     1      -1.462   6.203   0.047  0.00  0.00    +0.048 C 
ATOM     32  C   UNL     1      -0.031   5.662   0.031  0.00  0.00    +0.229 C 
ENDBRANCH  30  32
ENDBRANCH  28  30
ENDBRANCH   1  28
TORSDOF 5
