REMARK  Name = ZINC35458414
REMARK  8 active torsions:
REMARK  status: ('A' for Active; 'I' for Inactive)
REMARK    1  A    between atoms: C_1  and  C_2
REMARK    2  A    between atoms: C_10  and  C_44
REMARK    3  A    between atoms: C_11  and  C_43
REMARK    4  A    between atoms: C_19  and  O_26
REMARK    5  A    between atoms: C_21  and  O_24
REMARK    6  A    between atoms: O_24  and  C_25
REMARK    7  A    between atoms: C_30  and  C_32
REMARK    8  A    between atoms: C_32  and  C_33
REMARK                            x       y       z     vdW  Elec       q    Type
REMARK                         _______ _______ _______ _____ _____    ______ ____
ROOT
ATOM      1  C   UNL     1      -0.039   1.538  -0.215  0.00  0.00    +0.008 C 
ATOM      2  C   UNL     1       0.034   0.012  -0.135  0.00  0.00    -0.008 C 
ATOM      3  C   UNL     1      -1.373  -0.575  -0.271  0.00  0.00    +0.030 C 
ATOM      4  C   UNL     1      -1.557  -1.662   0.757  0.00  0.00    -0.030 C 
ATOM      5  C   UNL     1      -2.142  -2.788   0.422  0.00  0.00    -0.022 C 
ATOM      6  C   UNL     1      -2.307  -3.867   1.454  0.00  0.00    +0.056 C 
ATOM      7  C   UNL     1      -3.647  -4.554   1.280  0.00  0.00    -0.019 C 
ATOM      8  C   UNL     1      -3.847  -5.644   1.995  0.00  0.00    -0.073 C 
ATOM      9  C   UNL     1      -2.759  -6.109   2.928  0.00  0.00    +0.018 C 
ATOM     10  C   UNL     1      -1.397  -6.093   2.248  0.00  0.00    +0.039 C 
ATOM     11  C   UNL     1      -1.195  -4.903   1.307  0.00  0.00    +0.119 C 
ATOM     12  C   UNL     1       0.137  -4.266   1.584  0.00  0.00    +0.152 C 
ATOM     13  O   UNL     1       1.076  -4.503   0.862  0.00  0.00    -0.296 OA
ATOM     14  C   UNL     1       0.310  -3.334   2.756  0.00  0.00    +0.109 C 
ATOM     15  C   UNL     1       1.477  -2.384   2.472  0.00  0.00    +0.150 C 
ATOM     16  C   UNL     1       1.298  -1.770   1.081  0.00  0.00    +0.147 C 
ATOM     17  C   UNL     1       0.626  -0.400   1.214  0.00  0.00    +0.037 C 
ATOM     18  C   UNL     1      -1.200  -5.471  -0.085  0.00  0.00    +0.228 C 
ATOM     19  O   UNL     1      -1.171  -4.808  -1.100  0.00  0.00    -0.275 OA
ATOM     20  N   UNL     1      -1.240  -6.808  -0.051  0.00  0.00    -0.311 N 
ATOM     21  C   UNL     1      -1.255  -7.303   1.323  0.00  0.00    +0.082 C 
ATOM     22  C   UNL     1      -2.718  -5.186   4.148  0.00  0.00    +0.012 C 
ATOM     23  C   UNL     1      -5.139  -6.410   1.882  0.00  0.00    +0.039 C 
ATOM     24  H   UNL     1      -1.258  -7.375  -0.837  0.00  0.00    +0.149 HD
ENDROOT
BRANCH  16  25
ATOM     25  O   UNL     1       2.575  -1.616   0.460  0.00  0.00    -0.377 OA
ATOM     26  C   UNL     1       2.989  -2.748  -0.307  0.00  0.00    +0.194 C 
ENDBRANCH  16  25
BRANCH  15  27
ATOM     27  O   UNL     1       1.498  -1.346   3.455  0.00  0.00    -0.389 OA
ATOM     28  H   UNL     1       1.604  -1.665   4.361  0.00  0.00    +0.210 HD
ENDBRANCH  15  27
BRANCH  21  29
ATOM     29  C   UNL     1      -2.440  -8.250   1.521  0.00  0.00    +0.059 C 
BRANCH  29  30
ATOM     30  C   UNL     1      -2.239  -9.487   0.684  0.00  0.00    -0.021 A 
ATOM     31  C   UNL     1      -2.723  -9.704  -0.549  0.00  0.00    +0.087 A 
ATOM     32  N   UNL     1      -2.336 -10.940  -0.991  0.00  0.00    -0.360 N 
ATOM     33  H   UNL     1      -2.564 -11.319  -1.854  0.00  0.00    +0.165 HD
ATOM     34  C   UNL     1      -1.573 -11.564  -0.029  0.00  0.00    +0.047 A 
ATOM     35  C   UNL     1      -1.474 -10.679   1.060  0.00  0.00    +0.003 A 
ATOM     36  C   UNL     1      -0.746 -11.047   2.192  0.00  0.00    +0.010 A 
ATOM     37  C   UNL     1      -0.128 -12.265   2.236  0.00  0.00    +0.001 A 
ATOM     38  C   UNL     1      -0.220 -13.140   1.162  0.00  0.00    +0.002 A 
ATOM     39  C   UNL     1      -0.941 -12.801   0.038  0.00  0.00    +0.026 A 
ENDBRANCH  29  30
ENDBRANCH  21  29
TORSDOF 4
