REMARK  Name = ZINC14249984
REMARK  8 active torsions:
REMARK  status: ('A' for Active; 'I' for Inactive)
REMARK    1  A    between atoms: C_1  and  N_74
REMARK    2  A    between atoms: C_2  and  N_74
REMARK    3  A    between atoms: C_3  and  C_10
REMARK    4  A    between atoms: C_3  and  N_74
REMARK    5  A    between atoms: C_10  and  N_11
REMARK    6  A    between atoms: C_12  and  C_14
REMARK    7  A    between atoms: N_17  and  S_20
REMARK    8  A    between atoms: S_20  and  C_23
REMARK                            x       y       z     vdW  Elec       q    Type
REMARK                         _______ _______ _______ _____ _____    ______ ____
ROOT
ATOM      1  C   UNL     1       2.300   1.538   1.414  0.00  0.00    +0.077 C 
ATOM      2  C   UNL     1       1.062   0.638   1.376  0.00  0.00    +0.030 C 
ATOM      3  C   UNL     1       1.366  -0.673   2.108  0.00  0.00    +0.110 C 
ATOM      4  N   UNL     1       1.842  -0.358   3.462  0.00  0.00    -0.177 NA
ATOM      5  C   UNL     1       2.970   0.570   3.617  0.00  0.00    +0.110 C 
ATOM      6  C   UNL     1       2.648   1.867   2.868  0.00  0.00    +0.030 C 
ENDROOT
BRANCH   1   8
ATOM      7  N   UNL     1       2.967   3.764   0.567  0.00  0.00    -0.316 N 
ATOM      8  C   UNL     1       2.015   2.814   0.665  0.00  0.00    +0.216 C 
ATOM      9  O   UNL     1       0.930   2.987   0.152  0.00  0.00    -0.276 OA
ATOM     10  H   UNL     1       3.835   3.625   0.977  0.00  0.00    +0.149 HD
BRANCH   7  11
ATOM     11  C   UNL     1       2.691   5.005  -0.162  0.00  0.00    +0.092 C 
BRANCH  11  12
ATOM     12  C   UNL     1       3.875   5.961  -0.007  0.00  0.00    -0.050 C 
ATOM     13  C   UNL     1       3.371   7.372   0.125  0.00  0.00    -0.010 C 
ATOM     14  C   UNL     1       1.993   7.569  -0.539  0.00  0.00    -0.001 C 
ATOM     15  C   UNL     1       1.871   6.847  -1.895  0.00  0.00    -0.000 C 
ATOM     16  C   UNL     1       3.111   6.987  -2.735  0.00  0.00    -0.000 C 
ATOM     17  C   UNL     1       4.012   5.759  -2.487  0.00  0.00    -0.001 C 
ATOM     18  C   UNL     1       4.778   5.873  -1.255  0.00  0.00    -0.010 C 
BRANCH  12  21
ATOM     19  C   UNL     1       5.851   6.434   1.310  0.00  0.00    -0.096 C 
ATOM     20  C   UNL     1       3.821   5.689   2.398  0.00  0.00    -0.096 C 
ATOM     21  N   UNL     1       4.657   5.572   1.185  0.00  0.00    +0.381 N 
ATOM     22  H   UNL     1       4.960   4.596   1.082  0.00  0.00    -0.082 HD
ENDBRANCH  12  21
ENDBRANCH  11  12
ENDBRANCH   7  11
ENDBRANCH   1   8
BRANCH   4  23
ATOM     23  S   UNL     1       1.119  -1.037   4.789  0.00  0.00    +0.061 S 
ATOM     24  O   UNL     1       1.381  -0.168   5.883  0.00  0.00    -0.153 OA
ATOM     25  O   UNL     1      -0.199  -1.391   4.397  0.00  0.00    -0.153 OA
BRANCH  23  26
ATOM     26  C   UNL     1       1.966  -2.544   5.130  0.00  0.00    +0.106 A 
ATOM     27  C   UNL     1       1.537  -3.726   4.554  0.00  0.00    +0.029 A 
ATOM     28  C   UNL     1       2.207  -4.901   4.823  0.00  0.00    +0.006 A 
ATOM     29  C   UNL     1       3.303  -4.910   5.676  0.00  0.00    -0.044 A 
ATOM     30  C   UNL     1       3.729  -3.734   6.251  0.00  0.00    -0.042 A 
ATOM     31  C   UNL     1       3.056  -2.550   5.975  0.00  0.00    +0.032 A 
ATOM     32  C   UNL     1       4.915  -3.667   7.177  0.00  0.00    +0.035 C 
ATOM     33  C   UNL     1       5.261  -5.056   7.708  0.00  0.00    +0.005 C 
ATOM     34  C   UNL     1       5.375  -6.014   6.517  0.00  0.00    +0.005 C 
ATOM     35  C   UNL     1       3.979  -6.231   5.937  0.00  0.00    +0.035 C 
ENDBRANCH  23  26
ENDBRANCH   4  23
TORSDOF 6
