REMARK  Name = ZINC39949030
REMARK  6 active torsions:
REMARK  status: ('A' for Active; 'I' for Inactive)
REMARK    1  A    between atoms: C_1  and  C_2
REMARK    2  A    between atoms: C_5  and  C_16
REMARK    3  A    between atoms: C_6  and  C_15
REMARK    4  A    between atoms: N_7  and  C_8
REMARK    5  A    between atoms: N_17  and  N_18
REMARK    6  A    between atoms: C_24  and  C_26
REMARK                            x       y       z     vdW  Elec       q    Type
REMARK                         _______ _______ _______ _____ _____    ______ ____
ROOT
ATOM      1  C   UNL     1       0.054   1.558   0.099  0.00  0.00    +0.029 C 
ATOM      2  C   UNL     1       0.025   0.029   0.045  0.00  0.00    +0.080 C 
ATOM      3  C   UNL     1       0.768  -0.480  -1.204  0.00  0.00    +0.060 C 
ATOM      4  C   UNL     1       1.901  -1.310  -0.640  0.00  0.00    -0.009 C 
ATOM      5  C   UNL     1       1.826  -1.285   0.694  0.00  0.00    +0.013 C 
ATOM      6  N   UNL     1       0.775  -0.539   1.173  0.00  0.00    -0.300 N 
ATOM      7  C   UNL     1       2.799  -2.008   1.588  0.00  0.00    +0.061 C 
ENDROOT
BRANCH   6   8
ATOM      8  C   UNL     1       0.468  -0.349   2.523  0.00  0.00    +0.034 A 
ATOM      9  C   UNL     1       1.331   0.372   3.338  0.00  0.00    +0.025 A 
ATOM     10  C   UNL     1       1.024   0.559   4.672  0.00  0.00    +0.022 A 
ATOM     11  C   UNL     1      -0.141   0.027   5.196  0.00  0.00    +0.041 A 
ATOM     12  C   UNL     1      -1.002  -0.693   4.386  0.00  0.00    +0.022 A 
ATOM     13  C   UNL     1      -0.704  -0.877   3.051  0.00  0.00    +0.025 A 
ATOM     14 CL   UNL     1      -0.522   0.262   6.873  0.00  0.00    -0.084 Cl
ENDBRANCH   6   8
BRANCH   4  15
ATOM     15  C   UNL     1       2.909  -2.022  -1.425  0.00  0.00    +0.135 C 
ATOM     16  N   UNL     1       3.899  -2.617  -0.825  0.00  0.00    -0.188 NA
BRANCH  16  17
ATOM     17  N   UNL     1       4.865  -3.299  -1.576  0.00  0.00    -0.207 N 
ATOM     18  C   UNL     1       5.907  -3.924  -0.946  0.00  0.00    +0.216 A 
ATOM     19  N   UNL     1       5.987  -3.883   0.370  0.00  0.00    -0.176 NA
ATOM     20  C   UNL     1       6.995  -4.487   1.012  0.00  0.00    +0.275 A 
ATOM     21  O   UNL     1       7.061  -4.443   2.232  0.00  0.00    -0.266 OA
ATOM     22  C   UNL     1       7.986  -5.178   0.268  0.00  0.00    +0.093 A 
ATOM     23  C   UNL     1       7.888  -5.210  -1.078  0.00  0.00    +0.021 A 
ATOM     24  N   UNL     1       6.839  -4.583  -1.687  0.00  0.00    -0.330 N 
ATOM     25  C   UNL     1       8.923  -5.934  -1.900  0.00  0.00    +0.063 C 
ATOM     26  H   UNL     1       4.796  -3.327  -2.543  0.00  0.00    +0.177 HD
ATOM     27  H   UNL     1       6.759  -4.604  -2.653  0.00  0.00    +0.168 HD
ENDBRANCH  16  17
ENDBRANCH   4  15
TORSDOF 3
