REMARK  Name = ZINC51232003
REMARK  8 active torsions:
REMARK  status: ('A' for Active; 'I' for Inactive)
REMARK    1  A    between atoms: C_1  and  C_2
REMARK    2  A    between atoms: C_5  and  N_8
REMARK    3  A    between atoms: C_9  and  C_11
REMARK    4  A    between atoms: C_11  and  N_12
REMARK    5  A    between atoms: N_12  and  C_13
REMARK    6  A    between atoms: N_12  and  C_14
REMARK    7  A    between atoms: C_14  and  C_15
REMARK    8  A    between atoms: C_15  and  N_17
REMARK                            x       y       z     vdW  Elec       q    Type
REMARK                         _______ _______ _______ _____ _____    ______ ____
ROOT
ATOM      1  N   UNL     1       0.420  -6.846   2.499  0.00  0.00    +0.389 N 
ATOM      2  C   UNL     1       1.667  -6.352   3.099  0.00  0.00    -0.095 C 
ATOM      3  H   UNL     1      -0.366  -6.518   3.040  0.00  0.00    -0.081 HD
ENDROOT
BRANCH   1   4
ATOM      4  C   UNL     1       0.309  -6.349   1.121  0.00  0.00    +0.019 C 
BRANCH   4   6
ATOM      5  N   UNL     1       0.059  -4.170  -0.021  0.00  0.00    -0.287 N 
ATOM      6  C   UNL     1       0.175  -4.848   1.138  0.00  0.00    +0.201 C 
ATOM      7  O   UNL     1       0.173  -4.251   2.193  0.00  0.00    -0.278 OA
ATOM      8  H   UNL     1      -0.007  -4.651  -0.861  0.00  0.00    +0.155 HD
BRANCH   5  13
ATOM      9  C   UNL     1      -0.047   1.502   0.014  0.00  0.00    +0.044 C 
ATOM     10  C   UNL     1      -0.019  -0.004   0.005  0.00  0.00    -0.050 A 
ATOM     11  C   UNL     1      -0.605  -0.712   1.038  0.00  0.00    +0.005 A 
ATOM     12  C   UNL     1      -0.581  -2.093   1.033  0.00  0.00    +0.023 A 
ATOM     13  C   UNL     1       0.032  -2.771  -0.013  0.00  0.00    +0.033 A 
ATOM     14  C   UNL     1       0.620  -2.058  -1.049  0.00  0.00    +0.023 A 
ATOM     15  C   UNL     1       0.588  -0.677  -1.040  0.00  0.00    +0.005 A 
ENDBRANCH   5  13
ENDBRANCH   4   6
ENDBRANCH   1   4
BRANCH   1  16
ATOM     16  C   UNL     1       0.429  -8.315   2.491  0.00  0.00    +0.021 C 
BRANCH  16  17
ATOM     17  C   UNL     1       0.420  -8.826   3.909  0.00  0.00    +0.222 C 
ATOM     18  O   UNL     1       0.406  -8.040   4.838  0.00  0.00    -0.276 OA
BRANCH  17  19
ATOM     19  N   UNL     1       0.426 -10.131   4.144  0.00  0.00    -0.158 NA
ATOM     20  C   UNL     1       0.417 -10.583   5.400  0.00  0.00    +0.163 A 
ATOM     21  N   UNL     1       0.396  -9.870   6.551  0.00  0.00    -0.339 N 
ATOM     22  C   UNL     1       0.391 -10.528   7.765  0.00  0.00    +0.028 A 
ATOM     23  C   UNL     1       0.408 -11.862   7.686  0.00  0.00    +0.012 A 
ATOM     24  S   UNL     1       0.422 -12.176   5.937  0.00  0.00    -0.057 S 
ATOM     25  C   UNL     1       0.406 -12.513   9.039  0.00  0.00    +0.044 C 
ATOM     26  C   UNL     1       0.813 -11.385  10.014  0.00  0.00    +0.011 C 
ATOM     27  C   UNL     1       0.364 -10.129   9.240  0.00  0.00    +0.054 C 
ATOM     28  H   UNL     1       0.386  -8.901   6.523  0.00  0.00    +0.167 HD
ENDBRANCH  17  19
ENDBRANCH  16  17
ENDBRANCH   1  16
TORSDOF 6
