REMARK  Name = ZINC39575870
REMARK  11 active torsions:
REMARK  status: ('A' for Active; 'I' for Inactive)
REMARK    1  A    between atoms: C_1  and  C_2
REMARK    2  A    between atoms: C_7  and  N_12
REMARK    3  A    between atoms: C_9  and  C_11
REMARK    4  A    between atoms: C_13  and  C_15
REMARK    5  A    between atoms: C_15  and  S_16
REMARK    6  A    between atoms: S_16  and  C_17
REMARK    7  A    between atoms: N_27  and  C_28
REMARK    8  A    between atoms: C_28  and  C_29
REMARK    9  A    between atoms: C_29  and  C_30
REMARK   10  A    between atoms: C_30  and  O_31
REMARK   11  A    between atoms: O_31  and  C_32
REMARK                            x       y       z     vdW  Elec       q    Type
REMARK                         _______ _______ _______ _____ _____    ______ ____
ROOT
ATOM      1  C   UNL     1       4.268  -6.330   4.798  0.00  0.00    +0.173 A 
ATOM      2  N   UNL     1       4.244  -5.478   5.793  0.00  0.00    -0.223 NA
ATOM      3  C   UNL     1       4.846  -5.752   6.974  0.00  0.00    +0.080 A 
ATOM      4  C   UNL     1       4.820  -4.844   8.037  0.00  0.00    +0.048 A 
ATOM      5  C   UNL     1       5.447  -5.167   9.220  0.00  0.00    +0.043 A 
ATOM      6  C   UNL     1       6.104  -6.383   9.370  0.00  0.00    +0.021 A 
ATOM      7  C   UNL     1       6.143  -7.286   8.345  0.00  0.00    +0.017 A 
ATOM      8  C   UNL     1       5.517  -6.986   7.136  0.00  0.00    +0.065 A 
ATOM      9  C   UNL     1       5.528  -7.921   6.004  0.00  0.00    +0.262 A 
ATOM     10  O   UNL     1       6.089  -8.999   6.082  0.00  0.00    -0.267 OA
ATOM     11  N   UNL     1       4.889  -7.544   4.873  0.00  0.00    -0.287 N 
ATOM     12 CL   UNL     1       5.417  -4.040  10.541  0.00  0.00    -0.083 Cl
ENDROOT
BRANCH   1  13
ATOM     13  S   UNL     1       3.457  -5.891   3.297  0.00  0.00    -0.078 S 
BRANCH  13  14
ATOM     14  C   UNL     1       2.785  -4.239   3.627  0.00  0.00    +0.173 C 
BRANCH  14  16
ATOM     15  N   UNL     1       1.471  -2.526   2.420  0.00  0.00    -0.312 N 
ATOM     16  C   UNL     1       2.056  -3.740   2.406  0.00  0.00    +0.224 C 
ATOM     17  O   UNL     1       1.996  -4.431   1.411  0.00  0.00    -0.275 OA
ATOM     18  H   UNL     1       1.520  -1.974   3.216  0.00  0.00    +0.149 HD
BRANCH  15  24
ATOM     19  C   UNL     1      -0.019   1.526   0.010  0.00  0.00    +0.008 C 
ATOM     20  C   UNL     1       0.002  -0.004   0.002  0.00  0.00    -0.009 C 
ATOM     21  C   UNL     1      -1.433  -0.534   0.013  0.00  0.00    +0.003 C 
ATOM     22  C   UNL     1      -1.413  -2.063   0.004  0.00  0.00    +0.002 C 
ATOM     23  C   UNL     1      -0.673  -2.570   1.244  0.00  0.00    +0.022 C 
ATOM     24  C   UNL     1       0.763  -2.041   1.233  0.00  0.00    +0.076 C 
ATOM     25  C   UNL     1       0.742  -0.511   1.242  0.00  0.00    +0.009 C 
ATOM     26  C   UNL     1       0.026  -0.018   2.500  0.00  0.00    +0.009 C 
ENDBRANCH  15  24
ENDBRANCH  14  16
ENDBRANCH  13  14
ENDBRANCH   1  13
BRANCH  11  27
ATOM     27  C   UNL     1       4.866  -8.444   3.716  0.00  0.00    +0.129 C 
BRANCH  27  28
ATOM     28  C   UNL     1       6.079  -8.163   2.828  0.00  0.00    +0.050 C 
BRANCH  28  29
ATOM     29  C   UNL     1       6.056  -9.102   1.620  0.00  0.00    +0.161 C 
BRANCH  29  30
ATOM     30  O   UNL     1       7.189  -8.840   0.790  0.00  0.00    -0.383 OA
ATOM     31  C   UNL     1       7.262  -9.668  -0.372  0.00  0.00    +0.193 C 
ENDBRANCH  29  30
ENDBRANCH  28  29
ENDBRANCH  27  28
ENDBRANCH  11  27
TORSDOF 8
