REMARK  Name = ZINC38650287
REMARK  10 active torsions:
REMARK  status: ('A' for Active; 'I' for Inactive)
REMARK    1  A    between atoms: C_1  and  O_2
REMARK    2  A    between atoms: O_2  and  C_3
REMARK    3  A    between atoms: C_6  and  C_9
REMARK    4  A    between atoms: C_14  and  O_23
REMARK    5  A    between atoms: C_18  and  N_22
REMARK    6  A    between atoms: C_19  and  C_20
REMARK    7  A    between atoms: O_23  and  C_24
REMARK    8  A    between atoms: C_24  and  C_26
REMARK    9  A    between atoms: C_26  and  O_27
REMARK   10  A    between atoms: O_27  and  C_28
REMARK                            x       y       z     vdW  Elec       q    Type
REMARK                         _______ _______ _______ _____ _____    ______ ____
ROOT
ATOM      1  C   UNL     1       2.544  -2.554  -4.378  0.00  0.00    +0.098 C 
ATOM      2  C   UNL     1       1.531  -3.399  -5.104  0.00  0.00    +0.008 A 
ATOM      3  C   UNL     1       0.539  -2.783  -5.847  0.00  0.00    +0.012 A 
ATOM      4  C   UNL     1      -0.399  -3.541  -6.519  0.00  0.00    +0.047 A 
ATOM      5  C   UNL     1      -0.348  -4.927  -6.452  0.00  0.00    +0.135 A 
ATOM      6  C   UNL     1       0.643  -5.546  -5.709  0.00  0.00    +0.093 A 
ATOM      7  C   UNL     1       1.586  -4.782  -5.033  0.00  0.00    +0.138 A 
ATOM      8  O   UNL     1       2.550  -5.404  -4.310  0.00  0.00    -0.441 OA
ATOM      9  C   UNL     1       3.671  -4.741  -3.978  0.00  0.00    +0.199 C 
ATOM     10  C   UNL     1       3.731  -3.391  -3.989  0.00  0.00    +0.098 C 
ENDROOT
BRANCH   1  14
ATOM     11  C   UNL     1       0.757  -0.912  -0.860  0.00  0.00    +0.120 A 
ATOM     12  C   UNL     1       1.254  -0.071  -1.845  0.00  0.00    +0.046 A 
ATOM     13  C   UNL     1       1.831  -0.604  -2.981  0.00  0.00    +0.008 A 
ATOM     14  C   UNL     1       1.914  -1.975  -3.137  0.00  0.00    -0.034 A 
ATOM     15  C   UNL     1       1.420  -2.816  -2.157  0.00  0.00    +0.008 A 
ATOM     16  C   UNL     1       0.847  -2.288  -1.016  0.00  0.00    +0.046 A 
BRANCH  11  18
ATOM     17  C   UNL     1       0.131   1.035   0.352  0.00  0.00    +0.277 C 
ATOM     18  O   UNL     1       0.189  -0.390   0.259  0.00  0.00    -0.495 OA
ENDBRANCH  11  18
ENDBRANCH   1  14
BRANCH   9  19
ATOM     19  N   UNL     1       4.785  -5.456  -3.616  0.00  0.00    -0.328 N 
ATOM     20  H   UNL     1       4.756  -6.425  -3.602  0.00  0.00    +0.145 HD
ATOM     21  H   UNL     1       5.601  -4.991  -3.373  0.00  0.00    +0.145 HD
ENDBRANCH   9  19
BRANCH  10  22
ATOM     22  C   UNL     1       4.955  -2.745  -3.623  0.00  0.00    +0.101 C 
ATOM     23  N   UNL     1       5.927  -2.233  -3.333  0.00  0.00    -0.191 NA
ENDBRANCH  10  22
BRANCH   5  24
ATOM     24  O   UNL     1      -1.271  -5.675  -7.113  0.00  0.00    -0.423 OA
BRANCH  24  25
ATOM     25  C   UNL     1      -2.172  -6.353  -6.385  0.00  0.00    +0.350 C 
ATOM     26  O   UNL     1      -2.213  -6.206  -5.186  0.00  0.00    -0.247 OA
BRANCH  25  27
ATOM     27  C   UNL     1      -3.132  -7.296  -7.062  0.00  0.00    +0.349 C 
BRANCH  27  28
ATOM     28  O   UNL     1      -3.984  -7.893  -6.082  0.00  0.00    -0.481 OA
BRANCH  28  29
ATOM     29  C   UNL     1      -4.915  -8.777  -6.530  0.00  0.00    +0.121 A 
ATOM     30  C   UNL     1      -5.002  -9.067  -7.884  0.00  0.00    +0.047 A 
ATOM     31  C   UNL     1      -5.949  -9.965  -8.337  0.00  0.00    +0.019 A 
ATOM     32  C   UNL     1      -6.810 -10.575  -7.442  0.00  0.00    +0.018 A 
ATOM     33  C   UNL     1      -6.725 -10.286  -6.092  0.00  0.00    +0.019 A 
ATOM     34  C   UNL     1      -5.775  -9.393  -5.634  0.00  0.00    +0.047 A 
ATOM     35 BR   UNL     1      -8.105 -11.804  -8.065  0.00  0.00    -0.050 Br
ENDBRANCH  28  29
ENDBRANCH  27  28
ENDBRANCH  25  27
ENDBRANCH  24  25
ENDBRANCH   5  24
TORSDOF 9
