REMARK  Name = ZINC21876205
REMARK  6 active torsions:
REMARK  status: ('A' for Active; 'I' for Inactive)
REMARK    1  A    between atoms: C_1  and  C_2
REMARK    2  A    between atoms: C_7  and  C_8
REMARK    3  A    between atoms: N_10  and  N_11
REMARK    4  A    between atoms: C_12  and  C_14
REMARK    5  A    between atoms: N_16  and  C_25
REMARK    6  A    between atoms: C_18  and  C_19
REMARK                            x       y       z     vdW  Elec       q    Type
REMARK                         _______ _______ _______ _____ _____    ______ ____
ROOT
ATOM      1  N   UNL     1       4.110  -0.431  -0.033  0.00  0.00    -0.230 N 
ATOM      2  C   UNL     1       4.387  -1.749  -0.040  0.00  0.00    +0.264 C 
ATOM      3  O   UNL     1       3.482  -2.561  -0.036  0.00  0.00    -0.269 OA
ATOM      4  H   UNL     1       4.929   0.304  -0.036  0.00  0.00    +0.173 HD
ENDROOT
BRANCH   2   5
ATOM      5  C   UNL     1       5.787  -2.207  -0.053  0.00  0.00    +0.084 A 
ATOM      6  C   UNL     1       6.916  -1.414  -0.065  0.00  0.00    +0.128 A 
ATOM      7  N   UNL     1       7.989  -2.225  -0.071  0.00  0.00    -0.239 N 
ATOM      8  N   UNL     1       7.570  -3.558  -0.073  0.00  0.00    -0.166 NA
ATOM      9  C   UNL     1       6.256  -3.596  -0.063  0.00  0.00    +0.105 A 
BRANCH   9  10
ATOM     10  C   UNL     1       5.410  -4.814  -0.061  0.00  0.00    +0.003 A 
ATOM     11  C   UNL     1       4.208  -4.829   0.645  0.00  0.00    +0.010 A 
ATOM     12  C   UNL     1       3.421  -5.962   0.639  0.00  0.00    +0.001 A 
ATOM     13  C   UNL     1       3.829  -7.086  -0.057  0.00  0.00    +0.000 A 
ATOM     14  C   UNL     1       5.023  -7.079  -0.755  0.00  0.00    +0.001 A 
ATOM     15  C   UNL     1       5.815  -5.949  -0.760  0.00  0.00    +0.010 A 
ENDBRANCH   9  10
BRANCH   7  16
ATOM     16  C   UNL     1       9.323  -1.798  -0.081  0.00  0.00    +0.065 A 
ATOM     17  C   UNL     1       9.619  -0.441  -0.084  0.00  0.00    +0.028 A 
ATOM     18  C   UNL     1      10.935  -0.023  -0.088  0.00  0.00    +0.002 A 
ATOM     19  C   UNL     1      11.958  -0.954  -0.100  0.00  0.00    +0.000 A 
ATOM     20  C   UNL     1      11.666  -2.305  -0.102  0.00  0.00    +0.002 A 
ATOM     21  C   UNL     1      10.352  -2.730  -0.092  0.00  0.00    +0.028 A 
ENDBRANCH   7  16
ENDBRANCH   2   5
BRANCH   1  24
ATOM     22  C   UNL     1       2.501   1.324  -0.012  0.00  0.00    +0.277 C 
ATOM     23  O   UNL     1       3.407   2.136  -0.016  0.00  0.00    -0.267 OA
ATOM     24  N   UNL     1       2.778   0.005  -0.020  0.00  0.00    -0.229 N 
ATOM     25  H   UNL     1       1.959  -0.729  -0.016  0.00  0.00    +0.173 HD
BRANCH  22  32
ATOM     26  C   UNL     1       1.570   4.308   0.007  0.00  0.00    +0.047 C 
ATOM     27  C   UNL     1       0.691   3.083   0.009  0.00  0.00    -0.010 A 
ATOM     28  C   UNL     1      -0.709   3.059   0.021  0.00  0.00    +0.042 A 
ATOM     29  C   UNL     1      -1.109   1.722   0.016  0.00  0.00    +0.027 A 
ATOM     30  N   UNL     1      -0.011   0.966   0.007  0.00  0.00    -0.354 N 
ATOM     31  H   UNL     1      -0.099  -0.131   0.006  0.00  0.00    +0.166 HD
ATOM     32  C   UNL     1       1.105   1.781   0.001  0.00  0.00    +0.107 A 
ATOM     33  C   UNL     1      -2.556   1.301   0.038  0.00  0.00    +0.054 C 
ATOM     34  C   UNL     1      -3.413   2.460   0.558  0.00  0.00    +0.014 C 
ATOM     35  C   UNL     1      -3.127   3.740  -0.233  0.00  0.00    +0.080 C 
ATOM     36  C   UNL     1      -1.688   4.157   0.029  0.00  0.00    +0.165 C 
ATOM     37  O   UNL     1      -1.370   5.310   0.229  0.00  0.00    -0.292 OA
ENDBRANCH  22  32
ENDBRANCH   1  24
TORSDOF 5
