REMARK  Name = ZINC04738577
REMARK  5 active torsions:
REMARK  status: ('A' for Active; 'I' for Inactive)
REMARK    1  A    between atoms: C_1  and  C_2
REMARK    2  A    between atoms: C_2  and  C_3
REMARK    3  A    between atoms: C_6  and  N_9
REMARK    4  A    between atoms: C_12  and  C_19
REMARK    5  A    between atoms: N_20  and  C_21
REMARK                            x       y       z     vdW  Elec       q    Type
REMARK                         _______ _______ _______ _____ _____    ______ ____
ROOT
ATOM      1  N   UNL     1       2.404   1.105  -0.015  0.00  0.00    -0.221 N 
ATOM      2  C   UNL     1       3.547   1.814  -0.125  0.00  0.00    +0.243 C 
ATOM      3  O   UNL     1       3.531   3.023  -0.210  0.00  0.00    -0.274 OA
ATOM      4  C   UNL     1       4.853   1.042  -0.137  0.00  0.00    +0.203 C 
ATOM      5  C   UNL     1       4.741  -0.467  -0.024  0.00  0.00    +0.236 C 
ATOM      6  O   UNL     1       5.727  -1.172  -0.025  0.00  0.00    -0.274 OA
ATOM      7  N   UNL     1       3.503  -0.994   0.078  0.00  0.00    -0.266 N 
ATOM      8  C   UNL     1       2.405  -0.229   0.086  0.00  0.00    +0.150 C 
ATOM      9  S   UNL     1       0.891  -1.015   0.228  0.00  0.00    -0.018 S 
ATOM     10  H   UNL     1       3.406  -1.957   0.152  0.00  0.00    +0.157 HD
ENDROOT
BRANCH   1  14
ATOM     11  C   UNL     1      -1.238   3.133   0.030  0.00  0.00    -0.048 A 
ATOM     12  C   UNL     1      -0.696   2.713  -1.171  0.00  0.00    +0.005 A 
ATOM     13  C   UNL     1       0.508   2.037  -1.189  0.00  0.00    +0.024 A 
ATOM     14  C   UNL     1       1.180   1.787   0.000  0.00  0.00    +0.043 A 
ATOM     15  C   UNL     1       0.636   2.214   1.204  0.00  0.00    +0.024 A 
ATOM     16  C   UNL     1      -0.571   2.886   1.216  0.00  0.00    +0.005 A 
BRANCH  11  18
ATOM     17  C   UNL     1      -2.302   5.370  -0.079  0.00  0.00    +0.009 C 
ATOM     18  C   UNL     1      -2.554   3.866   0.046  0.00  0.00    +0.032 C 
ENDBRANCH  11  18
ENDBRANCH   1  14
BRANCH   4  19
ATOM     19  C   UNL     1       5.575   1.363  -1.420  0.00  0.00    +0.106 C 
ATOM     20  N   UNL     1       6.747   1.905  -1.383  0.00  0.00    -0.259 NA
BRANCH  20  21
ATOM     21  C   UNL     1       7.405   2.197  -2.552  0.00  0.00    +0.065 A 
ATOM     22  C   UNL     1       7.445   1.261  -3.586  0.00  0.00    +0.030 A 
ATOM     23  C   UNL     1       8.102   1.562  -4.761  0.00  0.00    +0.042 A 
ATOM     24  C   UNL     1       8.732   2.787  -4.912  0.00  0.00    +0.142 A 
ATOM     25  C   UNL     1       8.700   3.719  -3.885  0.00  0.00    +0.078 A 
ATOM     26  C   UNL     1       8.040   3.429  -2.708  0.00  0.00    +0.050 A 
ATOM     27 CL   UNL     1       9.492   5.251  -4.081  0.00  0.00    -0.081 Cl
ATOM     28  F   UNL     1       9.379   3.075  -6.063  0.00  0.00    -0.204 F 
ENDBRANCH  20  21
ENDBRANCH   4  19
TORSDOF 4
