REMARK  Name = ZINC04677614
REMARK  6 active torsions:
REMARK  status: ('A' for Active; 'I' for Inactive)
REMARK    1  A    between atoms: C_1  and  C_2
REMARK    2  A    between atoms: C_2  and  C_3
REMARK    3  A    between atoms: C_3  and  C_4
REMARK    4  A    between atoms: C_11  and  N_25
REMARK    5  A    between atoms: C_12  and  C_23
REMARK    6  A    between atoms: C_13  and  C_15
REMARK                            x       y       z     vdW  Elec       q    Type
REMARK                         _______ _______ _______ _____ _____    ______ ____
ROOT
ATOM      1  C   UNL     1       0.739  -2.004  -1.265  0.00  0.00    +0.071 A 
ATOM      2  C   UNL     1       1.726  -2.809  -0.712  0.00  0.00    +0.050 A 
ATOM      3  C   UNL     1       1.379  -4.114  -0.928  0.00  0.00    +0.222 A 
ATOM      4  N   UNL     1       0.212  -4.119  -1.594  0.00  0.00    -0.246 N 
ATOM      5  H   UNL     1      -0.277  -4.905  -1.883  0.00  0.00    +0.192 HD
ATOM      6  N   UNL     1      -0.176  -2.784  -1.791  0.00  0.00    -0.176 NA
ATOM      7  O   UNL     1       2.142  -5.154  -0.510  0.00  0.00    -0.423 OA
ATOM      8  C   UNL     1       3.401  -4.882  -0.108  0.00  0.00    +0.200 C 
ATOM      9  C   UNL     1       3.856  -3.636   0.148  0.00  0.00    +0.098 C 
ATOM     10  C   UNL     1       2.985  -2.412   0.014  0.00  0.00    +0.106 C 
ENDROOT
BRANCH  10  11
ATOM     11  C   UNL     1       2.637  -1.882   1.381  0.00  0.00    +0.019 A 
ATOM     12  C   UNL     1       1.977  -2.690   2.291  0.00  0.00    +0.129 A 
ATOM     13  C   UNL     1       1.659  -2.201   3.547  0.00  0.00    +0.039 A 
ATOM     14  C   UNL     1       2.000  -0.907   3.891  0.00  0.00    +0.004 A 
ATOM     15  C   UNL     1       2.658  -0.100   2.983  0.00  0.00    +0.020 A 
ATOM     16  C   UNL     1       2.983  -0.589   1.730  0.00  0.00    +0.048 A 
ATOM     17 CL   UNL     1       3.817   0.424   0.592  0.00  0.00    -0.083 Cl
ATOM     18  F   UNL     1       1.644  -3.955   1.954  0.00  0.00    -0.205 F 
ENDBRANCH  10  11
BRANCH   8  19
ATOM     19  N   UNL     1       4.270  -5.933   0.048  0.00  0.00    -0.328 N 
ATOM     20  H   UNL     1       3.972  -6.839  -0.130  0.00  0.00    +0.145 HD
ATOM     21  H   UNL     1       5.182  -5.770   0.335  0.00  0.00    +0.145 HD
ENDBRANCH   8  19
BRANCH   9  22
ATOM     22  C   UNL     1       5.217  -3.472   0.564  0.00  0.00    +0.101 C 
ATOM     23  N   UNL     1       6.296  -3.341   0.894  0.00  0.00    -0.191 NA
ENDBRANCH   9  22
BRANCH   1  24
ATOM     24  C   UNL     1       0.718  -0.497  -1.257  0.00  0.00    +0.057 C 
BRANCH  24  26
ATOM     25  C   UNL     1      -0.019   1.526   0.010  0.00  0.00    +0.004 C 
ATOM     26  C   UNL     1       0.002  -0.004   0.002  0.00  0.00    +0.003 C 
ENDBRANCH  24  26
ENDBRANCH   1  24
TORSDOF 5
