REMARK  Name = ZINC19169307
REMARK  4 active torsions:
REMARK  status: ('A' for Active; 'I' for Inactive)
REMARK    1  A    between atoms: C_4  and  C_7
REMARK    2  A    between atoms: C_7  and  N_8
REMARK    3  A    between atoms: C_13  and  C_16
REMARK    4  A    between atoms: C_21  and  O_22
REMARK                            x       y       z     vdW  Elec       q    Type
REMARK                         _______ _______ _______ _____ _____    ______ ____
ROOT
ATOM      1  N   UNL     1       4.153  -0.953   1.342  0.00  0.00    -0.225 NA
ATOM      2  C   UNL     1       5.427  -1.671   1.364  0.00  0.00    +0.173 C 
ATOM      3  C   UNL     1       5.383  -2.123   2.872  0.00  0.00    +0.125 C 
ATOM      4  C   UNL     1       4.037  -2.696   3.004  0.00  0.00    +0.117 C 
ATOM      5  N   UNL     1       3.219  -1.867   2.044  0.00  0.00    -0.245 NA
ATOM      6  C   UNL     1       6.759  -2.478   3.121  0.00  0.00    +0.226 C 
ATOM      7  O   UNL     1       7.175  -3.348   3.855  0.00  0.00    -0.275 OA
ATOM      8  N   UNL     1       7.496  -1.617   2.346  0.00  0.00    -0.255 N 
ATOM      9  C   UNL     1       6.735  -0.943   1.416  0.00  0.00    +0.239 C 
ATOM     10  O   UNL     1       7.049   0.037   0.776  0.00  0.00    -0.274 OA
ATOM     11  H   UNL     1       2.500  -1.349   2.526  0.00  0.00    +0.142 HD
ATOM     12  H   UNL     1       8.455  -1.500   2.436  0.00  0.00    +0.158 HD
ENDROOT
BRANCH   4  13
ATOM     13  C   UNL     1       4.039  -4.153   2.616  0.00  0.00    +0.013 A 
ATOM     14  C   UNL     1       3.705  -4.526   1.329  0.00  0.00    +0.009 A 
ATOM     15  C   UNL     1       3.707  -5.862   0.972  0.00  0.00    +0.001 A 
ATOM     16  C   UNL     1       4.043  -6.827   1.903  0.00  0.00    +0.004 A 
ATOM     17  C   UNL     1       4.377  -6.460   3.192  0.00  0.00    +0.046 A 
ATOM     18  C   UNL     1       4.382  -5.119   3.550  0.00  0.00    +0.122 A 
BRANCH  18  19
ATOM     19  O   UNL     1       4.716  -4.754   4.816  0.00  0.00    -0.506 OA
ATOM     20  H   UNL     1       3.966  -4.714   5.425  0.00  0.00    +0.292 HD
ENDBRANCH  18  19
ENDBRANCH   4  13
BRANCH   1  21
ATOM     21  C   UNL     1       3.711  -0.707  -0.038  0.00  0.00    +0.138 C 
BRANCH  21  25
ATOM     22  C   UNL     1      -0.017   1.378   0.010  0.00  0.00    +0.000 A 
ATOM     23  C   UNL     1       1.171   2.086   0.002  0.00  0.00    +0.000 A 
ATOM     24  C   UNL     1       2.377   1.411  -0.013  0.00  0.00    +0.005 A 
ATOM     25  C   UNL     1       2.396   0.029  -0.020  0.00  0.00    -0.032 A 
ATOM     26  C   UNL     1       1.208  -0.679  -0.012  0.00  0.00    +0.005 A 
ATOM     27  C   UNL     1       0.002  -0.004   0.002  0.00  0.00    +0.000 A 
ENDBRANCH  21  25
ENDBRANCH   1  21
TORSDOF 4
