REMARK  Name = ZINC44983166
REMARK  4 active torsions:
REMARK  status: ('A' for Active; 'I' for Inactive)
REMARK    1  A    between atoms: C_1  and  C_2
REMARK    2  A    between atoms: C_5  and  C_8
REMARK    3  A    between atoms: C_10  and  C_13
REMARK    4  A    between atoms: C_13  and  N_20
REMARK                            x       y       z     vdW  Elec       q    Type
REMARK                         _______ _______ _______ _____ _____    ______ ____
ROOT
ATOM      1  C   UNL     1       4.309   0.050   0.034  0.00  0.00    +0.175 A 
ATOM      2  N   UNL     1       5.417  -0.701   0.053  0.00  0.00    -0.197 NA
ATOM      3  C   UNL     1       6.472   0.057  -0.063  0.00  0.00    +0.216 A 
ATOM      4  O   UNL     1       6.067   1.329  -0.160  0.00  0.00    -0.340 OA
ATOM      5  N   UNL     1       4.649   1.300  -0.100  0.00  0.00    -0.061 NA
ENDROOT
BRANCH   1  10
ATOM      6  C   UNL     1      -0.017   1.527   0.080  0.00  0.00    +0.007 C 
ATOM      7  C   UNL     1       0.008   0.004   0.223  0.00  0.00    -0.014 C 
ATOM      8  C   UNL     1       0.683  -0.613  -1.003  0.00  0.00    +0.004 C 
ATOM      9  C   UNL     1       2.116  -0.087  -1.115  0.00  0.00    +0.011 C 
ATOM     10  C   UNL     1       2.898  -0.468   0.144  0.00  0.00    +0.060 C 
ATOM     11  C   UNL     1       2.223   0.149   1.370  0.00  0.00    +0.011 C 
ATOM     12  C   UNL     1       0.790  -0.376   1.482  0.00  0.00    +0.004 C 
ENDBRANCH   1  10
BRANCH   3  13
ATOM     13  C   UNL     1       7.902  -0.419  -0.084  0.00  0.00    +0.010 C 
ATOM     14  C   UNL     1       8.735   0.518  -0.916  0.00  0.00    -0.004 C 
ATOM     15  C   UNL     1       7.901   1.263  -1.976  0.00  0.00    -0.001 C 
ATOM     16  C   UNL     1       6.870   0.355  -2.673  0.00  0.00    -0.000 C 
ATOM     17  C   UNL     1       7.428  -1.003  -3.001  0.00  0.00    -0.000 C 
ATOM     18  C   UNL     1       7.076  -1.969  -1.851  0.00  0.00    -0.001 C 
ATOM     19  C   UNL     1       7.971  -1.826  -0.713  0.00  0.00    -0.004 C 
BRANCH  13  20
ATOM     20  N   UNL     1       8.427  -0.465   1.288  0.00  0.00    +0.388 N 
ATOM     21  H   UNL     1       7.870  -1.101   1.839  0.00  0.00    -0.089 HD
ATOM     22  H   UNL     1       9.384  -0.784   1.271  0.00  0.00    -0.089 HD
ATOM     23  H   UNL     1       8.387   0.457   1.694  0.00  0.00    -0.089 HD
ENDBRANCH  13  20
ENDBRANCH   3  13
TORSDOF 3
