REMARK  Name = ZINC28294064
REMARK  7 active torsions:
REMARK  status: ('A' for Active; 'I' for Inactive)
REMARK    1  A    between atoms: C_1  and  C_2
REMARK    2  A    between atoms: C_5  and  S_8
REMARK    3  A    between atoms: S_8  and  N_11
REMARK    4  A    between atoms: C_21  and  C_23
REMARK    5  A    between atoms: C_23  and  C_24
REMARK    6  A    between atoms: N_26  and  C_27
REMARK    7  A    between atoms: C_27  and  C_28
REMARK                            x       y       z     vdW  Elec       q    Type
REMARK                         _______ _______ _______ _____ _____    ______ ____
ROOT
ATOM      1  N   UNL     1       1.500  -2.882  -1.791  0.00  0.00    -0.189 N 
ATOM      2  C   UNL     1       2.646  -3.161  -2.549  0.00  0.00    +0.073 A 
ATOM      3  C   UNL     1       3.853  -2.546  -2.271  0.00  0.00    +0.026 A 
ATOM      4  C   UNL     1       4.966  -2.839  -3.040  0.00  0.00    +0.002 A 
ATOM      5  C   UNL     1       4.872  -3.742  -4.083  0.00  0.00    +0.002 A 
ATOM      6  C   UNL     1       3.668  -4.361  -4.365  0.00  0.00    +0.025 A 
ATOM      7  C   UNL     1       2.550  -4.076  -3.599  0.00  0.00    +0.056 A 
ATOM      8  N   UNL     1       1.324  -4.700  -3.861  0.00  0.00    -0.282 N 
ATOM      9  C   UNL     1       0.185  -4.234  -3.315  0.00  0.00    +0.240 C 
ATOM     10  O   UNL     1      -0.860  -4.815  -3.520  0.00  0.00    -0.273 OA
ATOM     11  C   UNL     1       0.192  -3.003  -2.451  0.00  0.00    +0.192 C 
ATOM     12  H   UNL     1       1.285  -5.582  -4.518  0.00  0.00    +0.155 HD
ENDROOT
BRANCH   1  13
ATOM     13  S   UNL     1       1.616  -2.439  -0.200  0.00  0.00    +0.075 S 
ATOM     14  O   UNL     1       0.287  -2.240   0.264  0.00  0.00    -0.150 OA
ATOM     15  O   UNL     1       2.606  -1.422  -0.133  0.00  0.00    -0.150 OA
BRANCH  13  20
ATOM     16  C   UNL     1       3.807  -7.180   2.821  0.00  0.00    +0.044 C 
ATOM     17  C   UNL     1       3.260  -5.996   2.067  0.00  0.00    -0.050 A 
ATOM     18  C   UNL     1       4.124  -5.104   1.460  0.00  0.00    +0.005 A 
ATOM     19  C   UNL     1       3.622  -4.017   0.768  0.00  0.00    +0.029 A 
ATOM     20  C   UNL     1       2.256  -3.823   0.682  0.00  0.00    +0.109 A 
ATOM     21  C   UNL     1       1.392  -4.715   1.290  0.00  0.00    +0.029 A 
ATOM     22  C   UNL     1       1.893  -5.802   1.982  0.00  0.00    +0.005 A 
ENDBRANCH  13  20
ENDBRANCH   1  13
BRANCH  11  23
ATOM     23  C   UNL     1      -0.057  -1.770  -3.323  0.00  0.00    +0.129 C 
BRANCH  23  24
ATOM     24  C   UNL     1      -0.208  -0.556  -2.444  0.00  0.00    +0.216 C 
ATOM     25  O   UNL     1      -0.258  -0.682  -1.238  0.00  0.00    -0.276 OA
ATOM     26  N   UNL     1      -0.289   0.671  -2.997  0.00  0.00    -0.311 N 
ATOM     27  H   UNL     1      -0.327   0.780  -4.090  0.00  0.00    +0.149 HD
BRANCH  26  28
ATOM     28  C   UNL     1      -0.326   1.859  -2.141  0.00  0.00    +0.139 C 
BRANCH  28  29
ATOM     29  C   UNL     1      -0.539   3.085  -2.991  0.00  0.00    -0.030 A 
ATOM     30  C   UNL     1       0.549   3.773  -3.496  0.00  0.00    +0.005 A 
ATOM     31  C   UNL     1       0.353   4.894  -4.281  0.00  0.00    +0.000 A 
ATOM     32  C   UNL     1      -0.929   5.333  -4.552  0.00  0.00    +0.000 A 
ATOM     33  C   UNL     1      -2.016   4.648  -4.043  0.00  0.00    +0.000 A 
ATOM     34  C   UNL     1      -1.821   3.524  -3.263  0.00  0.00    +0.005 A 
ENDBRANCH  28  29
ENDBRANCH  26  28
ENDBRANCH  23  24
ENDBRANCH  11  23
TORSDOF 6
