REMARK  Name = ZINC36063320
REMARK  6 active torsions:
REMARK  status: ('A' for Active; 'I' for Inactive)
REMARK    1  A    between atoms: C_1  and  C_2
REMARK    2  A    between atoms: C_2  and  C_3
REMARK    3  A    between atoms: C_3  and  C_5
REMARK    4  A    between atoms: C_3  and  N_15
REMARK    5  A    between atoms: C_16  and  C_18
REMARK    6  A    between atoms: C_21  and  C_24
REMARK                            x       y       z     vdW  Elec       q    Type
REMARK                         _______ _______ _______ _____ _____    ______ ____
ROOT
ATOM      1  C   UNL     1       0.718  -0.497  -1.257  0.00  0.00    +0.079 C 
ENDROOT
BRANCH   1   2
ATOM      2  C   UNL     1       0.849  -2.021  -1.205  0.00  0.00    -0.010 C 
ATOM      3  C   UNL     1      -0.543  -2.650  -1.131  0.00  0.00    +0.012 C 
ATOM      4  C   UNL     1      -0.412  -4.174  -1.079  0.00  0.00    -0.010 C 
ATOM      5  C   UNL     1       0.304  -4.667  -2.337  0.00  0.00    +0.007 C 
ATOM      6  C   UNL     1       1.696  -4.038  -2.412  0.00  0.00    -0.010 C 
ATOM      7  C   UNL     1       1.565  -2.514  -2.464  0.00  0.00    +0.012 C 
ATOM      8  C   UNL     1       2.504  -4.439  -1.176  0.00  0.00    +0.007 C 
ATOM      9  C   UNL     1       1.788  -3.945   0.083  0.00  0.00    -0.010 C 
ATOM     10  C   UNL     1       0.395  -4.575   0.158  0.00  0.00    +0.007 C 
ATOM     11  C   UNL     1       1.657  -2.422   0.031  0.00  0.00    +0.012 C 
ENDBRANCH   1   2
BRANCH   1  12
ATOM     12  N   UNL     1      -0.055  -0.114  -2.441  0.00  0.00    -0.307 N 
ATOM     13  C   UNL     1       0.107   1.109  -2.984  0.00  0.00    +0.264 C 
ATOM     14  O   UNL     1       0.894   1.893  -2.492  0.00  0.00    -0.268 OA
ATOM     15  H   UNL     1      -0.683  -0.740  -2.833  0.00  0.00    +0.149 HD
BRANCH  13  16
ATOM     16  C   UNL     1      -0.675   1.497  -4.181  0.00  0.00    +0.143 A 
ATOM     17  C   UNL     1      -0.505   2.759  -4.749  0.00  0.00    +0.144 A 
ATOM     18  N   UNL     1      -1.204   3.100  -5.816  0.00  0.00    -0.256 NA
ATOM     19  C   UNL     1      -2.063   2.247  -6.346  0.00  0.00    +0.056 A 
ATOM     20  C   UNL     1      -2.235   0.991  -5.783  0.00  0.00    +0.134 A 
ATOM     21  N   UNL     1      -1.537   0.640  -4.721  0.00  0.00    -0.247 NA
ATOM     22  C   UNL     1      -2.858   2.640  -7.564  0.00  0.00    +0.067 C 
ENDBRANCH  13  16
ENDBRANCH   1  12
BRANCH   1  24
ATOM     23  C   UNL     1      -0.019   1.526   0.010  0.00  0.00    +0.006 C 
ATOM     24  C   UNL     1       0.002  -0.004   0.002  0.00  0.00    +0.019 C 
ENDBRANCH   1  24
TORSDOF 4
