REMARK  Name = ZINC15980326
REMARK  3 active torsions:
REMARK  status: ('A' for Active; 'I' for Inactive)
REMARK    1  A    between atoms: C_8  and  C_9
REMARK    2  A    between atoms: N_11  and  N_12
REMARK    3  A    between atoms: C_13  and  C_15
REMARK                            x       y       z     vdW  Elec       q    Type
REMARK                         _______ _______ _______ _____ _____    ______ ____
ROOT
ATOM      1  N   UNL     1      -1.234   1.650   0.017  0.00  0.00    -0.234 N 
ATOM      2  C   UNL     1      -2.392   0.960   0.019  0.00  0.00    +0.235 C 
ATOM      3  O   UNL     1      -2.375  -0.253   0.012  0.00  0.00    -0.274 OA
ATOM      4  H   UNL     1      -1.249   2.750   0.023  0.00  0.00    +0.173 HD
ENDROOT
BRANCH   2   5
ATOM      5  C   UNL     1      -3.707   1.696   0.029  0.00  0.00    +0.049 C 
ATOM      6  C   UNL     1      -3.794   2.567   1.283  0.00  0.00    +0.019 C 
ATOM      7  C   UNL     1      -5.129   3.314   1.294  0.00  0.00    -0.009 C 
ATOM      8  C   UNL     1      -6.279   2.304   1.294  0.00  0.00    +0.007 C 
ATOM      9  C   UNL     1      -6.191   1.433   0.039  0.00  0.00    -0.009 C 
ATOM     10  C   UNL     1      -4.856   0.686   0.029  0.00  0.00    +0.019 C 
ATOM     11  C   UNL     1      -6.290   2.318  -1.205  0.00  0.00    +0.007 C 
ATOM     12  C   UNL     1      -5.141   3.328  -1.205  0.00  0.00    -0.009 C 
ATOM     13  C   UNL     1      -5.228   4.199   0.050  0.00  0.00    +0.007 C 
ATOM     14  C   UNL     1      -3.806   2.581  -1.215  0.00  0.00    +0.019 C 
ENDBRANCH   2   5
BRANCH   1  17
ATOM     15  C   UNL     1       1.147   1.655   0.000  0.00  0.00    +0.262 C 
ATOM     16  O   UNL     1       1.130   2.872   0.007  0.00  0.00    -0.269 OA
ATOM     17  N   UNL     1      -0.011   0.966   0.007  0.00  0.00    -0.230 N 
ATOM     18  H   UNL     1       0.004  -0.134   0.006  0.00  0.00    +0.173 HD
BRANCH  15  26
ATOM     19  C   UNL     1       2.459  -0.480  -0.024  0.00  0.00    +0.020 A 
ATOM     20  C   UNL     1       3.660  -1.118  -0.039  0.00  0.00    +0.071 A 
ATOM     21  C   UNL     1       4.847  -0.361  -0.046  0.00  0.00    +0.249 A 
ATOM     22  O   UNL     1       5.926  -0.928  -0.059  0.00  0.00    -0.268 OA
ATOM     23  N   UNL     1       4.799   0.984  -0.039  0.00  0.00    -0.328 N 
ATOM     24  H   UNL     1       5.732   1.567  -0.040  0.00  0.00    +0.168 HD
ATOM     25  C   UNL     1       3.622   1.637  -0.029  0.00  0.00    +0.099 A 
ATOM     26  C   UNL     1       2.434   0.936  -0.016  0.00  0.00    +0.054 A 
ENDBRANCH  15  26
ENDBRANCH   1  17
TORSDOF 3
