REMARK  Name = ZINC09283809
REMARK  11 active torsions:
REMARK  status: ('A' for Active; 'I' for Inactive)
REMARK    1  A    between atoms: C_1  and  C_2
REMARK    2  A    between atoms: C_2  and  C_4
REMARK    3  A    between atoms: C_2  and  N_61
REMARK    4  A    between atoms: C_7  and  S_16
REMARK    5  A    between atoms: N_8  and  C_9
REMARK    6  A    between atoms: S_16  and  C_17
REMARK    7  A    between atoms: C_17  and  C_18
REMARK    8  A    between atoms: C_30  and  C_31
REMARK    9  A    between atoms: C_30  and  C_32
REMARK   10  A    between atoms: C_33  and  N_61
REMARK   11  A    between atoms: C_34  and  N_61
REMARK                            x       y       z     vdW  Elec       q    Type
REMARK                         _______ _______ _______ _____ _____    ______ ____
ROOT
ATOM      1  C   UNL     1      -0.900  -3.236   4.648  0.00  0.00    +0.125 A 
ATOM      2  N   UNL     1      -1.423  -2.186   4.081  0.00  0.00    -0.135 NA
ATOM      3  N   UNL     1      -0.562  -1.623   3.312  0.00  0.00    -0.122 NA
ATOM      4  C   UNL     1       0.570  -2.288   3.345  0.00  0.00    +0.197 A 
ATOM      5  N   UNL     1       0.388  -3.344   4.196  0.00  0.00    -0.275 N 
ENDROOT
BRANCH   5   6
ATOM      6  C   UNL     1       1.327  -4.329   4.536  0.00  0.00    +0.050 A 
ATOM      7  C   UNL     1       1.107  -5.652   4.180  0.00  0.00    +0.028 A 
ATOM      8  C   UNL     1       2.035  -6.619   4.512  0.00  0.00    +0.022 A 
ATOM      9  C   UNL     1       3.179  -6.272   5.210  0.00  0.00    +0.041 A 
ATOM     10  C   UNL     1       3.398  -4.954   5.571  0.00  0.00    +0.022 A 
ATOM     11  C   UNL     1       2.475  -3.982   5.236  0.00  0.00    +0.028 A 
ATOM     12 CL   UNL     1       4.341  -7.491   5.631  0.00  0.00    -0.084 Cl
ENDBRANCH   5   6
BRANCH   1  14
ATOM     13  C   UNL     1      -1.697  -3.485   6.983  0.00  0.00    -0.005 C 
ATOM     14  C   UNL     1      -1.587  -4.165   5.616  0.00  0.00    -0.003 C 
BRANCH  14  17
ATOM     15  C   UNL     1      -3.587  -5.480   5.976  0.00  0.00    -0.096 C 
ATOM     16  C   UNL     1      -3.751  -3.271   4.999  0.00  0.00    -0.096 C 
ATOM     17  N   UNL     1      -2.929  -4.496   5.092  0.00  0.00    +0.382 N 
ATOM     18  H   UNL     1      -2.829  -4.903   4.155  0.00  0.00    -0.082 HD
ENDBRANCH  14  17
ENDBRANCH   1  14
BRANCH   4  19
ATOM     19  S   UNL     1       2.040  -1.899   2.455  0.00  0.00    -0.076 S 
BRANCH  19  20
ATOM     20  C   UNL     1       1.493  -0.415   1.576  0.00  0.00    +0.173 C 
BRANCH  20  21
ATOM     21  C   UNL     1       2.621   0.110   0.726  0.00  0.00    +0.231 C 
ATOM     22  O   UNL     1       3.536  -0.622   0.413  0.00  0.00    -0.274 OA
ATOM     23  N   UNL     1       2.612   1.392   0.311  0.00  0.00    -0.255 N 
ATOM     24  C   UNL     1       1.506   2.223   0.549  0.00  0.00    +0.059 A 
ATOM     25  C   UNL     1       0.227   1.702   0.638  0.00  0.00    +0.025 A 
ATOM     26  C   UNL     1      -0.844   2.548   0.862  0.00  0.00    +0.002 A 
ATOM     27  C   UNL     1      -0.638   3.908   1.007  0.00  0.00    +0.002 A 
ATOM     28  C   UNL     1       0.637   4.434   0.921  0.00  0.00    +0.025 A 
ATOM     29  C   UNL     1       1.716   3.595   0.693  0.00  0.00    +0.055 A 
ATOM     30  N   UNL     1       3.016   4.107   0.610  0.00  0.00    -0.282 N 
ATOM     31  C   UNL     1       4.020   3.357   0.118  0.00  0.00    +0.241 C 
ATOM     32  O   UNL     1       5.147   3.805   0.095  0.00  0.00    -0.273 OA
ATOM     33  C   UNL     1       3.762   1.966  -0.404  0.00  0.00    +0.113 C 
ATOM     34  C   UNL     1       4.997   1.094  -0.171  0.00  0.00    +0.042 C 
ATOM     35  C   UNL     1       3.454   2.029  -1.901  0.00  0.00    +0.042 C 
ATOM     36  H   UNL     1       3.195   5.012   0.908  0.00  0.00    +0.155 HD
ENDBRANCH  20  21
ENDBRANCH  19  20
ENDBRANCH   4  19
TORSDOF 6
