REMARK  Name = ZINC09693442
REMARK  4 active torsions:
REMARK  status: ('A' for Active; 'I' for Inactive)
REMARK    1  A    between atoms: C_1  and  C_2
REMARK    2  A    between atoms: C_6  and  N_8
REMARK    3  A    between atoms: C_14  and  C_22
REMARK    4  A    between atoms: C_16  and  C_20
REMARK                            x       y       z     vdW  Elec       q    Type
REMARK                         _______ _______ _______ _____ _____    ______ ____
ROOT
ATOM      1  N   UNL     1       0.074   2.491   4.717  0.00  0.00    -0.304 N 
ATOM      2  C   UNL     1      -0.802   2.953   5.789  0.00  0.00    +0.222 C 
ATOM      3  N   UNL     1      -0.064   3.386   6.972  0.00  0.00    -0.248 N 
ATOM      4  C   UNL     1      -0.544   4.463   7.642  0.00  0.00    +0.222 C 
ATOM      5  O   UNL     1      -1.532   5.032   7.230  0.00  0.00    -0.275 OA
ATOM      6  C   UNL     1       0.132   4.961   8.890  0.00  0.00    +0.110 C 
ATOM      7  C   UNL     1       0.696   3.767   9.665  0.00  0.00    +0.071 C 
ATOM      8  C   UNL     1       1.486   2.906   8.714  0.00  0.00    +0.065 C 
ATOM      9  C   UNL     1       1.079   2.764   7.418  0.00  0.00    +0.087 C 
ATOM     10  S   UNL     1       2.076   1.796   6.330  0.00  0.00    -0.090 S 
ATOM     11  C   UNL     1       0.816   1.288   5.131  0.00  0.00    +0.182 C 
ENDROOT
BRANCH   1  17
ATOM     12  C   UNL     1      -0.013   1.086   0.008  0.00  0.00    +0.044 C 
ATOM     13  C   UNL     1      -0.718   1.572   1.248  0.00  0.00    -0.049 A 
ATOM     14  C   UNL     1      -2.084   1.789   1.225  0.00  0.00    +0.003 A 
ATOM     15  C   UNL     1      -2.736   2.229   2.362  0.00  0.00    +0.002 A 
ATOM     16  C   UNL     1      -2.023   2.465   3.522  0.00  0.00    +0.023 A 
ATOM     17  C   UNL     1      -0.650   2.253   3.546  0.00  0.00    +0.032 A 
ATOM     18  C   UNL     1       0.001   1.805   2.404  0.00  0.00    +0.026 A 
ENDBRANCH   1  17
BRANCH   7  19
ATOM     19  C   UNL     1      -0.436   2.964  10.252  0.00  0.00    -0.038 A 
ATOM     20  C   UNL     1      -1.391   2.406   9.422  0.00  0.00    +0.004 A 
ATOM     21  C   UNL     1      -2.426   1.665   9.960  0.00  0.00    +0.001 A 
ATOM     22  C   UNL     1      -2.515   1.491  11.329  0.00  0.00    +0.015 A 
ATOM     23  C   UNL     1      -1.563   2.054  12.160  0.00  0.00    +0.018 A 
ATOM     24  C   UNL     1      -0.524   2.791  11.621  0.00  0.00    +0.019 A 
ATOM     25 BR   UNL     1      -1.684   1.817  14.032  0.00  0.00    -0.050 Br
ENDBRANCH   7  19
BRANCH   8  26
ATOM     26  C   UNL     1       2.666   2.235   9.169  0.00  0.00    +0.098 C 
ATOM     27  N   UNL     1       3.603   1.703   9.530  0.00  0.00    -0.191 NA
ENDBRANCH   8  26
TORSDOF 3
