REMARK  Name = ZINC12554261
REMARK  13 active torsions:
REMARK  status: ('A' for Active; 'I' for Inactive)
REMARK    1  A    between atoms: C_1  and  C_2
REMARK    2  A    between atoms: C_2  and  N_3
REMARK    3  A    between atoms: N_3  and  C_4
REMARK    4  A    between atoms: C_4  and  C_5
REMARK    5  A    between atoms: N_7  and  C_8
REMARK    6  A    between atoms: C_8  and  C_9
REMARK    7  A    between atoms: C_8  and  C_10
REMARK    8  A    between atoms: C_11  and  C_13
REMARK    9  A    between atoms: C_13  and  S_14
REMARK   10  A    between atoms: S_14  and  C_15
REMARK   11  A    between atoms: C_18  and  C_27
REMARK   12  A    between atoms: N_19  and  C_20
REMARK   13  A    between atoms: C_25  and  C_26
REMARK                            x       y       z     vdW  Elec       q    Type
REMARK                         _______ _______ _______ _____ _____    ______ ____
ROOT
ATOM      1  C   UNL     1      -1.394  -0.566   5.299  0.00  0.00    +0.197 A 
ATOM      2  N   UNL     1      -0.164  -0.106   5.311  0.00  0.00    -0.122 NA
ATOM      3  N   UNL     1       0.245   0.033   6.520  0.00  0.00    -0.128 NA
ATOM      4  C   UNL     1      -0.698  -0.330   7.360  0.00  0.00    +0.171 A 
ATOM      5  N   UNL     1      -1.782  -0.721   6.604  0.00  0.00    -0.270 N 
ENDROOT
BRANCH   4   6
ATOM      6  C   UNL     1      -0.614  -0.317   8.834  0.00  0.00    +0.045 A 
ATOM      7  C   UNL     1      -1.584  -0.696   9.705  0.00  0.00    +0.095 A 
ATOM      8  N   UNL     1      -1.139  -0.543  10.986  0.00  0.00    -0.360 N 
ATOM      9  H   UNL     1      -1.654  -0.749  11.781  0.00  0.00    +0.165 HD
ATOM     10  C   UNL     1       0.150  -0.053  10.986  0.00  0.00    +0.047 A 
ATOM     11  C   UNL     1       0.540   0.105   9.646  0.00  0.00    +0.010 A 
ATOM     12  C   UNL     1       1.812   0.585   9.342  0.00  0.00    +0.011 A 
ATOM     13  C   UNL     1       2.684   0.899  10.361  0.00  0.00    +0.001 A 
ATOM     14  C   UNL     1       2.301   0.740  11.685  0.00  0.00    +0.002 A 
ATOM     15  C   UNL     1       1.044   0.274  12.001  0.00  0.00    +0.026 A 
ENDBRANCH   4   6
BRANCH   5  16
ATOM     16  C   UNL     1      -3.020  -1.182   7.072  0.00  0.00    +0.053 A 
ATOM     17  C   UNL     1      -3.216  -2.537   7.300  0.00  0.00    +0.026 A 
ATOM     18  C   UNL     1      -4.438  -2.988   7.762  0.00  0.00    +0.002 A 
ATOM     19  C   UNL     1      -5.464  -2.091   7.996  0.00  0.00    +0.000 A 
ATOM     20  C   UNL     1      -5.271  -0.741   7.770  0.00  0.00    +0.005 A 
ATOM     21  C   UNL     1      -4.050  -0.283   7.314  0.00  0.00    -0.026 A 
ATOM     22  C   UNL     1      -3.839   1.189   7.073  0.00  0.00    +0.046 C 
ENDBRANCH   5  16
BRANCH   1  23
ATOM     23  S   UNL     1      -2.367  -0.912   3.871  0.00  0.00    -0.076 S 
BRANCH  23  24
ATOM     24  C   UNL     1      -1.274  -0.497   2.484  0.00  0.00    +0.173 C 
BRANCH  24  26
ATOM     25  N   UNL     1      -1.372  -0.511   0.012  0.00  0.00    -0.292 N 
ATOM     26  C   UNL     1      -1.993  -0.751   1.184  0.00  0.00    +0.226 C 
ATOM     27  O   UNL     1      -3.131  -1.171   1.193  0.00  0.00    -0.275 OA
BRANCH  25  29
ATOM     28  C   UNL     1      -0.019   1.526   0.010  0.00  0.00    +0.024 C 
ATOM     29  C   UNL     1       0.002  -0.004   0.002  0.00  0.00    +0.105 C 
ENDBRANCH  25  29
BRANCH  25  30
ATOM     30  C   UNL     1      -2.072  -0.758  -1.251  0.00  0.00    +0.203 C 
BRANCH  30  31
ATOM     31  C   UNL     1      -1.820  -2.175  -1.696  0.00  0.00    +0.231 C 
ATOM     32  O   UNL     1      -1.125  -2.908  -1.024  0.00  0.00    -0.274 OA
ATOM     33  N   UNL     1      -2.367  -2.630  -2.841  0.00  0.00    -0.312 N 
ATOM     34  H   UNL     1      -2.923  -2.044  -3.378  0.00  0.00    +0.149 HD
BRANCH  33  35
ATOM     35  C   UNL     1      -2.122  -4.008  -3.274  0.00  0.00    +0.067 C 
ATOM     36  C   UNL     1      -3.126  -4.941  -2.595  0.00  0.00    +0.027 C 
ATOM     37  C   UNL     1      -2.284  -4.102  -4.792  0.00  0.00    +0.027 C 
ENDBRANCH  33  35
ENDBRANCH  30  31
ENDBRANCH  25  30
ENDBRANCH  24  26
ENDBRANCH  23  24
ENDBRANCH   1  23
TORSDOF 9
