REMARK  Name = ZINC39486259
REMARK  5 active torsions:
REMARK  status: ('A' for Active; 'I' for Inactive)
REMARK    1  A    between atoms: C_4  and  O_34
REMARK    2  A    between atoms: C_5  and  C_7
REMARK    3  A    between atoms: C_7  and  C_9
REMARK    4  A    between atoms: C_11  and  C_27
REMARK    5  A    between atoms: C_21  and  O_23
REMARK                            x       y       z     vdW  Elec       q    Type
REMARK                         _______ _______ _______ _____ _____    ______ ____
ROOT
ATOM      1  C   UNL     1      -0.036  -2.932  -0.014  0.00  0.00    +0.108 C 
ATOM      2  C   UNL     1       0.196  -4.308  -0.631  0.00  0.00    +0.063 C 
ATOM      3  C   UNL     1      -1.033  -5.168  -0.523  0.00  0.00    -0.025 A 
ATOM      4  C   UNL     1      -1.192  -6.223  -1.400  0.00  0.00    +0.054 A 
ATOM      5  C   UNL     1      -2.312  -7.039  -1.326  0.00  0.00    +0.167 A 
ATOM      6  C   UNL     1      -3.293  -6.798  -0.360  0.00  0.00    +0.167 A 
ATOM      7  C   UNL     1      -3.145  -5.747   0.520  0.00  0.00    +0.061 A 
ATOM      8  C   UNL     1      -2.014  -4.925   0.442  0.00  0.00    +0.028 A 
ATOM      9  C   UNL     1      -1.867  -3.797   1.378  0.00  0.00    +0.192 C 
ATOM     10  O   UNL     1      -2.788  -3.441   2.082  0.00  0.00    -0.289 OA
ATOM     11  C   UNL     1      -0.525  -3.097   1.431  0.00  0.00    +0.197 C 
ATOM     12  O   UNL     1      -4.279  -7.732  -0.499  0.00  0.00    -0.453 OA
ATOM     13  C   UNL     1      -4.095  -8.291  -1.813  0.00  0.00    +0.466 C 
ATOM     14  O   UNL     1      -2.688  -8.122  -2.065  0.00  0.00    -0.453 OA
ENDROOT
BRANCH   2  15
ATOM     15  C   UNL     1       0.556  -4.143  -2.085  0.00  0.00    -0.038 A 
ATOM     16  C   UNL     1      -0.326  -3.523  -2.949  0.00  0.00    +0.004 A 
ATOM     17  C   UNL     1       0.003  -3.371  -4.283  0.00  0.00    +0.001 A 
ATOM     18  C   UNL     1       1.216  -3.839  -4.753  0.00  0.00    +0.015 A 
ATOM     19  C   UNL     1       2.100  -4.459  -3.888  0.00  0.00    +0.018 A 
ATOM     20  C   UNL     1       1.772  -4.606  -2.552  0.00  0.00    +0.019 A 
ATOM     21 BR   UNL     1       3.759  -5.100  -4.531  0.00  0.00    -0.050 Br
ENDBRANCH   2  15
BRANCH   1  22
ATOM     22  C   UNL     1       1.254  -2.153  -0.022  0.00  0.00    +0.173 C 
ATOM     23  O   UNL     1       2.316  -2.738  -0.035  0.00  0.00    -0.292 OA
BRANCH  22  28
ATOM     24  C   UNL     1      -0.017   1.373   0.010  0.00  0.00    +0.001 A 
ATOM     25  C   UNL     1       1.170   2.089   0.002  0.00  0.00    +0.004 A 
ATOM     26  C   UNL     1       2.384   1.432  -0.013  0.00  0.00    +0.046 A 
ATOM     27  C   UNL     1       2.425   0.046  -0.021  0.00  0.00    +0.127 A 
ATOM     28  C   UNL     1       1.225  -0.685  -0.013  0.00  0.00    +0.059 A 
ATOM     29  C   UNL     1       0.002  -0.004   0.002  0.00  0.00    +0.015 A 
BRANCH  27  30
ATOM     30  O   UNL     1       3.617  -0.601  -0.036  0.00  0.00    -0.506 OA
ATOM     31  H   UNL     1       3.971  -0.793   0.843  0.00  0.00    +0.292 HD
ENDBRANCH  27  30
ENDBRANCH  22  28
ENDBRANCH   1  22
BRANCH  11  32
ATOM     32  O   UNL     1       0.406  -3.890   2.171  0.00  0.00    -0.383 OA
ATOM     33  H   UNL     1       0.155  -4.032   3.094  0.00  0.00    +0.210 HD
ENDBRANCH  11  32
TORSDOF 5
