REMARK  Name = ZINC13121447
REMARK  5 active torsions:
REMARK  status: ('A' for Active; 'I' for Inactive)
REMARK    1  A    between atoms: C_4  and  C_7
REMARK    2  A    between atoms: C_18  and  C_20
REMARK    3  A    between atoms: C_20  and  N_21
REMARK    4  A    between atoms: C_24  and  C_29
REMARK    5  A    between atoms: C_29  and  C_30
REMARK                            x       y       z     vdW  Elec       q    Type
REMARK                         _______ _______ _______ _____ _____    ______ ____
ROOT
ATOM      1  C   UNL     1      -4.149   0.012  -2.114  0.00  0.00    +0.214 C 
ENDROOT
BRANCH   1  12
ATOM      2  C   UNL     1      -2.815   1.147   0.156  0.00  0.00    +0.149 C 
ATOM      3  C   UNL     1      -2.452   2.487   0.810  0.00  0.00    +0.256 C 
ATOM      4  O   UNL     1      -1.030   2.574   0.932  0.00  0.00    -0.488 OA
ATOM      5  C   UNL     1      -0.285   2.295  -0.172  0.00  0.00    +0.142 A 
ATOM      6  C   UNL     1       1.023   2.751  -0.249  0.00  0.00    +0.047 A 
ATOM      7  C   UNL     1       1.791   2.467  -1.363  0.00  0.00    +0.004 A 
ATOM      8  C   UNL     1       1.262   1.727  -2.405  0.00  0.00    +0.002 A 
ATOM      9  C   UNL     1      -0.041   1.270  -2.337  0.00  0.00    +0.027 A 
ATOM     10  C   UNL     1      -0.816   1.553  -1.224  0.00  0.00    +0.079 A 
ATOM     11  N   UNL     1      -2.142   1.093  -1.153  0.00  0.00    -0.256 N 
ATOM     12  C   UNL     1      -2.776   0.620  -2.244  0.00  0.00    +0.238 C 
ATOM     13  O   UNL     1      -2.241   0.682  -3.331  0.00  0.00    -0.273 OA
BRANCH   2  17
ATOM     14  C   UNL     1      -1.470  -2.078   2.615  0.00  0.00    +0.000 A 
ATOM     15  C   UNL     1      -2.797  -1.689   2.648  0.00  0.00    +0.000 A 
ATOM     16  C   UNL     1      -3.232  -0.646   1.853  0.00  0.00    +0.005 A 
ATOM     17  C   UNL     1      -2.341   0.009   1.024  0.00  0.00    -0.023 A 
ATOM     18  C   UNL     1      -1.016  -0.382   0.986  0.00  0.00    +0.005 A 
ATOM     19  C   UNL     1      -0.580  -1.423   1.785  0.00  0.00    +0.000 A 
ENDBRANCH   2  17
ENDBRANCH   1  12
BRANCH   1  20
ATOM     20  N   UNL     1      -4.564  -0.536  -3.407  0.00  0.00    -0.216 N 
ATOM     21  C   UNL     1      -5.243   0.158  -4.341  0.00  0.00    +0.244 C 
ATOM     22  O   UNL     1      -5.610   1.312  -4.273  0.00  0.00    -0.273 OA
ATOM     23  C   UNL     1      -5.449  -0.802  -5.496  0.00  0.00    +0.165 C 
ATOM     24  N   UNL     1      -4.809  -2.045  -5.032  0.00  0.00    -0.287 N 
ATOM     25  C   UNL     1      -4.323  -1.791  -3.804  0.00  0.00    +0.310 C 
ATOM     26  O   UNL     1      -3.729  -2.610  -3.130  0.00  0.00    -0.252 OA
ATOM     27  H   UNL     1      -4.750  -2.882  -5.517  0.00  0.00    +0.151 HD
BRANCH  23  28
ATOM     28  C   UNL     1      -4.766  -0.285  -6.764  0.00  0.00    +0.069 C 
BRANCH  28  29
ATOM     29  C   UNL     1      -5.007  -1.252  -7.894  0.00  0.00    -0.020 A 
ATOM     30  C   UNL     1      -4.191  -2.244  -8.285  0.00  0.00    +0.087 A 
ATOM     31  N   UNL     1      -4.743  -2.913  -9.344  0.00  0.00    -0.360 N 
ATOM     32  H   UNL     1      -4.338  -3.668  -9.798  0.00  0.00    +0.165 HD
ATOM     33  C   UNL     1      -5.958  -2.354  -9.668  0.00  0.00    +0.047 A 
ATOM     34  C   UNL     1      -6.180  -1.293  -8.771  0.00  0.00    +0.003 A 
ATOM     35  C   UNL     1      -7.346  -0.531  -8.867  0.00  0.00    +0.010 A 
ATOM     36  C   UNL     1      -8.273  -0.828  -9.827  0.00  0.00    +0.001 A 
ATOM     37  C   UNL     1      -8.062  -1.877 -10.711  0.00  0.00    +0.002 A 
ATOM     38  C   UNL     1      -6.915  -2.638 -10.637  0.00  0.00    +0.026 A 
ENDBRANCH  28  29
ENDBRANCH  23  28
ENDBRANCH   1  20
TORSDOF 5
