REMARK  Name = ZINC36481578
REMARK  11 active torsions:
REMARK  status: ('A' for Active; 'I' for Inactive)
REMARK    1  A    between atoms: C_3  and  N_8
REMARK    2  A    between atoms: N_8  and  C_9
REMARK    3  A    between atoms: C_9  and  C_11
REMARK    4  A    between atoms: C_9  and  C_20
REMARK    5  A    between atoms: C_12  and  O_19
REMARK    6  A    between atoms: C_14  and  O_18
REMARK    7  A    between atoms: C_16  and  O_17
REMARK    8  A    between atoms: N_22  and  C_23
REMARK    9  A    between atoms: C_29  and  C_31
REMARK   10  A    between atoms: C_31  and  C_32
REMARK   11  A    between atoms: C_32  and  C_33
REMARK                            x       y       z     vdW  Elec       q    Type
REMARK                         _______ _______ _______ _____ _____    ______ ____
ROOT
ATOM      1  C   UNL     1       5.013   1.497  -0.041  0.00  0.00    +0.204 C 
ENDROOT
BRANCH   1   2
ATOM      2  C   UNL     1       4.338   0.649  -1.089  0.00  0.00    +0.065 A 
ATOM      3  C   UNL     1       2.991   0.343  -0.971  0.00  0.00    +0.129 A 
ATOM      4  C   UNL     1       2.370  -0.437  -1.935  0.00  0.00    +0.091 A 
ATOM      5  C   UNL     1       3.097  -0.910  -3.018  0.00  0.00    +0.124 A 
ATOM      6  C   UNL     1       4.444  -0.602  -3.136  0.00  0.00    +0.091 A 
ATOM      7  C   UNL     1       5.064   0.181  -2.174  0.00  0.00    +0.129 A 
BRANCH   7   8
ATOM      8  O   UNL     1       6.383   0.486  -2.293  0.00  0.00    -0.506 OA
ATOM      9  H   UNL     1       6.974  -0.154  -1.873  0.00  0.00    +0.292 HD
ENDBRANCH   7   8
BRANCH   5  10
ATOM     10  O   UNL     1       2.489  -1.674  -3.962  0.00  0.00    -0.507 OA
ATOM     11  H   UNL     1       2.106  -1.168  -4.692  0.00  0.00    +0.292 HD
ENDBRANCH   5  10
BRANCH   3  12
ATOM     12  O   UNL     1       2.279   0.806   0.090  0.00  0.00    -0.506 OA
ATOM     13  H   UNL     1       1.814   1.637  -0.081  0.00  0.00    +0.292 HD
ENDBRANCH   3  12
ENDBRANCH   1   2
BRANCH   1  14
ATOM     14  C   UNL     1       5.234   0.675   1.203  0.00  0.00    +0.239 C 
ATOM     15  O   UNL     1       4.324   0.501   1.984  0.00  0.00    -0.273 OA
ATOM     16  N   UNL     1       6.445   0.135   1.447  0.00  0.00    -0.311 N 
ATOM     17  H   UNL     1       7.173   0.274   0.822  0.00  0.00    +0.149 HD
BRANCH  16  18
ATOM     18  C   UNL     1       6.660  -0.664   2.656  0.00  0.00    +0.073 C 
ATOM     19  C   UNL     1       7.001   0.263   3.825  0.00  0.00    +0.022 C 
ATOM     20  C   UNL     1       7.226  -0.571   5.088  0.00  0.00    +0.002 C 
ATOM     21  C   UNL     1       8.382  -1.546   4.856  0.00  0.00    +0.000 C 
ATOM     22  C   UNL     1       8.041  -2.473   3.687  0.00  0.00    +0.002 C 
ATOM     23  C   UNL     1       7.816  -1.639   2.424  0.00  0.00    +0.022 C 
ENDBRANCH  16  18
ENDBRANCH   1  14
BRANCH   1  24
ATOM     24  N   UNL     1       4.164   2.647   0.278  0.00  0.00    -0.255 N 
ATOM     25  C   UNL     1       3.642   3.395  -0.715  0.00  0.00    +0.221 C 
ATOM     26  O   UNL     1       3.807   3.069  -1.871  0.00  0.00    -0.275 OA
BRANCH  24  29
ATOM     27  C   UNL     1       4.626   3.821   3.732  0.00  0.00    +0.003 A 
ATOM     28  C   UNL     1       4.895   3.503   2.415  0.00  0.00    +0.023 A 
ATOM     29  C   UNL     1       3.895   2.969   1.613  0.00  0.00    +0.039 A 
ATOM     30  C   UNL     1       2.627   2.756   2.138  0.00  0.00    +0.043 A 
ATOM     31  C   UNL     1       2.364   3.076   3.456  0.00  0.00    +0.043 A 
ATOM     32  C   UNL     1       3.364   3.608   4.253  0.00  0.00    +0.020 A 
ATOM     33 CL   UNL     1       0.779   2.811   4.114  0.00  0.00    -0.083 Cl
ENDBRANCH  24  29
BRANCH  25  34
ATOM     34  C   UNL     1       2.852   4.636  -0.387  0.00  0.00    +0.096 C 
BRANCH  34  35
ATOM     35  C   UNL     1       2.308   5.250  -1.679  0.00  0.00    +0.013 C 
BRANCH  35  36
ATOM     36  C   UNL     1       1.507   6.510  -1.346  0.00  0.00    -0.011 C 
ATOM     37  C   UNL     1       0.272   6.128  -0.528  0.00  0.00    +0.003 C 
ATOM     38  C   UNL     1      -0.530   7.388  -0.195  0.00  0.00    +0.000 C 
ATOM     39  C   UNL     1      -0.968   8.071  -1.493  0.00  0.00    +0.000 C 
ATOM     40  C   UNL     1       0.267   8.453  -2.311  0.00  0.00    +0.000 C 
ATOM     41  C   UNL     1       1.068   7.193  -2.643  0.00  0.00    +0.003 C 
ENDBRANCH  35  36
ENDBRANCH  34  35
ENDBRANCH  25  34
ENDBRANCH   1  24
TORSDOF 11
