REMARK  Name = ZINC40742717
REMARK  9 active torsions:
REMARK  status: ('A' for Active; 'I' for Inactive)
REMARK    1  A    between atoms: C_1  and  O_2
REMARK    2  A    between atoms: O_2  and  C_3
REMARK    3  A    between atoms: C_5  and  C_20
REMARK    4  A    between atoms: C_8  and  O_9
REMARK    5  A    between atoms: O_9  and  C_10
REMARK    6  A    between atoms: C_10  and  C_11
REMARK    7  A    between atoms: C_20  and  N_21
REMARK    8  A    between atoms: N_21  and  C_22
REMARK    9  A    between atoms: C_22  and  C_23
REMARK                            x       y       z     vdW  Elec       q    Type
REMARK                         _______ _______ _______ _____ _____    ______ ____
ROOT
ATOM      1  C   UNL     1       0.626  -0.619   1.042  0.00  0.00    +0.163 A 
ATOM      2  C   UNL     1       1.202   0.137   2.051  0.00  0.00    +0.051 A 
ATOM      3  C   UNL     1       1.837  -0.489   3.108  0.00  0.00    -0.059 A 
ATOM      4  C   UNL     1       1.899  -1.869   3.162  0.00  0.00    +0.025 A 
ATOM      5  C   UNL     1       1.326  -2.630   2.158  0.00  0.00    +0.086 A 
ATOM      6  C   UNL     1       0.683  -2.008   1.099  0.00  0.00    +0.181 A 
ATOM      7 CL   UNL     1       1.407  -4.362   2.228  0.00  0.00    -0.080 Cl
ENDROOT
BRANCH   1   9
ATOM      8  C   UNL     1      -0.017   1.425   0.010  0.00  0.00    +0.277 C 
ATOM      9  O   UNL     1       0.002  -0.004   0.002  0.00  0.00    -0.491 OA
ENDBRANCH   1   9
BRANCH   6  10
ATOM     10  O   UNL     1       0.114  -2.754   0.114  0.00  0.00    -0.482 OA
BRANCH  10  11
ATOM     11  C   UNL     1       0.939  -3.091  -1.003  0.00  0.00    +0.264 C 
BRANCH  11  12
ATOM     12  C   UNL     1       0.143  -3.913  -1.984  0.00  0.00    -0.009 A 
ATOM     13  C   UNL     1       0.121  -5.291  -1.873  0.00  0.00    +0.008 A 
ATOM     14  C   UNL     1      -0.607  -6.046  -2.772  0.00  0.00    +0.022 A 
ATOM     15  C   UNL     1      -1.315  -5.424  -3.785  0.00  0.00    +0.059 A 
ATOM     16  C   UNL     1      -1.293  -4.044  -3.897  0.00  0.00    +0.060 A 
ATOM     17  C   UNL     1      -0.567  -3.289  -2.992  0.00  0.00    +0.028 A 
ATOM     18 CL   UNL     1      -2.179  -3.261  -5.167  0.00  0.00    -0.082 Cl
ATOM     19 CL   UNL     1      -2.229  -6.372  -4.915  0.00  0.00    -0.082 Cl
ENDBRANCH  11  12
ENDBRANCH  10  11
ENDBRANCH   6  10
BRANCH   3  20
ATOM     20  C   UNL     1       2.462   0.335   4.204  0.00  0.00    -0.046 C 
BRANCH  20  21
ATOM     21  N   UNL     1       1.471   0.577   5.261  0.00  0.00    +0.384 N 
ATOM     22  H   UNL     1       0.682   1.074   4.875  0.00  0.00    -0.085 HD
ATOM     23  H   UNL     1       1.161  -0.305   5.639  0.00  0.00    -0.085 HD
BRANCH  21  24
ATOM     24  C   UNL     1       2.081   1.380   6.329  0.00  0.00    -0.046 C 
BRANCH  24  25
ATOM     25  C   UNL     1       1.065   1.628   7.414  0.00  0.00    -0.061 A 
ATOM     26  C   UNL     1       0.247   2.742   7.352  0.00  0.00    +0.005 A 
ATOM     27  C   UNL     1      -0.687   2.973   8.344  0.00  0.00    +0.050 A 
ATOM     28  C   UNL     1      -0.806   2.089   9.404  0.00  0.00    +0.166 A 
ATOM     29  C   UNL     1       0.017   0.968   9.467  0.00  0.00    +0.166 A 
ATOM     30  C   UNL     1       0.947   0.739   8.466  0.00  0.00    +0.051 A 
ATOM     31  O   UNL     1      -0.291   0.262  10.594  0.00  0.00    -0.453 OA
ATOM     32  C   UNL     1      -1.027   1.175  11.430  0.00  0.00    +0.466 C 
ATOM     33  O   UNL     1      -1.630   2.086  10.492  0.00  0.00    -0.453 OA
ENDBRANCH  24  25
ENDBRANCH  21  24
ENDBRANCH  20  21
ENDBRANCH   3  20
TORSDOF 8
