REMARK  Name = ZINC38670067
REMARK  14 active torsions:
REMARK  status: ('A' for Active; 'I' for Inactive)
REMARK    1  A    between atoms: C_1  and  C_2
REMARK    2  A    between atoms: C_2  and  N_3
REMARK    3  A    between atoms: N_3  and  C_4
REMARK    4  A    between atoms: N_3  and  S_6
REMARK    5  A    between atoms: C_4  and  C_5
REMARK    6  A    between atoms: S_6  and  C_9
REMARK    7  A    between atoms: C_12  and  C_15
REMARK    8  A    between atoms: N_17  and  C_18
REMARK    9  A    between atoms: C_18  and  C_19
REMARK   10  A    between atoms: C_19  and  C_21
REMARK   11  A    between atoms: C_19  and  N_31
REMARK   12  A    between atoms: N_29  and  C_30
REMARK   13  A    between atoms: N_31  and  C_32
REMARK   14  A    between atoms: N_31  and  C_33
REMARK                            x       y       z     vdW  Elec       q    Type
REMARK                         _______ _______ _______ _____ _____    ______ ____
ROOT
ATOM      1  C   UNL     1       5.213   4.072   2.556  0.00  0.00    +0.244 C 
ATOM      2  O   UNL     1       5.349   4.888   1.665  0.00  0.00    -0.270 OA
ATOM      3  N   UNL     1       5.654   4.350   3.798  0.00  0.00    -0.313 N 
ATOM      4  H   UNL     1       5.546   3.699   4.509  0.00  0.00    +0.149 HD
ENDROOT
BRANCH   1   8
ATOM      5  C   UNL     1       3.347   0.342   1.751  0.00  0.00    +0.106 A 
ATOM      6  C   UNL     1       3.500   1.269   0.735  0.00  0.00    +0.029 A 
ATOM      7  C   UNL     1       4.105   2.482   0.990  0.00  0.00    +0.015 A 
ATOM      8  C   UNL     1       4.563   2.774   2.276  0.00  0.00    +0.037 A 
ATOM      9  C   UNL     1       4.406   1.834   3.296  0.00  0.00    +0.015 A 
ATOM     10  C   UNL     1       3.794   0.626   3.029  0.00  0.00    +0.029 A 
BRANCH   5  11
ATOM     11  S   UNL     1       2.573  -1.206   1.417  0.00  0.00    +0.061 S 
ATOM     12  O   UNL     1       3.036  -2.113   2.408  0.00  0.00    -0.153 OA
ATOM     13  O   UNL     1       2.735  -1.449   0.026  0.00  0.00    -0.153 OA
BRANCH  11  14
ATOM     14  N   UNL     1       0.950  -1.008   1.677  0.00  0.00    -0.177 NA
BRANCH  14  16
ATOM     15  C   UNL     1      -0.099   0.937   0.628  0.00  0.00    +0.022 C 
ATOM     16  C   UNL     1       0.079  -0.582   0.579  0.00  0.00    +0.106 C 
ENDBRANCH  14  16
BRANCH  14  17
ATOM     17  C   UNL     1       0.385  -1.258   3.005  0.00  0.00    +0.106 C 
ATOM     18  C   UNL     1      -0.151  -2.690   3.069  0.00  0.00    +0.022 C 
ENDBRANCH  14  17
ENDBRANCH  11  14
ENDBRANCH   5  11
ENDBRANCH   1   8
BRANCH   3  19
ATOM     19  C   UNL     1       6.298   5.636   4.076  0.00  0.00    +0.094 C 
BRANCH  19  20
ATOM     20  C   UNL     1       6.601   5.743   5.572  0.00  0.00    -0.021 C 
BRANCH  20  21
ATOM     21  C   UNL     1       7.606   4.689   5.958  0.00  0.00    -0.059 A 
ATOM     22  C   UNL     1       8.952   4.891   5.713  0.00  0.00    +0.004 A 
ATOM     23  C   UNL     1       9.874   3.929   6.064  0.00  0.00    +0.023 A 
ATOM     24  C   UNL     1       9.456   2.742   6.670  0.00  0.00    +0.033 A 
ATOM     25  C   UNL     1       8.105   2.549   6.912  0.00  0.00    -0.025 A 
ATOM     26  C   UNL     1       7.185   3.519   6.563  0.00  0.00    +0.007 A 
ATOM     27  C   UNL     1       7.922   1.199   7.569  0.00  0.00    +0.056 C 
ATOM     28  C   UNL     1       9.345   0.628   7.680  0.00  0.00    +0.109 C 
ATOM     29  N   UNL     1      10.217   1.653   7.099  0.00  0.00    -0.332 N 
ATOM     30  C   UNL     1      11.674   1.549   6.985  0.00  0.00    +0.129 C 
ENDBRANCH  20  21
BRANCH  20  31
ATOM     31  N   UNL     1       7.149   7.074   5.867  0.00  0.00    +0.382 N 
ATOM     32  C   UNL     1       6.168   8.101   5.493  0.00  0.00    -0.096 C 
ATOM     33  C   UNL     1       7.441   7.175   7.303  0.00  0.00    -0.096 C 
ATOM     34  H   UNL     1       7.999   7.212   5.341  0.00  0.00    -0.082 HD
ENDBRANCH  20  31
ENDBRANCH  19  20
ENDBRANCH   3  19
TORSDOF 9
