REMARK  Name = ZINC06443750
REMARK  8 active torsions:
REMARK  status: ('A' for Active; 'I' for Inactive)
REMARK    1  A    between atoms: C_1  and  C_2
REMARK    2  A    between atoms: C_12  and  C_14
REMARK    3  A    between atoms: C_14  and  C_16
REMARK    4  A    between atoms: C_14  and  N_71
REMARK    5  A    between atoms: N_20  and  C_21
REMARK    6  A    between atoms: C_21  and  C_22
REMARK    7  A    between atoms: C_30  and  C_33
REMARK    8  A    between atoms: C_33  and  C_34
REMARK                            x       y       z     vdW  Elec       q    Type
REMARK                         _______ _______ _______ _____ _____    ______ ____
ROOT
ATOM      1  C   UNL     1       6.159  -0.614  -0.057  0.00  0.00    +0.039 C 
ENDROOT
BRANCH   1  13
ATOM      2  C   UNL     1       1.124   3.610   0.011  0.00  0.00    +0.046 C 
ATOM      3  C   UNL     1       1.159   2.103   0.002  0.00  0.00    -0.026 A 
ATOM      4  C   UNL     1      -0.017   1.384   0.010  0.00  0.00    +0.005 A 
ATOM      5  C   UNL     1       0.002  -0.004   0.002  0.00  0.00    +0.001 A 
ATOM      6  C   UNL     1       1.188  -0.683  -0.013  0.00  0.00    +0.010 A 
ATOM      7  C   UNL     1       2.393   0.026  -0.020  0.00  0.00    -0.001 A 
ATOM      8  C   UNL     1       2.378   1.434  -0.013  0.00  0.00    +0.052 A 
ATOM      9  N   UNL     1       3.569   2.128  -0.020  0.00  0.00    -0.322 N 
ATOM     10  H   UNL     1       3.557   3.098  -0.014  0.00  0.00    +0.169 HD
ATOM     11  C   UNL     1       4.747   1.480  -0.033  0.00  0.00    +0.251 A 
ATOM     12  O   UNL     1       5.780   2.126  -0.038  0.00  0.00    -0.268 OA
ATOM     13  C   UNL     1       4.817   0.070  -0.041  0.00  0.00    +0.011 A 
ATOM     14  C   UNL     1       3.681  -0.670  -0.035  0.00  0.00    +0.017 A 
ENDBRANCH   1  13
BRANCH   1  20
ATOM     15  C   UNL     1       6.215  -0.225   2.332  0.00  0.00    -0.077 C 
ATOM     16  C   UNL     1       7.028   0.415   3.460  0.00  0.00    -0.015 C 
ATOM     17  C   UNL     1       8.369  -0.313   3.591  0.00  0.00    -0.010 C 
ATOM     18  C   UNL     1       9.110  -0.247   2.253  0.00  0.00    -0.015 C 
ATOM     19  C   UNL     1       8.237  -0.867   1.161  0.00  0.00    -0.077 C 
ATOM     20  N   UNL     1       6.972  -0.106   1.068  0.00  0.00    +0.389 N 
ATOM     21  H   UNL     1       7.190   0.883   0.901  0.00  0.00    -0.080 HD
BRANCH  17  22
ATOM     22  C   UNL     1       9.212   0.360   4.676  0.00  0.00    +0.038 C 
BRANCH  22  23
ATOM     23  C   UNL     1       8.540   0.188   6.014  0.00  0.00    -0.047 A 
ATOM     24  C   UNL     1       7.636   1.134   6.461  0.00  0.00    +0.003 A 
ATOM     25  C   UNL     1       7.017   0.973   7.686  0.00  0.00    +0.000 A 
ATOM     26  C   UNL     1       7.307  -0.129   8.469  0.00  0.00    +0.000 A 
ATOM     27  C   UNL     1       8.214  -1.073   8.024  0.00  0.00    +0.000 A 
ATOM     28  C   UNL     1       8.831  -0.914   6.796  0.00  0.00    +0.003 A 
ENDBRANCH  22  23
ENDBRANCH  17  22
ENDBRANCH   1  20
BRANCH   1  29
ATOM     29  C   UNL     1       6.868  -0.301  -1.349  0.00  0.00    +0.143 A 
ATOM     30  N   UNL     1       7.447   0.831  -1.669  0.00  0.00    -0.115 NA
ATOM     31  N   UNL     1       7.939   0.704  -2.853  0.00  0.00    -0.023 NA
ATOM     32  N   UNL     1       7.689  -0.478  -3.297  0.00  0.00    -0.044 NA
ATOM     33  N   UNL     1       7.035  -1.130  -2.396  0.00  0.00    -0.228 N 
BRANCH  33  34
ATOM     34  C   UNL     1       6.560  -2.513  -2.495  0.00  0.00    +0.178 C 
BRANCH  34  35
ATOM     35  C   UNL     1       5.154  -2.527  -3.098  0.00  0.00    +0.140 C 
ATOM     36  C   UNL     1       4.599  -3.967  -3.100  0.00  0.00    +0.035 C 
ATOM     37  C   UNL     1       3.857  -4.033  -4.463  0.00  0.00    +0.031 C 
ATOM     38  C   UNL     1       4.764  -3.129  -5.335  0.00  0.00    +0.160 C 
ATOM     39  O   UNL     1       5.204  -2.080  -4.458  0.00  0.00    -0.375 OA
ENDBRANCH  34  35
ENDBRANCH  33  34
ENDBRANCH   1  29
TORSDOF 7
