REMARK  Name = ZINC04065313
REMARK  12 active torsions:
REMARK  status: ('A' for Active; 'I' for Inactive)
REMARK    1  A    between atoms: C_1  and  C_2
REMARK    2  A    between atoms: C_2  and  C_3
REMARK    3  A    between atoms: C_3  and  C_4
REMARK    4  A    between atoms: C_4  and  C_5
REMARK    5  A    between atoms: C_5  and  O_6
REMARK    6  A    between atoms: O_6  and  C_7
REMARK    7  A    between atoms: C_7  and  C_9
REMARK    8  A    between atoms: C_10  and  C_26
REMARK    9  A    between atoms: C_15  and  C_17
REMARK   10  A    between atoms: C_20  and  O_23
REMARK   11  A    between atoms: O_23  and  C_24
REMARK   12  A    between atoms: C_24  and  C_25
REMARK                            x       y       z     vdW  Elec       q    Type
REMARK                         _______ _______ _______ _____ _____    ______ ____
ROOT
ATOM      1  C   UNL     1       2.028  -6.018   3.687  0.00  0.00    +0.078 C 
ATOM      2  C   UNL     1       2.892  -6.632   4.523  0.00  0.00    +0.021 C 
ATOM      3  N   UNL     1       3.118  -7.976   4.441  0.00  0.00    -0.273 N 
ATOM      4  C   UNL     1       2.520  -8.776   3.550  0.00  0.00    +0.304 C 
ATOM      5  O   UNL     1       2.785  -9.963   3.554  0.00  0.00    -0.252 OA
ATOM      6  N   UNL     1       1.633  -8.310   2.649  0.00  0.00    -0.288 N 
ATOM      7  C   UNL     1       1.314  -6.872   2.659  0.00  0.00    +0.143 C 
ATOM      8  C   UNL     1       3.619  -5.820   5.564  0.00  0.00    +0.061 C 
ATOM      9  H   UNL     1       3.747  -8.373   5.063  0.00  0.00    +0.156 HD
ATOM     10  H   UNL     1       1.211  -8.907   2.012  0.00  0.00    +0.151 HD
ENDROOT
BRANCH   7  11
ATOM     11  C   UNL     1      -0.169  -6.721   2.878  0.00  0.00    -0.022 A 
ATOM     12  C   UNL     1      -0.793  -7.431   3.887  0.00  0.00    +0.009 A 
ATOM     13  C   UNL     1      -2.153  -7.294   4.090  0.00  0.00    +0.046 A 
ATOM     14  C   UNL     1      -2.892  -6.444   3.281  0.00  0.00    +0.121 A 
ATOM     15  C   UNL     1      -2.263  -5.733   2.269  0.00  0.00    +0.046 A 
ATOM     16  C   UNL     1      -0.902  -5.869   2.074  0.00  0.00    +0.009 A 
BRANCH  14  17
ATOM     17  O   UNL     1      -4.230  -6.309   3.478  0.00  0.00    -0.492 OA
BRANCH  17  18
ATOM     18  C   UNL     1      -4.927  -5.416   2.607  0.00  0.00    +0.225 C 
ATOM     19  C   UNL     1      -6.411  -5.395   2.980  0.00  0.00    +0.048 C 
ENDBRANCH  17  18
ENDBRANCH  14  17
ENDBRANCH   7  11
BRANCH   1  20
ATOM     20  C   UNL     1       1.793  -4.625   3.771  0.00  0.00    +0.339 C 
ATOM     21  O   UNL     1       2.274  -3.981   4.684  0.00  0.00    -0.245 OA
BRANCH  20  22
ATOM     22  O   UNL     1       1.034  -4.011   2.839  0.00  0.00    -0.461 OA
BRANCH  22  23
ATOM     23  C   UNL     1       0.838  -2.604   2.986  0.00  0.00    +0.232 C 
BRANCH  23  24
ATOM     24  C   UNL     1      -0.041  -2.089   1.844  0.00  0.00    +0.041 C 
BRANCH  24  25
ATOM     25  C   UNL     1      -0.250  -0.582   2.002  0.00  0.00    +0.003 C 
BRANCH  25  27
ATOM     26  C   UNL     1      -1.339   1.440   1.018  0.00  0.00    +0.004 C 
ATOM     27  C   UNL     1      -1.129  -0.067   0.860  0.00  0.00    -0.003 C 
ENDBRANCH  25  27
ENDBRANCH  24  25
ENDBRANCH  23  24
ENDBRANCH  22  23
ENDBRANCH  20  22
ENDBRANCH   1  20
TORSDOF 9
