REMARK  Name = ZINC34747068
REMARK  8 active torsions:
REMARK  status: ('A' for Active; 'I' for Inactive)
REMARK    1  A    between atoms: C_1  and  C_2
REMARK    2  A    between atoms: C_2  and  C_4
REMARK    3  A    between atoms: C_4  and  N_5
REMARK    4  A    between atoms: N_18  and  C_21
REMARK    5  A    between atoms: C_21  and  C_22
REMARK    6  A    between atoms: N_24  and  C_25
REMARK    7  A    between atoms: C_33  and  C_35
REMARK    8  A    between atoms: C_33  and  C_36
REMARK                            x       y       z     vdW  Elec       q    Type
REMARK                         _______ _______ _______ _____ _____    ______ ____
ROOT
ATOM      1  N   UNL     1      -2.190  -0.152  -1.313  0.00  0.00    -0.276 N 
ATOM      2  C   UNL     1      -3.062  -1.093  -0.907  0.00  0.00    +0.264 A 
ATOM      3  O   UNL     1      -3.225  -1.312   0.281  0.00  0.00    -0.267 OA
ATOM      4  C   UNL     1      -3.795  -1.833  -1.888  0.00  0.00    +0.076 A 
ATOM      5  C   UNL     1      -4.782  -2.890  -1.680  0.00  0.00    -0.018 A 
ATOM      6  C   UNL     1      -5.339  -3.438  -2.782  0.00  0.00    +0.021 A 
ATOM      7  S   UNL     1      -4.592  -2.589  -4.144  0.00  0.00    -0.071 S 
ATOM      8  C   UNL     1      -3.530  -1.499  -3.228  0.00  0.00    +0.118 A 
ATOM      9  N   UNL     1      -2.655  -0.558  -3.562  0.00  0.00    -0.208 NA
ATOM     10  C   UNL     1      -1.998   0.111  -2.637  0.00  0.00    +0.202 A 
ATOM     11  N   UNL     1      -1.103   1.083  -3.012  0.00  0.00    -0.304 N 
ATOM     12  C   UNL     1       0.253   1.123  -2.443  0.00  0.00    +0.089 C 
ATOM     13  C   UNL     1       1.260   1.227  -3.593  0.00  0.00    -0.059 C 
ATOM     14  N   UNL     1       0.921   2.381  -4.435  0.00  0.00    +0.387 N 
ATOM     15  C   UNL     1      -0.385   2.171  -5.071  0.00  0.00    -0.059 C 
ATOM     16  C   UNL     1      -1.472   2.110  -3.998  0.00  0.00    +0.089 C 
ATOM     17  C   UNL     1      -6.364  -4.529  -2.808  0.00  0.00    +0.203 C 
ATOM     18  O   UNL     1      -6.421  -5.112  -1.496  0.00  0.00    -0.368 OA
ATOM     19  C   UNL     1      -6.523  -4.145  -0.447  0.00  0.00    +0.068 C 
ATOM     20  C   UNL     1      -5.200  -3.387  -0.298  0.00  0.00    +0.071 C 
ATOM     21  C   UNL     1      -7.641  -3.154  -0.776  0.00  0.00    +0.041 C 
ATOM     22  C   UNL     1      -6.850  -4.856   0.868  0.00  0.00    +0.041 C 
ATOM     23  H   UNL     1       0.886   3.213  -3.865  0.00  0.00    -0.081 HD
ENDROOT
BRANCH   1  24
ATOM     24  C   UNL     1      -1.436   0.609  -0.313  0.00  0.00    +0.158 C 
BRANCH  24  26
ATOM     25  C   UNL     1      -2.233   3.074  -0.632  0.00  0.00    +0.040 C 
ATOM     26  C   UNL     1      -2.258   1.784   0.148  0.00  0.00    -0.060 C 
ATOM     27  C   UNL     1      -2.995   1.686   1.227  0.00  0.00    +0.009 C 
ENDBRANCH  24  26
ENDBRANCH   1  24
BRANCH  14  28
ATOM     28  C   UNL     1       1.948   2.546  -5.472  0.00  0.00    +0.019 C 
BRANCH  28  29
ATOM     29  C   UNL     1       1.670   3.800  -6.260  0.00  0.00    +0.197 C 
ATOM     30  O   UNL     1       0.711   4.489  -5.985  0.00  0.00    -0.278 OA
ATOM     31  N   UNL     1       2.487   4.156  -7.271  0.00  0.00    -0.314 N 
ATOM     32  H   UNL     1       3.255   3.606  -7.491  0.00  0.00    +0.149 HD
BRANCH  31  33
ATOM     33  C   UNL     1       2.217   5.376  -8.037  0.00  0.00    +0.073 C 
ATOM     34  C   UNL     1       1.215   5.066  -9.151  0.00  0.00    +0.022 C 
ATOM     35  C   UNL     1       0.932   6.340  -9.951  0.00  0.00    +0.002 C 
ATOM     36  C   UNL     1       2.235   6.856 -10.565  0.00  0.00    +0.000 C 
ATOM     37  C   UNL     1       3.237   7.165  -9.451  0.00  0.00    +0.002 C 
ATOM     38  C   UNL     1       3.520   5.891  -8.651  0.00  0.00    +0.022 C 
ENDBRANCH  31  33
ENDBRANCH  28  29
ENDBRANCH  14  28
TORSDOF 5
