REMARK  Name = ZINC22912983
REMARK  7 active torsions:
REMARK  status: ('A' for Active; 'I' for Inactive)
REMARK    1  A    between atoms: C_4  and  C_7
REMARK    2  A    between atoms: C_7  and  C_8
REMARK    3  A    between atoms: C_8  and  C_32
REMARK    4  A    between atoms: N_11  and  C_15
REMARK    5  A    between atoms: C_15  and  N_16
REMARK    6  A    between atoms: N_19  and  C_22
REMARK    7  A    between atoms: C_22  and  C_23
REMARK                            x       y       z     vdW  Elec       q    Type
REMARK                         _______ _______ _______ _____ _____    ______ ____
ROOT
ATOM      1  C   UNL     1       0.640   3.376   0.014  0.00  0.00    +0.142 C 
ATOM      2  C   UNL     1      -0.871   3.261   0.028  0.00  0.00    +0.252 C 
ATOM      3  O   UNL     1      -1.675   4.169   0.040  0.00  0.00    -0.272 OA
ATOM      4  N   UNL     1      -1.137   1.940   0.018  0.00  0.00    -0.210 N 
ATOM      5  C   UNL     1      -0.014   1.211   0.009  0.00  0.00    +0.311 C 
ATOM      6  O   UNL     1       0.002  -0.004   0.002  0.00  0.00    -0.252 OA
ATOM      7  N   UNL     1       1.094   1.974   0.002  0.00  0.00    -0.281 N 
ATOM      8  H   UNL     1       2.169   1.744  -0.009  0.00  0.00    +0.152 HD
ENDROOT
BRANCH   1   9
ATOM      9  C   UNL     1       1.133   4.082   1.251  0.00  0.00    -0.015 A 
ATOM     10  C   UNL     1       1.379   5.442   1.218  0.00  0.00    +0.006 A 
ATOM     11  C   UNL     1       1.827   6.090   2.354  0.00  0.00    +0.000 A 
ATOM     12  C   UNL     1       2.038   5.377   3.519  0.00  0.00    +0.000 A 
ATOM     13  C   UNL     1       1.796   4.017   3.550  0.00  0.00    +0.000 A 
ATOM     14  C   UNL     1       1.344   3.369   2.416  0.00  0.00    +0.006 A 
ENDBRANCH   1   9
BRANCH   1  15
ATOM     15  C   UNL     1       1.113   4.105  -1.245  0.00  0.00    +0.075 C 
BRANCH  15  19
ATOM     16  C   UNL     1      -0.442   2.135  -4.702  0.00  0.00    +0.000 A 
ATOM     17  C   UNL     1      -1.162   3.152  -4.103  0.00  0.00    +0.000 A 
ATOM     18  C   UNL     1      -0.659   3.789  -2.984  0.00  0.00    +0.004 A 
ATOM     19  C   UNL     1       0.565   3.410  -2.464  0.00  0.00    -0.045 A 
ATOM     20  C   UNL     1       1.287   2.397  -3.066  0.00  0.00    +0.004 A 
ATOM     21  C   UNL     1       0.782   1.756  -4.182  0.00  0.00    +0.000 A 
ENDBRANCH  15  19
ENDBRANCH   1  15
BRANCH   4  22
ATOM     22  C   UNL     1      -2.487   1.371   0.020  0.00  0.00    +0.205 C 
BRANCH  22  23
ATOM     23  N   UNL     1      -2.933   1.173   1.405  0.00  0.00    -0.290 NA
ATOM     24  C   UNL     1      -2.384  -0.071   1.963  0.00  0.00    +0.067 C 
ATOM     25  C   UNL     1      -2.806  -0.199   3.428  0.00  0.00    -0.063 C 
ATOM     26  N   UNL     1      -4.273  -0.188   3.516  0.00  0.00    +0.384 N 
ATOM     27  C   UNL     1      -4.821   1.056   2.959  0.00  0.00    -0.063 C 
ATOM     28  C   UNL     1      -4.400   1.185   1.493  0.00  0.00    +0.067 C 
ATOM     29  H   UNL     1      -4.655  -1.027   2.916  0.00  0.00    -0.081 HD
BRANCH  26  30
ATOM     30  C   UNL     1      -4.719  -0.386   4.902  0.00  0.00    -0.043 C 
BRANCH  30  31
ATOM     31  C   UNL     1      -4.346  -1.774   5.356  0.00  0.00    -0.063 A 
ATOM     32  C   UNL     1      -3.124  -2.001   5.962  0.00  0.00    +0.005 A 
ATOM     33  C   UNL     1      -2.777  -3.269   6.378  0.00  0.00    +0.046 A 
ATOM     34  C   UNL     1      -3.655  -4.334   6.189  0.00  0.00    +0.124 A 
ATOM     35  C   UNL     1      -4.882  -4.093   5.585  0.00  0.00    -0.002 A 
ATOM     36  C   UNL     1      -5.228  -2.824   5.173  0.00  0.00    +0.009 A 
ATOM     37  C   UNL     1      -5.618  -5.417   5.529  0.00  0.00    +0.080 C 
ATOM     38  C   UNL     1      -4.804  -6.277   6.524  0.00  0.00    +0.234 C 
ATOM     39  O   UNL     1      -3.510  -5.651   6.503  0.00  0.00    -0.491 OA
ENDBRANCH  30  31
ENDBRANCH  26  30
ENDBRANCH  22  23
ENDBRANCH   4  22
TORSDOF 7
