REMARK  Name = ZINC19595562
REMARK  3 active torsions:
REMARK  status: ('A' for Active; 'I' for Inactive)
REMARK    1  A    between atoms: C_17  and  C_32
REMARK    2  A    between atoms: C_18  and  C_21
REMARK    3  A    between atoms: C_26  and  C_29
REMARK                            x       y       z     vdW  Elec       q    Type
REMARK                         _______ _______ _______ _____ _____    ______ ____
ROOT
ATOM      1  C   UNL     1      -2.288   2.237  -2.037  0.00  0.00    +0.000 A 
ATOM      2  C   UNL     1      -2.024   0.937  -1.643  0.00  0.00    +0.001 A 
ATOM      3  C   UNL     1      -0.727   0.540  -1.387  0.00  0.00    +0.010 A 
ATOM      4  C   UNL     1       0.315   1.448  -1.546  0.00  0.00    +0.004 A 
ATOM      5  C   UNL     1       0.047   2.752  -1.964  0.00  0.00    -0.038 A 
ATOM      6  C   UNL     1      -1.254   3.143  -2.197  0.00  0.00    +0.004 A 
ATOM      7  C   UNL     1       1.190   3.708  -2.173  0.00  0.00    +0.036 C 
ATOM      8  C   UNL     1       1.716   4.244  -0.845  0.00  0.00    +0.009 C 
ATOM      9  C   UNL     1       1.853   3.118   0.177  0.00  0.00    +0.039 C 
ATOM     10  C   UNL     1       2.483   1.903  -0.441  0.00  0.00    -0.003 A 
ATOM     11  C   UNL     1       1.716   1.068  -1.256  0.00  0.00    +0.080 A 
ATOM     12  N   UNL     1       2.260  -0.036  -1.751  0.00  0.00    -0.210 NA
ATOM     13  C   UNL     1       3.524  -0.329  -1.486  0.00  0.00    +0.252 A 
ATOM     14  N   UNL     1       4.281   0.454  -0.734  0.00  0.00    -0.219 NA
ATOM     15  C   UNL     1       3.799   1.567  -0.200  0.00  0.00    +0.120 A 
ATOM     16  N   UNL     1       4.074  -1.497  -2.016  0.00  0.00    -0.201 N 
ATOM     17  C   UNL     1       5.358  -1.886  -1.900  0.00  0.00    +0.063 A 
ATOM     18  C   UNL     1       5.484  -3.091  -2.560  0.00  0.00    +0.078 A 
ATOM     19  C   UNL     1       4.214  -3.412  -3.091  0.00  0.00    +0.148 A 
ATOM     20  N   UNL     1       3.385  -2.460  -2.763  0.00  0.00    -0.171 NA
ENDROOT
BRANCH  18  21
ATOM     21  C   UNL     1       6.715  -3.892  -2.691  0.00  0.00    +0.250 C 
ATOM     22  O   UNL     1       7.738  -3.373  -3.095  0.00  0.00    -0.270 OA
ATOM     23  N   UNL     1       6.707  -5.199  -2.364  0.00  0.00    -0.297 N 
ATOM     24  C   UNL     1       5.460  -5.862  -1.960  0.00  0.00    +0.109 C 
ATOM     25  C   UNL     1       5.674  -6.547  -0.611  0.00  0.00    +0.032 C 
ATOM     26  C   UNL     1       6.882  -7.483  -0.704  0.00  0.00    +0.078 C 
ATOM     27  C   UNL     1       8.134  -6.670  -1.039  0.00  0.00    +0.032 C 
ATOM     28  C   UNL     1       7.947  -5.987  -2.398  0.00  0.00    +0.109 C 
BRANCH  26  29
ATOM     29  C   UNL     1       7.077  -8.183   0.617  0.00  0.00    +0.214 C 
ATOM     30  O   UNL     1       8.114  -8.046   1.229  0.00  0.00    -0.276 OA
ATOM     31  N   UNL     1       6.097  -8.962   1.117  0.00  0.00    -0.329 N 
ATOM     32  H   UNL     1       6.239  -9.473   2.080  0.00  0.00    +0.145 HD
ATOM     33  H   UNL     1       5.156  -9.086   0.562  0.00  0.00    +0.145 HD
ENDBRANCH  26  29
ENDBRANCH  18  21
BRANCH  17  34
ATOM     34  C   UNL     1       6.454  -1.144  -1.180  0.00  0.00    +0.039 C 
ATOM     35  C   UNL     1       7.380  -1.957  -0.273  0.00  0.00    +0.010 C 
ATOM     36  C   UNL     1       6.340  -1.018   0.341  0.00  0.00    +0.010 C 
ENDBRANCH  17  34
TORSDOF 3
