REMARK  Name = ZINC03198313
REMARK  8 active torsions:
REMARK  status: ('A' for Active; 'I' for Inactive)
REMARK    1  A    between atoms: C_1  and  C_2
REMARK    2  A    between atoms: C_6  and  N_9
REMARK    3  A    between atoms: C_7  and  C_8
REMARK    4  A    between atoms: N_9  and  P_10
REMARK    5  A    between atoms: C_13  and  N_68
REMARK    6  A    between atoms: C_15  and  C_26
REMARK    7  A    between atoms: C_15  and  C_27
REMARK    8  A    between atoms: N_19  and  C_20
REMARK                            x       y       z     vdW  Elec       q    Type
REMARK                         _______ _______ _______ _____ _____    ______ ____
ROOT
ATOM      1  P   UNL     1       1.883   1.851   0.366  0.00  0.00    +0.296 P 
ATOM      2  O   UNL     1       2.221   2.698  -0.800  0.00  0.00    -0.272 OA
ATOM      3  C   UNL     1       0.230   1.117   0.197  0.00  0.00    +0.085 C 
ATOM      4  C   UNL     1      -0.989   1.622   0.215  0.00  0.00    +0.007 C 
ATOM      5  C   UNL     1      -2.142   0.638   0.201  0.00  0.00    +0.060 C 
ATOM      6  C   UNL     1      -1.802  -0.607  -0.604  0.00  0.00    -0.010 C 
ATOM      7  C   UNL     1      -0.453  -1.183  -0.259  0.00  0.00    +0.005 C 
ATOM      8  C   UNL     1       0.537  -0.334   0.090  0.00  0.00    +0.056 C 
ATOM      9  N   UNL     1       1.870  -0.598   0.290  0.00  0.00    -0.257 N 
ATOM     10  N   UNL     1       2.786   0.455   0.387  0.00  0.00    -0.182 N 
ATOM     11  C   UNL     1      -1.819  -0.251  -2.092  0.00  0.00    +0.015 C 
ATOM     12  C   UNL     1      -2.872  -1.668  -0.340  0.00  0.00    +0.015 C 
ATOM     13  H   UNL     1       2.176  -1.515   0.364  0.00  0.00    +0.171 HD
ENDROOT
BRANCH   4  19
ATOM     14  C   UNL     1      -0.752   3.840  -0.860  0.00  0.00    +0.085 C 
ATOM     15  C   UNL     1      -1.946   4.667  -1.359  0.00  0.00    +0.017 C 
ATOM     16  C   UNL     1      -2.556   5.433  -0.183  0.00  0.00    +0.003 C 
ATOM     17  C   UNL     1      -3.062   4.441   0.867  0.00  0.00    +0.017 C 
ATOM     18  C   UNL     1      -1.885   3.610   1.388  0.00  0.00    +0.085 C 
ATOM     19  N   UNL     1      -1.520   2.941   0.082  0.00  0.00    -0.396 NA
ATOM     20  H   UNL     1      -2.420   2.791  -0.387  0.00  0.00    +0.126 HD
ENDBRANCH   4  19
BRANCH  10  21
ATOM     21  C   UNL     1       4.176   0.353   0.483  0.00  0.00    +0.056 A 
ATOM     22  C   UNL     1       4.961   1.499   0.455  0.00  0.00    +0.025 A 
ATOM     23  C   UNL     1       6.335   1.396   0.553  0.00  0.00    +0.002 A 
ATOM     24  C   UNL     1       6.929   0.153   0.671  0.00  0.00    +0.000 A 
ATOM     25  C   UNL     1       6.151  -0.990   0.694  0.00  0.00    +0.002 A 
ATOM     26  C   UNL     1       4.777  -0.894   0.601  0.00  0.00    +0.025 A 
ENDBRANCH  10  21
BRANCH   1  27
ATOM     27  N   UNL     1       2.030   2.683   1.771  0.00  0.00    -0.276 N 
ATOM     28  H   UNL     1       2.288   3.618   1.756  0.00  0.00    +0.155 HD
BRANCH  27  34
ATOM     29  C   UNL     1       1.786   2.882   6.676  0.00  0.00    +0.044 C 
ATOM     30  C   UNL     1       1.658   2.118   5.383  0.00  0.00    -0.046 A 
ATOM     31  C   UNL     1       1.296   0.783   5.402  0.00  0.00    +0.004 A 
ATOM     32  C   UNL     1       1.178   0.078   4.219  0.00  0.00    +0.002 A 
ATOM     33  C   UNL     1       1.415   0.707   3.012  0.00  0.00    +0.023 A 
ATOM     34  C   UNL     1       1.784   2.046   2.989  0.00  0.00    +0.037 A 
ATOM     35  C   UNL     1       1.902   2.751   4.180  0.00  0.00    -0.026 A 
ATOM     36  C   UNL     1       2.297   4.205   4.160  0.00  0.00    +0.046 C 
ENDBRANCH  27  34
ENDBRANCH   1  27
TORSDOF 4
