REMARK  Name = ZINC30594381
REMARK  7 active torsions:
REMARK  status: ('A' for Active; 'I' for Inactive)
REMARK    1  A    between atoms: C_1  and  C_2
REMARK    2  A    between atoms: C_2  and  C_4
REMARK    3  A    between atoms: C_2  and  N_12
REMARK    4  A    between atoms: C_13  and  C_15
REMARK    5  A    between atoms: C_15  and  N_16
REMARK    6  A    between atoms: N_19  and  S_22
REMARK    7  A    between atoms: S_22  and  C_25
REMARK                            x       y       z     vdW  Elec       q    Type
REMARK                         _______ _______ _______ _____ _____    ______ ____
ROOT
ATOM      1  N   UNL     1      -0.433  -0.062   0.367  0.00  0.00    +0.387 N 
ATOM      2  C   UNL     1       0.081  -0.342  -0.980  0.00  0.00    -0.061 C 
ATOM      3  C   UNL     1       0.479  -1.819  -1.075  0.00  0.00    +0.091 C 
ATOM      4  N   UNL     1      -0.670  -2.640  -0.665  0.00  0.00    -0.180 NA
ATOM      5  C   UNL     1      -1.326  -2.329   0.615  0.00  0.00    +0.091 C 
ATOM      6  C   UNL     1      -1.653  -0.833   0.643  0.00  0.00    -0.061 C 
ATOM      7  H   UNL     1       0.334  -0.380   1.090  0.00  0.00    -0.081 HD
ENDROOT
BRANCH   4   8
ATOM      8  S   UNL     1      -1.212  -3.881  -1.618  0.00  0.00    +0.062 S 
ATOM      9  O   UNL     1      -2.613  -3.978  -1.401  0.00  0.00    -0.153 OA
ATOM     10  O   UNL     1      -0.653  -3.676  -2.908  0.00  0.00    -0.153 OA
BRANCH   8  11
ATOM     11  C   UNL     1      -0.502  -5.367  -0.991  0.00  0.00    +0.125 A 
ATOM     12  C   UNL     1      -1.313  -6.340  -0.436  0.00  0.00    +0.050 A 
ATOM     13  C   UNL     1      -0.756  -7.509   0.051  0.00  0.00    +0.043 A 
ATOM     14  C   UNL     1       0.613  -7.700  -0.008  0.00  0.00    +0.021 A 
ATOM     15  C   UNL     1       1.424  -6.725  -0.558  0.00  0.00    +0.023 A 
ATOM     16  C   UNL     1       0.867  -5.558  -1.050  0.00  0.00    +0.067 A 
ATOM     17 CL   UNL     1       1.885  -4.334  -1.741  0.00  0.00    -0.082 Cl
ATOM     18 CL   UNL     1      -1.774  -8.733   0.742  0.00  0.00    -0.083 Cl
ENDBRANCH   8  11
ENDBRANCH   4   8
BRANCH   1  19
ATOM     19  C   UNL     1      -0.664   1.376   0.554  0.00  0.00    +0.019 C 
BRANCH  19  21
ATOM     20  N   UNL     1       0.685   3.446   0.654  0.00  0.00    -0.310 N 
ATOM     21  C   UNL     1       0.652   2.107   0.505  0.00  0.00    +0.197 C 
ATOM     22  O   UNL     1       1.682   1.491   0.331  0.00  0.00    -0.278 OA
ATOM     23  H   UNL     1      -0.249   4.005   0.812  0.00  0.00    +0.149 HD
BRANCH  20  25
ATOM     24  C   UNL     1       2.614   4.135   1.992  0.00  0.00    +0.033 C 
ATOM     25  C   UNL     1       1.965   4.158   0.606  0.00  0.00    +0.103 C 
BRANCH  25  26
ATOM     26  C   UNL     1       1.731   5.585   0.185  0.00  0.00    +0.008 A 
ATOM     27  C   UNL     1       0.501   6.177   0.402  0.00  0.00    +0.011 A 
ATOM     28  C   UNL     1       0.286   7.488   0.021  0.00  0.00    +0.039 A 
ATOM     29  C   UNL     1       1.301   8.207  -0.589  0.00  0.00    +0.126 A 
ATOM     30  C   UNL     1       2.531   7.614  -0.811  0.00  0.00    +0.077 A 
ATOM     31  C   UNL     1       2.747   6.303  -0.424  0.00  0.00    +0.131 A 
ATOM     32  F   UNL     1       3.947   5.722  -0.642  0.00  0.00    -0.205 F 
ATOM     33  F   UNL     1       1.089   9.487  -0.965  0.00  0.00    -0.205 F 
ENDBRANCH  25  26
ENDBRANCH  20  25
ENDBRANCH  19  21
ENDBRANCH   1  19
TORSDOF 6
