REMARK  Name = ZINC04762645
REMARK  10 active torsions:
REMARK  status: ('A' for Active; 'I' for Inactive)
REMARK    1  A    between atoms: C_1  and  C_2
REMARK    2  A    between atoms: C_7  and  C_8
REMARK    3  A    between atoms: C_13  and  C_23
REMARK    4  A    between atoms: C_15  and  C_19
REMARK    5  A    between atoms: C_19  and  O_21
REMARK    6  A    between atoms: O_21  and  C_22
REMARK    7  A    between atoms: C_25  and  C_37
REMARK    8  A    between atoms: C_26  and  C_27
REMARK    9  A    between atoms: C_27  and  O_29
REMARK   10  A    between atoms: O_29  and  C_30
REMARK                            x       y       z     vdW  Elec       q    Type
REMARK                         _______ _______ _______ _____ _____    ______ ____
ROOT
ATOM      1  C   UNL     1       0.243   0.051   2.491  0.00  0.00    +0.092 C 
ATOM      2  C   UNL     1      -0.843  -0.414   3.429  0.00  0.00    +0.025 C 
ATOM      3  C   UNL     1      -0.563  -1.264   4.440  0.00  0.00    +0.016 C 
ATOM      4  C   UNL     1      -1.643  -1.732   5.383  0.00  0.00    +0.055 C 
ATOM      5  C   UNL     1      -2.984  -1.779   4.647  0.00  0.00    +0.013 C 
ATOM      6  C   UNL     1      -3.287  -0.380   4.101  0.00  0.00    +0.171 C 
ATOM      7  C   UNL     1      -2.150   0.058   3.219  0.00  0.00    +0.176 C 
ATOM      8  O   UNL     1      -2.365   0.834   2.308  0.00  0.00    -0.291 OA
ATOM      9  C   UNL     1      -4.087  -2.208   5.616  0.00  0.00    +0.009 C 
ATOM     10  N   UNL     1       0.715  -1.718   4.633  0.00  0.00    -0.321 N 
ATOM     11  C   UNL     1       1.780  -1.048   4.098  0.00  0.00    +0.016 C 
ATOM     12  C   UNL     1       1.602  -0.191   3.079  0.00  0.00    +0.065 C 
ATOM     13  C   UNL     1       3.161  -1.271   4.657  0.00  0.00    +0.061 C 
ATOM     14  H   UNL     1       0.865  -2.522   5.153  0.00  0.00    +0.152 HD
ENDROOT
BRANCH   1  21
ATOM     15  C   UNL     1      -0.259   1.489   0.036  0.00  0.00    +0.044 C 
ATOM     16  C   UNL     1      -0.113  -0.011   0.014  0.00  0.00    -0.046 A 
ATOM     17  C   UNL     1      -0.214  -0.698  -1.181  0.00  0.00    +0.003 A 
ATOM     18  C   UNL     1      -0.080  -2.073  -1.201  0.00  0.00    +0.000 A 
ATOM     19  C   UNL     1       0.155  -2.762  -0.025  0.00  0.00    +0.000 A 
ATOM     20  C   UNL     1       0.257  -2.075   1.169  0.00  0.00    +0.005 A 
ATOM     21  C   UNL     1       0.127  -0.699   1.189  0.00  0.00    -0.032 A 
ENDBRANCH   1  21
BRANCH   6  22
ATOM     22  C   UNL     1      -4.564  -0.417   3.301  0.00  0.00    +0.318 C 
ATOM     23  O   UNL     1      -5.170  -1.455   3.178  0.00  0.00    -0.250 OA
BRANCH  22  24
ATOM     24  O   UNL     1      -5.027   0.703   2.724  0.00  0.00    -0.467 OA
ATOM     25  C   UNL     1      -6.242   0.595   1.980  0.00  0.00    +0.280 C 
ENDBRANCH  22  24
ENDBRANCH   6  22
BRANCH  12  26
ATOM     26  C   UNL     1       2.719   0.496   2.550  0.00  0.00    +0.338 C 
ATOM     27  O   UNL     1       3.827   0.309   3.018  0.00  0.00    -0.245 OA
BRANCH  26  28
ATOM     28  O   UNL     1       2.557   1.360   1.526  0.00  0.00    -0.458 OA
BRANCH  28  29
ATOM     29  C   UNL     1       3.729   2.019   1.041  0.00  0.00    +0.177 C 
ATOM     30  C   UNL     1       3.962   3.298   1.871  0.00  0.00    +0.044 C 
ATOM     31  C   UNL     1       5.404   3.703   1.731  0.00  0.00    +0.004 C 
ATOM     32  C   UNL     1       5.620   4.736   0.608  0.00  0.00    +0.000 C 
ATOM     33  C   UNL     1       4.802   4.420  -0.659  0.00  0.00    +0.000 C 
ATOM     34  C   UNL     1       4.809   2.955  -1.000  0.00  0.00    +0.004 C 
ATOM     35  C   UNL     1       3.559   2.300  -0.377  0.00  0.00    +0.044 C 
ENDBRANCH  28  29
ENDBRANCH  26  28
ENDBRANCH  12  26
TORSDOF 6
