REMARK  Name = ZINC12656835
REMARK  4 active torsions:
REMARK  status: ('A' for Active; 'I' for Inactive)
REMARK    1  A    between atoms: C_12  and  C_14
REMARK    2  A    between atoms: C_14  and  O_16
REMARK    3  A    between atoms: O_16  and  C_17
REMARK    4  A    between atoms: C_17  and  C_18
REMARK                            x       y       z     vdW  Elec       q    Type
REMARK                         _______ _______ _______ _____ _____    ______ ____
ROOT
ATOM      1  C   UNL     1       1.660   2.101  -0.017  0.00  0.00    +0.308 C 
ENDROOT
BRANCH   1   2
ATOM      2  C   UNL     1       1.234   3.546   0.003  0.00  0.00    +0.170 A 
ATOM      3  N   UNL     1       1.146   4.178   1.159  0.00  0.00    -0.214 NA
ATOM      4  C   UNL     1       0.778   5.446   1.244  0.00  0.00    +0.128 A 
ATOM      5  C   UNL     1       0.467   6.157   0.051  0.00  0.00    +0.051 A 
ATOM      6  C   UNL     1       0.042   7.550  -0.101  0.00  0.00    -0.025 A 
ATOM      7  C   UNL     1      -0.193   7.984  -1.355  0.00  0.00    -0.004 A 
ATOM      8  S   UNL     1       0.132   6.587  -2.397  0.00  0.00    -0.073 S 
ATOM      9  C   UNL     1       0.584   5.417  -1.142  0.00  0.00    +0.114 A 
ATOM     10  N   UNL     1       0.964   4.154  -1.136  0.00  0.00    -0.221 NA
ATOM     11  C   UNL     1      -0.634   9.353  -1.774  0.00  0.00    +0.043 C 
ATOM     12  C   UNL     1      -1.143  10.100  -0.532  0.00  0.00    +0.005 C 
ATOM     13  C   UNL     1      -0.121   9.929   0.595  0.00  0.00    +0.005 C 
ATOM     14  C   UNL     1      -0.134   8.484   1.093  0.00  0.00    +0.037 C 
ATOM     15  N   UNL     1       0.697   6.072   2.474  0.00  0.00    -0.343 N 
ATOM     16  H   UNL     1       1.121   5.673   3.250  0.00  0.00    +0.144 HD
ATOM     17  H   UNL     1       0.216   6.910   2.562  0.00  0.00    +0.144 HD
ENDBRANCH   1   2
BRANCH   1  18
ATOM     18  O   UNL     1       0.488   1.250   0.088  0.00  0.00    -0.456 OA
BRANCH  18  19
ATOM     19  C   UNL     1       0.695  -0.076   0.085  0.00  0.00    +0.316 C 
ATOM     20  O   UNL     1       1.819  -0.512  -0.003  0.00  0.00    -0.250 OA
BRANCH  19  32
ATOM     21  C   UNL     1       0.574  -4.420  -1.078  0.00  0.00    +0.039 A 
ATOM     22  C   UNL     1       0.103  -3.121  -1.043  0.00  0.00    +0.009 A 
ATOM     23  C   UNL     1       0.028  -2.443   0.158  0.00  0.00    -0.012 A 
ATOM     24  C   UNL     1       0.415  -3.071   1.335  0.00  0.00    +0.040 A 
ATOM     25  C   UNL     1       0.893  -4.374   1.298  0.00  0.00    +0.062 A 
ATOM     26  C   UNL     1       0.972  -5.046   0.091  0.00  0.00    +0.125 A 
ATOM     27  F   UNL     1       1.437  -6.314   0.054  0.00  0.00    -0.205 F 
ATOM     28  N   UNL     1       0.322  -2.396   2.555  0.00  0.00    -0.285 N 
ATOM     29  C   UNL     1      -0.394  -1.263   2.660  0.00  0.00    +0.218 C 
ATOM     30  O   UNL     1      -0.377  -0.635   3.697  0.00  0.00    -0.275 OA
ATOM     31  C   UNL     1      -1.217  -0.767   1.501  0.00  0.00    +0.115 C 
ATOM     32  C   UNL     1      -0.473  -1.022   0.190  0.00  0.00    +0.138 C 
ATOM     33  H   UNL     1       0.779  -2.749   3.335  0.00  0.00    +0.155 HD
ENDBRANCH  19  32
ENDBRANCH  18  19
ENDBRANCH   1  18
TORSDOF 4
