REMARK  Name = ZINC36007080
REMARK  10 active torsions:
REMARK  status: ('A' for Active; 'I' for Inactive)
REMARK    1  A    between atoms: C_1  and  C_2
REMARK    2  A    between atoms: C_2  and  N_3
REMARK    3  A    between atoms: N_3  and  C_4
REMARK    4  A    between atoms: N_3  and  S_6
REMARK    5  A    between atoms: C_4  and  C_5
REMARK    6  A    between atoms: S_6  and  C_9
REMARK    7  A    between atoms: N_15  and  N_16
REMARK    8  A    between atoms: C_17  and  C_18
REMARK    9  A    between atoms: C_19  and  N_30
REMARK   10  A    between atoms: C_21  and  C_22
REMARK                            x       y       z     vdW  Elec       q    Type
REMARK                         _______ _______ _______ _____ _____    ______ ____
ROOT
ATOM      1  C   UNL     1       7.813   4.833   5.571  0.00  0.00    -0.008 C 
ATOM      2  C   UNL     1       8.395   5.959   6.030  0.00  0.00    +0.022 C 
ATOM      3  C   UNL     1       7.996   6.286   7.339  0.00  0.00    -0.027 C 
ATOM      4  C   UNL     1       8.417   7.357   8.049  0.00  0.00    +0.013 C 
ATOM      5  C   UNL     1       7.017   5.237   7.816  0.00  0.00    +0.042 C 
ATOM      6  C   UNL     1       6.892   4.268   6.626  0.00  0.00    +0.043 C 
ENDROOT
BRANCH   2   7
ATOM      7  N   UNL     1       9.300   6.721   5.285  0.00  0.00    -0.389 NA
ATOM      8  C   UNL     1       8.643   7.203   4.062  0.00  0.00    +0.113 C 
ATOM      9  C   UNL     1       9.636   8.037   3.248  0.00  0.00    +0.177 C 
ATOM     10  O   UNL     1      10.786   7.241   2.948  0.00  0.00    -0.377 OA
ATOM     11  C   UNL     1      11.447   6.728   4.108  0.00  0.00    +0.177 C 
ATOM     12  C   UNL     1      10.458   5.891   4.924  0.00  0.00    +0.113 C 
ATOM     13  H   UNL     1       9.609   7.508   5.835  0.00  0.00    +0.127 HD
ENDBRANCH   2   7
BRANCH   4  14
ATOM     14  C   UNL     1       8.984   8.523   7.355  0.00  0.00    -0.025 A 
ATOM     15  C   UNL     1       8.342   9.054   6.232  0.00  0.00    +0.008 A 
ATOM     16  C   UNL     1       8.880  10.147   5.587  0.00  0.00    +0.001 A 
ATOM     17  C   UNL     1      10.053  10.719   6.048  0.00  0.00    +0.000 A 
ATOM     18  C   UNL     1      10.695  10.200   7.159  0.00  0.00    +0.001 A 
ATOM     19  C   UNL     1      10.166   9.111   7.819  0.00  0.00    +0.008 A 
ENDBRANCH   4  14
BRANCH   1  21
ATOM     20  N   UNL     1       7.453   3.144   3.970  0.00  0.00    -0.189 NA
ATOM     21  C   UNL     1       8.028   4.269   4.292  0.00  0.00    +0.135 C 
BRANCH  20  28
ATOM     22  C   UNL     1       5.838  -0.964   1.719  0.00  0.00    +0.124 A 
ATOM     23  C   UNL     1       6.653  -0.356   0.772  0.00  0.00    +0.033 A 
ATOM     24  C   UNL     1       7.269   0.838   1.100  0.00  0.00    +0.047 A 
ATOM     25  C   UNL     1       7.053   1.387   2.360  0.00  0.00    +0.138 A 
ATOM     26  N   UNL     1       6.269   0.777   3.236  0.00  0.00    -0.237 NA
ATOM     27  C   UNL     1       5.664  -0.360   2.948  0.00  0.00    +0.141 A 
ATOM     28  N   UNL     1       7.666   2.585   2.703  0.00  0.00    -0.221 N 
ATOM     29  H   UNL     1       8.242   3.036   2.065  0.00  0.00    +0.176 HD
BRANCH  22  30
ATOM     30  S   UNL     1       5.029  -2.485   1.352  0.00  0.00    +0.062 S 
ATOM     31  O   UNL     1       4.759  -3.112   2.598  0.00  0.00    -0.153 OA
ATOM     32  O   UNL     1       5.792  -3.115   0.332  0.00  0.00    -0.153 OA
BRANCH  30  33
ATOM     33  N   UNL     1       3.562  -2.111   0.682  0.00  0.00    -0.177 NA
BRANCH  33  35
ATOM     34  C   UNL     1       3.570  -0.465  -1.127  0.00  0.00    +0.022 C 
ATOM     35  C   UNL     1       3.439  -1.946  -0.768  0.00  0.00    +0.106 C 
ENDBRANCH  33  35
BRANCH  33  36
ATOM     36  C   UNL     1       2.386  -1.943   1.541  0.00  0.00    +0.106 C 
ATOM     37  C   UNL     1       1.610  -3.260   1.605  0.00  0.00    +0.022 C 
ENDBRANCH  33  36
ENDBRANCH  30  33
ENDBRANCH  22  30
ENDBRANCH  20  28
ENDBRANCH   1  21
TORSDOF 8
