REMARK  Name = ZINC19641436
REMARK  6 active torsions:
REMARK  status: ('A' for Active; 'I' for Inactive)
REMARK    1  A    between atoms: C_3  and  N_26
REMARK    2  A    between atoms: C_4  and  C_10
REMARK    3  A    between atoms: C_6  and  N_7
REMARK    4  A    between atoms: N_12  and  C_13
REMARK    5  A    between atoms: C_13  and  N_15
REMARK    6  A    between atoms: N_15  and  C_16
REMARK                            x       y       z     vdW  Elec       q    Type
REMARK                         _______ _______ _______ _____ _____    ______ ____
ROOT
ATOM      1  C   UNL     1       3.699  -0.694   0.044  0.00  0.00    +0.251 C 
ATOM      2  O   UNL     1       4.746  -0.077   0.080  0.00  0.00    -0.270 OA
ATOM      3  N   UNL     1       3.712  -2.041  -0.006  0.00  0.00    -0.264 N 
ATOM      4  H   UNL     1       2.876  -2.533  -0.034  0.00  0.00    +0.157 HD
ENDROOT
BRANCH   1   8
ATOM      5  C   UNL     1      -0.001   1.394   0.077  0.00  0.00    +0.034 A 
ATOM      6  C   UNL     1       1.181   2.105   0.119  0.00  0.00    +0.026 A 
ATOM      7  C   UNL     1       2.397   1.434   0.109  0.00  0.00    +0.042 A 
ATOM      8  C   UNL     1       2.416   0.030   0.056  0.00  0.00    +0.060 A 
ATOM      9  C   UNL     1       1.210  -0.674   0.015  0.00  0.00    +0.047 A 
ATOM     10  C   UNL     1       0.014   0.009   0.026  0.00  0.00    +0.127 A 
BRANCH   7  11
ATOM     11  N   UNL     1       3.588   2.147   0.150  0.00  0.00    -0.325 N 
ATOM     12  C   UNL     1       4.250   2.587  -1.089  0.00  0.00    +0.133 C 
ATOM     13  C   UNL     1       4.565   4.082  -0.962  0.00  0.00    +0.178 C 
ATOM     14  O   UNL     1       5.278   4.312   0.255  0.00  0.00    -0.377 OA
ATOM     15  C   UNL     1       4.542   3.984   1.436  0.00  0.00    +0.178 C 
ATOM     16  C   UNL     1       4.223   2.489   1.433  0.00  0.00    +0.133 C 
ENDBRANCH   7  11
BRANCH  10  17
ATOM     17  N   UNL     1      -1.262  -0.739  -0.018  0.00  0.00    +0.056 N 
ATOM     18  O   UNL     1      -2.314  -0.143  -0.008  0.00  0.00    -0.126 OA
ATOM     19  O   UNL     1      -1.253  -1.948  -0.063  0.00  0.00    -0.126 OA
ENDBRANCH  10  17
ENDBRANCH   1   8
BRANCH   3  20
ATOM     20  C   UNL     1       4.885  -2.704  -0.017  0.00  0.00    +0.137 C 
ATOM     21  S   UNL     1       6.359  -1.835   0.034  0.00  0.00    -0.018 S 
BRANCH  20  22
ATOM     22  N   UNL     1       4.898  -4.050  -0.067  0.00  0.00    -0.321 N 
ATOM     23  H   UNL     1       4.065  -4.545  -0.019  0.00  0.00    +0.148 HD
BRANCH  22  24
ATOM     24  C   UNL     1       6.170  -4.766  -0.194  0.00  0.00    +0.034 C 
ATOM     25  C   UNL     1       5.901  -6.269  -0.301  0.00  0.00    +0.029 C 
ATOM     26  C   UNL     1       7.229  -7.017  -0.433  0.00  0.00    -0.008 C 
ATOM     27  C   UNL     1       8.095  -6.740   0.797  0.00  0.00    +0.007 C 
ATOM     28  C   UNL     1       8.364  -5.237   0.903  0.00  0.00    -0.008 C 
ATOM     29  C   UNL     1       7.036  -4.489   1.036  0.00  0.00    +0.029 C 
ATOM     30  C   UNL     1       9.095  -4.760  -0.353  0.00  0.00    +0.007 C 
ATOM     31  C   UNL     1       8.229  -5.037  -1.583  0.00  0.00    -0.008 C 
ATOM     32  C   UNL     1       7.960  -6.539  -1.690  0.00  0.00    +0.007 C 
ATOM     33  C   UNL     1       6.901  -4.289  -1.451  0.00  0.00    +0.029 C 
ENDBRANCH  22  24
ENDBRANCH  20  22
ENDBRANCH   3  20
TORSDOF 6
