REMARK  Name = ZINC00078801
REMARK  8 active torsions:
REMARK  status: ('A' for Active; 'I' for Inactive)
REMARK    1  A    between atoms: C_1  and  C_2
REMARK    2  A    between atoms: C_2  and  C_3
REMARK    3  A    between atoms: C_2  and  C_4
REMARK    4  A    between atoms: C_2  and  O_19
REMARK    5  A    between atoms: C_4  and  O_18
REMARK    6  A    between atoms: C_6  and  C_10
REMARK    7  A    between atoms: C_13  and  O_16
REMARK    8  A    between atoms: O_16  and  C_17
REMARK                            x       y       z     vdW  Elec       q    Type
REMARK                         _______ _______ _______ _____ _____    ______ ____
ROOT
ATOM      1  C   UNL     1      -1.433  -0.534   0.013  0.00  0.00    +0.170 C 
ATOM      2  C   UNL     1      -1.436  -2.078  -0.064  0.00  0.00    +0.094 C 
ATOM      3  C   UNL     1      -2.621  -2.363  -1.022  0.00  0.00    +0.176 C 
ATOM      4  O   UNL     1      -2.531  -1.276  -1.970  0.00  0.00    -0.289 OA
ATOM      5  N   UNL     1      -2.155  -0.083  -1.196  0.00  0.00    -0.167 NA
ATOM      6  H   UNL     1      -1.584   0.541  -1.746  0.00  0.00    +0.157 HD
ENDROOT
BRANCH   3   7
ATOM      7  C   UNL     1      -2.444  -3.692  -1.709  0.00  0.00    -0.017 A 
ATOM      8  C   UNL     1      -1.598  -3.800  -2.797  0.00  0.00    +0.010 A 
ATOM      9  C   UNL     1      -1.435  -5.018  -3.429  0.00  0.00    +0.046 A 
ATOM     10  C   UNL     1      -2.121  -6.133  -2.971  0.00  0.00    +0.120 A 
ATOM     11  C   UNL     1      -2.969  -6.022  -1.879  0.00  0.00    +0.046 A 
ATOM     12  C   UNL     1      -3.125  -4.804  -1.247  0.00  0.00    +0.010 A 
BRANCH  10  13
ATOM     13  O   UNL     1      -1.962  -7.332  -3.591  0.00  0.00    -0.495 OA
ATOM     14  C   UNL     1      -2.700  -8.437  -3.065  0.00  0.00    +0.277 C 
ENDBRANCH  10  13
ENDBRANCH   3   7
BRANCH   1  16
ATOM     15  C   UNL     1      -0.019   1.526   0.010  0.00  0.00    +0.045 C 
ATOM     16  C   UNL     1       0.002  -0.004   0.002  0.00  0.00    +0.104 C 
ATOM     17  C   UNL     1       0.742  -0.511   1.242  0.00  0.00    +0.045 C 
BRANCH  16  18
ATOM     18  O   UNL     1       0.671  -0.465  -1.174  0.00  0.00    -0.385 OA
ATOM     19  H   UNL     1       1.588  -0.167  -1.247  0.00  0.00    +0.210 HD
ENDBRANCH  16  18
ENDBRANCH   1  16
BRANCH   1  20
ATOM     20  O   UNL     1      -2.114  -0.093   1.190  0.00  0.00    -0.370 OA
ATOM     21  H   UNL     1      -3.030  -0.399   1.252  0.00  0.00    +0.212 HD
ENDBRANCH   1  20
TORSDOF 5
