REMARK  Name = ZINC46913773
REMARK  8 active torsions:
REMARK  status: ('A' for Active; 'I' for Inactive)
REMARK    1  A    between atoms: C_1  and  C_2
REMARK    2  A    between atoms: C_2  and  C_4
REMARK    3  A    between atoms: C_2  and  S_26
REMARK    4  A    between atoms: N_6  and  N_7
REMARK    5  A    between atoms: C_10  and  C_15
REMARK    6  A    between atoms: C_15  and  C_16
REMARK    7  A    between atoms: S_26  and  C_27
REMARK    8  A    between atoms: C_27  and  C_28
REMARK                            x       y       z     vdW  Elec       q    Type
REMARK                         _______ _______ _______ _____ _____    ______ ____
ROOT
ATOM      1  N   UNL     1       2.756  -0.983   2.379  0.00  0.00    -0.137 N 
ATOM      2  C   UNL     1       3.375  -0.184   3.270  0.00  0.00    +0.260 C 
ATOM      3  O   UNL     1       3.448   1.026   3.243  0.00  0.00    -0.272 OA
ATOM      4  C   UNL     1       3.961  -1.113   4.316  0.00  0.00    +0.167 C 
ATOM      5  N   UNL     1       3.566  -2.453   3.848  0.00  0.00    -0.286 N 
ATOM      6  C   UNL     1       2.863  -2.273   2.715  0.00  0.00    +0.326 C 
ATOM      7  O   UNL     1       2.383  -3.182   2.067  0.00  0.00    -0.251 OA
ATOM      8  H   UNL     1       3.771  -3.299   4.275  0.00  0.00    +0.151 HD
ENDROOT
BRANCH   1  11
ATOM      9  C   UNL     1       0.731  -0.503   1.223  0.00  0.00    +0.242 C 
ATOM     10  O   UNL     1       0.105  -0.891   2.187  0.00  0.00    -0.273 OA
ATOM     11  N   UNL     1       2.079  -0.519   1.244  0.00  0.00    -0.223 N 
ATOM     12  H   UNL     1       2.579  -0.208   0.473  0.00  0.00    +0.174 HD
BRANCH   9  14
ATOM     13  C   UNL     1      -0.019   1.526   0.010  0.00  0.00    +0.029 C 
ATOM     14  C   UNL     1       0.002  -0.004   0.002  0.00  0.00    +0.131 C 
BRANCH  14  15
ATOM     15  S   UNL     1      -1.700  -0.632   0.015  0.00  0.00    -0.144 S 
BRANCH  15  16
ATOM     16  C   UNL     1      -2.384  -0.077  -1.571  0.00  0.00    +0.105 C 
BRANCH  16  17
ATOM     17  C   UNL     1      -3.814  -0.539  -1.690  0.00  0.00    -0.038 A 
ATOM     18  C   UNL     1      -4.098  -1.768  -2.254  0.00  0.00    +0.004 A 
ATOM     19  C   UNL     1      -5.410  -2.192  -2.364  0.00  0.00    +0.000 A 
ATOM     20  C   UNL     1      -6.436  -1.386  -1.908  0.00  0.00    +0.000 A 
ATOM     21  C   UNL     1      -6.152  -0.157  -1.343  0.00  0.00    +0.000 A 
ATOM     22  C   UNL     1      -4.840   0.265  -1.230  0.00  0.00    +0.004 A 
ENDBRANCH  16  17
ENDBRANCH  15  16
ENDBRANCH  14  15
ENDBRANCH   9  14
ENDBRANCH   1  11
BRANCH   4  23
ATOM     23  C   UNL     1       3.360  -0.821   5.692  0.00  0.00    +0.069 C 
BRANCH  23  24
ATOM     24  C   UNL     1       4.046  -1.671   6.730  0.00  0.00    -0.020 A 
ATOM     25  C   UNL     1       3.629  -2.862   7.189  0.00  0.00    +0.087 A 
ATOM     26  N   UNL     1       4.508  -3.335   8.125  0.00  0.00    -0.360 N 
ATOM     27  H   UNL     1       4.419  -4.177   8.598  0.00  0.00    +0.165 HD
ATOM     28  C   UNL     1       5.538  -2.437   8.296  0.00  0.00    +0.047 A 
ATOM     29  C   UNL     1       5.296  -1.358   7.425  0.00  0.00    +0.003 A 
ATOM     30  C   UNL     1       6.191  -0.287   7.378  0.00  0.00    +0.010 A 
ATOM     31  C   UNL     1       7.300  -0.294   8.177  0.00  0.00    +0.001 A 
ATOM     32  C   UNL     1       7.544  -1.357   9.035  0.00  0.00    +0.002 A 
ATOM     33  C   UNL     1       6.670  -2.420   9.104  0.00  0.00    +0.026 A 
ENDBRANCH  23  24
ENDBRANCH   4  23
TORSDOF 7
