REMARK  Name = ZINC49977348
REMARK  6 active torsions:
REMARK  status: ('A' for Active; 'I' for Inactive)
REMARK    1  A    between atoms: C_1  and  C_2
REMARK    2  A    between atoms: C_5  and  N_9
REMARK    3  A    between atoms: C_6  and  C_8
REMARK    4  A    between atoms: N_9  and  C_10
REMARK    5  A    between atoms: C_11  and  C_13
REMARK    6  A    between atoms: C_15  and  N_19
REMARK                            x       y       z     vdW  Elec       q    Type
REMARK                         _______ _______ _______ _____ _____    ______ ____
ROOT
ATOM      1  N   UNL     1       0.048  -4.221  -0.238  0.00  0.00    -0.269 N 
ATOM      2  C   UNL     1       1.317  -4.952  -0.240  0.00  0.00    +0.138 C 
ATOM      3  C   UNL     1      -0.956  -4.616   0.570  0.00  0.00    +0.267 C 
ATOM      4  O   UNL     1      -0.778  -5.522   1.363  0.00  0.00    -0.268 OA
ENDROOT
BRANCH   1   9
ATOM      5  C   UNL     1      -0.642   0.276  -3.625  0.00  0.00    +0.044 C 
ATOM      6  C   UNL     1      -0.459  -0.918  -2.725  0.00  0.00    -0.050 A 
ATOM      7  C   UNL     1      -0.789  -2.182  -3.180  0.00  0.00    +0.005 A 
ATOM      8  C   UNL     1      -0.622  -3.279  -2.358  0.00  0.00    +0.024 A 
ATOM      9  C   UNL     1      -0.122  -3.112  -1.073  0.00  0.00    +0.039 A 
ATOM     10  C   UNL     1       0.209  -1.842  -0.619  0.00  0.00    -0.029 A 
ATOM     11  C   UNL     1       0.044  -0.749  -1.448  0.00  0.00    +0.008 A 
ATOM     12  C   UNL     1       0.752  -1.656   0.774  0.00  0.00    +0.045 C 
ENDBRANCH   1   9
BRANCH   3  13
ATOM     13  C   UNL     1      -2.262  -3.955   0.493  0.00  0.00    +0.104 A 
ATOM     14  C   UNL     1      -3.404  -4.325   1.174  0.00  0.00    +0.055 A 
ATOM     15  C   UNL     1      -4.413  -3.425   0.808  0.00  0.00    +0.043 A 
ATOM     16  C   UNL     1      -3.879  -2.539  -0.073  0.00  0.00    +0.106 A 
ATOM     17  N   UNL     1      -2.570  -2.850  -0.267  0.00  0.00    -0.355 N 
ATOM     18  H   UNL     1      -1.954  -2.373  -0.845  0.00  0.00    +0.166 HD
BRANCH  15  19
ATOM     19  N   UNL     1      -5.743  -3.436   1.270  0.00  0.00    -0.357 N 
ATOM     20  H   UNL     1      -6.031  -4.113   1.902  0.00  0.00    +0.142 HD
ATOM     21  H   UNL     1      -6.371  -2.767   0.956  0.00  0.00    +0.142 HD
ENDBRANCH  15  19
ENDBRANCH   3  13
TORSDOF 3
