REMARK  Name = ZINC41021100
REMARK  9 active torsions:
REMARK  status: ('A' for Active; 'I' for Inactive)
REMARK    1  A    between atoms: C_1  and  C_2
REMARK    2  A    between atoms: C_5  and  C_8
REMARK    3  A    between atoms: C_11  and  C_13
REMARK    4  A    between atoms: C_13  and  C_14
REMARK    5  A    between atoms: C_14  and  C_15
REMARK    6  A    between atoms: N_17  and  C_18
REMARK    7  A    between atoms: C_18  and  C_19
REMARK    8  A    between atoms: C_19  and  C_21
REMARK    9  A    between atoms: C_19  and  N_28
REMARK                            x       y       z     vdW  Elec       q    Type
REMARK                         _______ _______ _______ _____ _____    ______ ____
ROOT
ATOM      1  C   UNL     1       1.607  -9.212   2.542  0.00  0.00    +0.213 C 
ATOM      2  O   UNL     1       0.562  -9.791   2.749  0.00  0.00    -0.276 OA
ATOM      3  N   UNL     1       2.764  -9.720   3.010  0.00  0.00    -0.317 N 
ATOM      4  H   UNL     1       3.600  -9.257   2.844  0.00  0.00    +0.149 HD
ENDROOT
BRANCH   1   5
ATOM      5  C   UNL     1       1.612  -7.922   1.762  0.00  0.00    +0.105 C 
BRANCH   5   6
ATOM      6  C   UNL     1       0.181  -7.570   1.351  0.00  0.00    +0.105 C 
BRANCH   6  10
ATOM      7  C   UNL     1       0.112  -4.165   0.078  0.00  0.00    +0.155 A 
ATOM      8  C   UNL     1       0.271  -4.882  -1.063  0.00  0.00    +0.161 A 
ATOM      9  N   UNL     1       0.312  -6.179  -0.723  0.00  0.00    -0.221 NA
ATOM     10  C   UNL     1       0.186  -6.280   0.571  0.00  0.00    +0.197 A 
ATOM     11  O   UNL     1       0.065  -5.053   1.095  0.00  0.00    -0.440 OA
BRANCH   7  16
ATOM     12  C   UNL     1      -0.267   1.561   0.506  0.00  0.00    +0.044 C 
ATOM     13  C   UNL     1      -0.167   0.061   0.394  0.00  0.00    -0.050 A 
ATOM     14  C   UNL     1      -0.011  -0.527  -0.848  0.00  0.00    +0.004 A 
ATOM     15  C   UNL     1       0.080  -1.900  -0.957  0.00  0.00    +0.012 A 
ATOM     16  C   UNL     1       0.015  -2.694   0.188  0.00  0.00    +0.019 A 
ATOM     17  C   UNL     1      -0.142  -2.093   1.438  0.00  0.00    +0.012 A 
ATOM     18  C   UNL     1      -0.227  -0.720   1.535  0.00  0.00    +0.004 A 
ENDBRANCH   7  16
ENDBRANCH   6  10
ENDBRANCH   5   6
ENDBRANCH   1   5
BRANCH   3  19
ATOM     19  C   UNL     1       2.760 -10.974   3.768  0.00  0.00    +0.093 C 
BRANCH  19  20
ATOM     20  C   UNL     1       4.199 -11.382   4.087  0.00  0.00    -0.020 C 
BRANCH  20  21
ATOM     21  C   UNL     1       4.814 -10.369   5.019  0.00  0.00    -0.059 A 
ATOM     22  C   UNL     1       4.541 -10.421   6.373  0.00  0.00    +0.003 A 
ATOM     23  C   UNL     1       5.105  -9.493   7.228  0.00  0.00    +0.020 A 
ATOM     24  C   UNL     1       5.942  -8.511   6.728  0.00  0.00    +0.041 A 
ATOM     25  C   UNL     1       6.214  -8.460   5.372  0.00  0.00    +0.020 A 
ATOM     26  C   UNL     1       5.655  -9.392   4.519  0.00  0.00    +0.003 A 
ATOM     27 CL   UNL     1       6.649  -7.344   7.801  0.00  0.00    -0.084 Cl
ENDBRANCH  20  21
BRANCH  20  28
ATOM     28  N   UNL     1       4.203 -12.703   4.729  0.00  0.00    +0.385 N 
ATOM     29  C   UNL     1       3.667 -13.728   3.796  0.00  0.00    -0.078 C 
ATOM     30  C   UNL     1       4.243 -15.053   4.356  0.00  0.00    -0.020 C 
ATOM     31  C   UNL     1       5.659 -14.644   4.823  0.00  0.00    -0.020 C 
ATOM     32  C   UNL     1       5.589 -13.120   5.032  0.00  0.00    -0.078 C 
ATOM     33  H   UNL     1       3.653 -12.681   5.575  0.00  0.00    -0.081 HD
ENDBRANCH  20  28
ENDBRANCH  19  20
ENDBRANCH   3  19
TORSDOF 8
