REMARK  Name = ZINC02687420
REMARK  8 active torsions:
REMARK  status: ('A' for Active; 'I' for Inactive)
REMARK    1  A    between atoms: C_7  and  C_11
REMARK    2  A    between atoms: C_11  and  C_12
REMARK    3  A    between atoms: C_12  and  N_13
REMARK    4  A    between atoms: C_26  and  S_27
REMARK    5  A    between atoms: S_27  and  C_28
REMARK    6  A    between atoms: C_28  and  C_29
REMARK    7  A    between atoms: N_31  and  C_32
REMARK    8  A    between atoms: C_32  and  C_33
REMARK                            x       y       z     vdW  Elec       q    Type
REMARK                         _______ _______ _______ _____ _____    ______ ____
ROOT
ATOM      1  N   UNL     1      -0.135   1.174   4.047  0.00  0.00    -0.287 N 
ATOM      2  C   UNL     1       0.653   0.634   5.007  0.00  0.00    +0.269 A 
ATOM      3  O   UNL     1       0.405   0.805   6.189  0.00  0.00    -0.266 OA
ATOM      4  C   UNL     1       1.757  -0.125   4.607  0.00  0.00    +0.103 A 
ATOM      5  C   UNL     1       2.049  -0.328   3.260  0.00  0.00    +0.094 A 
ATOM      6  C   UNL     1       3.240  -1.147   2.971  0.00  0.00    +0.015 A 
ATOM      7  C   UNL     1       3.753  -1.500   1.701  0.00  0.00    +0.011 A 
ATOM      8  C   UNL     1       4.871  -2.267   1.592  0.00  0.00    +0.001 A 
ATOM      9  C   UNL     1       5.545  -2.729   2.715  0.00  0.00    +0.001 A 
ATOM     10  C   UNL     1       5.074  -2.405   3.971  0.00  0.00    +0.016 A 
ATOM     11  C   UNL     1       3.939  -1.626   4.093  0.00  0.00    +0.022 A 
ATOM     12  S   UNL     1       3.029  -0.999   5.480  0.00  0.00    -0.081 S 
ATOM     13  N   UNL     1       1.203   0.247   2.360  0.00  0.00    -0.222 NA
ATOM     14  C   UNL     1       0.174   0.961   2.735  0.00  0.00    +0.173 A 
ENDROOT
BRANCH   1  15
ATOM     15  C   UNL     1      -1.303   1.979   4.412  0.00  0.00    +0.132 C 
BRANCH  15  16
ATOM     16  C   UNL     1      -2.528   1.070   4.541  0.00  0.00    +0.059 C 
BRANCH  16  23
ATOM     17  C   UNL     1      -5.607   3.571   2.043  0.00  0.00    +0.001 A 
ATOM     18  C   UNL     1      -6.573   4.182   2.831  0.00  0.00    +0.002 A 
ATOM     19  C   UNL     1      -6.569   4.021   4.199  0.00  0.00    +0.026 A 
ATOM     20  C   UNL     1      -5.582   3.246   4.801  0.00  0.00    +0.047 A 
ATOM     21  C   UNL     1      -4.605   2.631   3.998  0.00  0.00    +0.003 A 
ATOM     22  C   UNL     1      -4.632   2.802   2.613  0.00  0.00    +0.010 A 
ATOM     23  C   UNL     1      -3.730   1.898   4.916  0.00  0.00    -0.021 A 
ATOM     24  C   UNL     1      -4.199   2.108   6.157  0.00  0.00    +0.087 A 
ATOM     25  N   UNL     1      -5.305   2.911   6.107  0.00  0.00    -0.360 N 
ATOM     26  H   UNL     1      -5.818   3.201   6.878  0.00  0.00    +0.165 HD
ENDBRANCH  16  23
ENDBRANCH  15  16
ENDBRANCH   1  15
BRANCH  14  27
ATOM     27  S   UNL     1      -0.860   1.669   1.497  0.00  0.00    -0.078 S 
BRANCH  27  28
ATOM     28  C   UNL     1      -0.013   1.086   0.008  0.00  0.00    +0.173 C 
BRANCH  28  29
ATOM     29  C   UNL     1      -0.742   1.585  -1.213  0.00  0.00    +0.224 C 
ATOM     30  O   UNL     1      -1.736   2.268  -1.088  0.00  0.00    -0.275 OA
ATOM     31  N   UNL     1      -0.288   1.272  -2.443  0.00  0.00    -0.308 N 
ATOM     32  H   UNL     1       0.507   0.726  -2.543  0.00  0.00    +0.149 HD
BRANCH  31  33
ATOM     33  C   UNL     1      -0.997   1.758  -3.630  0.00  0.00    +0.178 C 
BRANCH  33  34
ATOM     34  C   UNL     1      -0.292   1.272  -4.870  0.00  0.00    +0.122 A 
ATOM     35  C   UNL     1      -0.541   0.118  -5.516  0.00  0.00    +0.046 A 
ATOM     36  C   UNL     1       0.345   0.066  -6.617  0.00  0.00    +0.041 A 
ATOM     37  C   UNL     1       1.083   1.190  -6.577  0.00  0.00    +0.195 A 
ATOM     38  O   UNL     1       0.689   1.919  -5.520  0.00  0.00    -0.466 OA
ENDBRANCH  33  34
ENDBRANCH  31  33
ENDBRANCH  28  29
ENDBRANCH  27  28
ENDBRANCH  14  27
TORSDOF 8
