REMARK  Name = ZINC20882852
REMARK  12 active torsions:
REMARK  status: ('A' for Active; 'I' for Inactive)
REMARK    1  A    between atoms: C_1  and  C_2
REMARK    2  A    between atoms: C_2  and  C_3
REMARK    3  A    between atoms: C_2  and  O_4
REMARK    4  A    between atoms: O_4  and  C_5
REMARK    5  A    between atoms: C_6  and  C_13
REMARK    6  A    between atoms: C_10  and  O_11
REMARK    7  A    between atoms: O_11  and  C_12
REMARK    8  A    between atoms: C_18  and  C_23
REMARK    9  A    between atoms: C_26  and  O_31
REMARK   10  A    between atoms: C_27  and  O_29
REMARK   11  A    between atoms: O_29  and  C_30
REMARK   12  A    between atoms: O_31  and  C_32
REMARK                            x       y       z     vdW  Elec       q    Type
REMARK                         _______ _______ _______ _____ _____    ______ ____
ROOT
ATOM      1  C   UNL     1       1.807   1.928  -2.920  0.00  0.00    +0.140 C 
ATOM      2  C   UNL     1       0.547   1.271  -3.434  0.00  0.00    +0.037 C 
ATOM      3  C   UNL     1       0.284   0.964  -4.714  0.00  0.00    +0.017 C 
ATOM      4  C   UNL     1      -1.016   0.270  -5.086  0.00  0.00    +0.059 C 
ATOM      5  C   UNL     1      -2.134   0.724  -4.149  0.00  0.00    +0.032 C 
ATOM      6  C   UNL     1      -1.725   0.351  -2.720  0.00  0.00    +0.088 C 
ATOM      7  C   UNL     1      -0.399   0.984  -2.422  0.00  0.00    +0.163 C 
ATOM      8  O   UNL     1      -0.127   1.260  -1.270  0.00  0.00    -0.292 OA
ATOM      9  N   UNL     1       1.104   1.222  -5.766  0.00  0.00    -0.316 N 
ATOM     10  C   UNL     1       2.468   0.948  -5.793  0.00  0.00    +0.052 A 
ATOM     11  C   UNL     1       3.024   0.040  -6.677  0.00  0.00    +0.025 A 
ATOM     12  C   UNL     1       4.395  -0.149  -6.682  0.00  0.00    +0.002 A 
ATOM     13  C   UNL     1       5.200   0.566  -5.814  0.00  0.00    +0.002 A 
ATOM     14  C   UNL     1       4.643   1.461  -4.917  0.00  0.00    +0.025 A 
ATOM     15  C   UNL     1       3.268   1.637  -4.893  0.00  0.00    +0.049 A 
ATOM     16  N   UNL     1       2.661   2.469  -3.956  0.00  0.00    -0.331 N 
ATOM     17  H   UNL     1       0.699   1.681  -6.679  0.00  0.00    +0.152 HD
ATOM     18  H   UNL     1       2.840   3.553  -4.012  0.00  0.00    +0.147 HD
ENDROOT
BRANCH   1  20
ATOM     19  C   UNL     1       3.576   1.324  -1.252  0.00  0.00    +0.168 A 
ATOM     20  C   UNL     1       2.592   0.910  -2.135  0.00  0.00    +0.023 A 
ATOM     21  C   UNL     1       2.330  -0.438  -2.295  0.00  0.00    +0.009 A 
ATOM     22  C   UNL     1       3.048  -1.375  -1.575  0.00  0.00    +0.004 A 
ATOM     23  C   UNL     1       4.032  -0.968  -0.693  0.00  0.00    +0.049 A 
ATOM     24  C   UNL     1       4.303   0.381  -0.532  0.00  0.00    +0.162 A 
BRANCH  24  25
ATOM     25  O   UNL     1       5.274   0.782   0.331  0.00  0.00    -0.491 OA
ATOM     26  C   UNL     1       5.980  -0.241   1.036  0.00  0.00    +0.277 C 
ENDBRANCH  24  25
BRANCH  19  27
ATOM     27  O   UNL     1       3.836   2.650  -1.094  0.00  0.00    -0.485 OA
BRANCH  27  29
ATOM     28  C   UNL     1       1.934   3.966  -0.391  0.00  0.00    +0.051 C 
ATOM     29  C   UNL     1       3.243   3.296   0.035  0.00  0.00    +0.168 C 
ATOM     30  C   UNL     1       4.204   4.355   0.579  0.00  0.00    +0.051 C 
ENDBRANCH  27  29
ENDBRANCH  19  27
ENDBRANCH   1  20
BRANCH   5  31
ATOM     31  C   UNL     1      -3.419   0.025  -4.512  0.00  0.00    -0.040 A 
ATOM     32  C   UNL     1      -3.490  -1.355  -4.466  0.00  0.00    +0.008 A 
ATOM     33  C   UNL     1      -4.667  -2.001  -4.798  0.00  0.00    +0.049 A 
ATOM     34  C   UNL     1      -5.779  -1.265  -5.176  0.00  0.00    +0.161 A 
ATOM     35  C   UNL     1      -5.707   0.124  -5.221  0.00  0.00    +0.162 A 
ATOM     36  C   UNL     1      -4.526   0.765  -4.883  0.00  0.00    +0.053 A 
BRANCH  35  37
ATOM     37  O   UNL     1      -6.795   0.850  -5.592  0.00  0.00    -0.491 OA
ATOM     38  C   UNL     1      -6.649   2.272  -5.615  0.00  0.00    +0.277 C 
ENDBRANCH  35  37
BRANCH  34  39
ATOM     39  O   UNL     1      -6.937  -1.899  -5.502  0.00  0.00    -0.491 OA
ATOM     40  C   UNL     1      -6.937  -3.326  -5.433  0.00  0.00    +0.277 C 
ENDBRANCH  34  39
ENDBRANCH   5  31
TORSDOF 7
