REMARK  Name = ZINC33719563
REMARK  8 active torsions:
REMARK  status: ('A' for Active; 'I' for Inactive)
REMARK    1  A    between atoms: C_1  and  C_2
REMARK    2  A    between atoms: C_2  and  N_3
REMARK    3  A    between atoms: C_7  and  C_22
REMARK    4  A    between atoms: N_11  and  C_12
REMARK    5  A    between atoms: C_15  and  C_18
REMARK    6  A    between atoms: C_18  and  O_20
REMARK    7  A    between atoms: O_20  and  C_21
REMARK    8  A    between atoms: N_24  and  C_25
REMARK                            x       y       z     vdW  Elec       q    Type
REMARK                         _______ _______ _______ _____ _____    ______ ____
ROOT
ATOM      1  N   UNL     1       0.677  -0.465  -1.212  0.00  0.00    -0.251 N 
ATOM      2  C   UNL     1      -0.049  -0.679  -2.298  0.00  0.00    +0.223 C 
ATOM      3  O   UNL     1      -1.209  -0.331  -2.232  0.00  0.00    -0.275 OA
ATOM      4  C   UNL     1       0.369  -1.291  -3.591  0.00  0.00    +0.120 C 
ATOM      5  C   UNL     1       1.857  -1.086  -3.880  0.00  0.00    +0.149 C 
ATOM      6  S   UNL     1       2.794  -1.633  -2.414  0.00  0.00    -0.077 S 
ATOM      7  C   UNL     1       2.043  -0.654  -1.140  0.00  0.00    +0.164 C 
ATOM      8  N   UNL     1       2.756  -0.134  -0.165  0.00  0.00    -0.226 NA
ENDROOT
BRANCH   8   9
ATOM      9  C   UNL     1       4.104  -0.339  -0.121  0.00  0.00    +0.067 A 
ATOM     10  C   UNL     1       4.625  -1.617  -0.354  0.00  0.00    +0.028 A 
ATOM     11  C   UNL     1       5.973  -1.822  -0.310  0.00  0.00    +0.017 A 
ATOM     12  C   UNL     1       6.835  -0.754  -0.033  0.00  0.00    +0.059 A 
ATOM     13  C   UNL     1       6.314   0.524   0.201  0.00  0.00    +0.017 A 
ATOM     14  C   UNL     1       4.966   0.730   0.151  0.00  0.00    +0.028 A 
BRANCH  12  15
ATOM     15  C   UNL     1       8.290  -0.976   0.015  0.00  0.00    +0.339 C 
ATOM     16  O   UNL     1       8.742  -2.086  -0.186  0.00  0.00    -0.245 OA
BRANCH  15  17
ATOM     17  O   UNL     1       9.120   0.052   0.283  0.00  0.00    -0.464 OA
ATOM     18  C   UNL     1      10.519  -0.235   0.314  0.00  0.00    +0.280 C 
ENDBRANCH  15  17
ENDBRANCH  12  15
ENDBRANCH   8   9
BRANCH   5  19
ATOM     19  C   UNL     1       2.261  -1.905  -5.079  0.00  0.00    +0.231 C 
ATOM     20  O   UNL     1       1.688  -2.945  -5.324  0.00  0.00    -0.274 OA
ATOM     21  N   UNL     1       3.259  -1.481  -5.879  0.00  0.00    -0.284 N 
ATOM     22  H   UNL     1       3.673  -0.617  -5.723  0.00  0.00    +0.155 HD
BRANCH  21  23
ATOM     23  C   UNL     1       3.699  -2.286  -6.935  0.00  0.00    +0.036 A 
ATOM     24  C   UNL     1       5.044  -2.304  -7.283  0.00  0.00    +0.043 A 
ATOM     25  C   UNL     1       5.476  -3.100  -8.327  0.00  0.00    +0.044 A 
ATOM     26  C   UNL     1       4.570  -3.880  -9.025  0.00  0.00    +0.040 A 
ATOM     27  C   UNL     1       3.230  -3.864  -8.681  0.00  0.00    +0.044 A 
ATOM     28  C   UNL     1       2.793  -3.073  -7.634  0.00  0.00    +0.043 A 
ATOM     29 CL   UNL     1       2.097  -4.842  -9.559  0.00  0.00    -0.083 Cl
ATOM     30 CL   UNL     1       7.156  -3.123  -8.763  0.00  0.00    -0.083 Cl
ENDBRANCH  21  23
ENDBRANCH   5  19
BRANCH   1  32
ATOM     31  C   UNL     1      -0.041   1.541  -0.010  0.00  0.00    +0.025 C 
ATOM     32  C   UNL     1      -0.012   0.011  -0.010  0.00  0.00    +0.112 C 
ENDBRANCH   1  32
TORSDOF 6
