REMARK  Name = ZINC50696430
REMARK  2 active torsions:
REMARK  status: ('A' for Active; 'I' for Inactive)
REMARK    1  A    between atoms: C_11  and  C_13
REMARK    2  A    between atoms: C_15  and  N_20
REMARK                            x       y       z     vdW  Elec       q    Type
REMARK                         _______ _______ _______ _____ _____    ______ ____
ROOT
ATOM      1  C   UNL     1      -0.071   1.187  -0.596  0.00  0.00    +0.000 A 
ATOM      2  C   UNL     1       1.009   1.770   0.041  0.00  0.00    +0.002 A 
ATOM      3  C   UNL     1       2.245   1.156   0.004  0.00  0.00    +0.024 A 
ATOM      4  C   UNL     1       2.403  -0.049  -0.672  0.00  0.00    +0.040 A 
ATOM      5  C   UNL     1       1.319  -0.635  -1.307  0.00  0.00    -0.026 A 
ATOM      6  C   UNL     1       0.084  -0.011  -1.267  0.00  0.00    +0.005 A 
ATOM      7  C   UNL     1       1.450  -1.944  -2.040  0.00  0.00    +0.038 C 
ATOM      8  C   UNL     1       2.911  -2.210  -2.405  0.00  0.00    +0.024 C 
ATOM      9  C   UNL     1       3.774  -2.050  -1.146  0.00  0.00    +0.114 C 
ATOM     10  N   UNL     1       3.666  -0.654  -0.702  0.00  0.00    -0.267 N 
ATOM     11  C   UNL     1       4.764   0.033  -0.329  0.00  0.00    +0.251 C 
ATOM     12  O   UNL     1       4.679   1.217  -0.066  0.00  0.00    -0.270 OA
ENDROOT
BRANCH  11  13
ATOM     13  C   UNL     1       6.073  -0.654  -0.241  0.00  0.00    +0.043 A 
ATOM     14  C   UNL     1       7.265   0.049  -0.424  0.00  0.00    +0.056 A 
ATOM     15  C   UNL     1       8.471  -0.635  -0.332  0.00  0.00    +0.119 A 
ATOM     16  N   UNL     1       8.495  -1.934  -0.076  0.00  0.00    -0.221 NA
ATOM     17  C   UNL     1       7.388  -2.630   0.103  0.00  0.00    +0.132 A 
ATOM     18  C   UNL     1       6.148  -2.024   0.035  0.00  0.00    +0.053 A 
ATOM     19 CL   UNL     1       7.491  -4.330   0.435  0.00  0.00    -0.062 Cl
BRANCH  15  20
ATOM     20  N   UNL     1       9.667   0.051  -0.512  0.00  0.00    -0.343 N 
ATOM     21  H   UNL     1       9.656   1.003  -0.701  0.00  0.00    +0.144 HD
ATOM     22  H   UNL     1      10.512  -0.421  -0.449  0.00  0.00    +0.144 HD
ENDBRANCH  15  20
ENDBRANCH  11  13
TORSDOF 2
