REMARK  Name = ZINC21911879
REMARK  8 active torsions:
REMARK  status: ('A' for Active; 'I' for Inactive)
REMARK    1  A    between atoms: C_1  and  C_2
REMARK    2  A    between atoms: C_2  and  C_3
REMARK    3  A    between atoms: C_2  and  C_4
REMARK    4  A    between atoms: C_4  and  C_5
REMARK    5  A    between atoms: C_5  and  N_6
REMARK    6  A    between atoms: C_7  and  C_9
REMARK    7  A    between atoms: N_18  and  C_32
REMARK    8  A    between atoms: N_24  and  C_25
REMARK                            x       y       z     vdW  Elec       q    Type
REMARK                         _______ _______ _______ _____ _____    ______ ____
ROOT
ATOM      1  C   UNL     1      -0.017  -0.034  -0.015  0.00  0.00    +0.196 C 
ATOM      2  C   UNL     1       0.690  -0.436  -1.277  0.00  0.00    +0.021 A 
ATOM      3  C   UNL     1       2.141  -0.122  -1.383  0.00  0.00    +0.006 A 
ATOM      4  C   UNL     1       3.029   0.547  -0.540  0.00  0.00    +0.010 A 
ATOM      5  C   UNL     1       4.341   0.667  -0.909  0.00  0.00    +0.001 A 
ATOM      6  C   UNL     1       4.786   0.130  -2.109  0.00  0.00    +0.002 A 
ATOM      7  C   UNL     1       3.918  -0.531  -2.954  0.00  0.00    +0.026 A 
ATOM      8  C   UNL     1       2.580  -0.661  -2.597  0.00  0.00    +0.050 A 
ATOM      9  N   UNL     1       1.482  -1.233  -3.183  0.00  0.00    -0.338 N 
ATOM     10  C   UNL     1       0.347  -1.043  -2.384  0.00  0.00    +0.083 A 
ATOM     11  S   UNL     1      -1.206  -1.637  -3.043  0.00  0.00    -0.098 S 
ATOM     12  C   UNL     1      -2.058  -2.252  -1.555  0.00  0.00    +0.171 C 
ATOM     13  C   UNL     1      -2.072  -1.137  -0.566  0.00  0.00    +0.227 C 
ATOM     14  O   UNL     1      -3.227  -0.788  -0.435  0.00  0.00    -0.275 OA
ATOM     15  N   UNL     1      -1.393  -0.427   0.171  0.00  0.00    -0.282 N 
ATOM     16  C   UNL     1       1.493  -1.944  -4.464  0.00  0.00    +0.150 C 
ENDROOT
BRANCH  15  17
ATOM     17  C   UNL     1      -2.055   0.077   1.377  0.00  0.00    +0.077 C 
ATOM     18  C   UNL     1      -2.280   1.595   1.225  0.00  0.00    +0.022 C 
ATOM     19  C   UNL     1      -3.371   2.014   2.173  0.00  0.00    +0.002 C 
ATOM     20  C   UNL     1      -2.820   2.520   3.520  0.00  0.00    +0.000 C 
ATOM     21  C   UNL     1      -1.654   1.663   4.048  0.00  0.00    +0.000 C 
ATOM     22  C   UNL     1      -1.892   0.189   3.861  0.00  0.00    +0.002 C 
ATOM     23  C   UNL     1      -1.236  -0.249   2.535  0.00  0.00    +0.022 C 
ENDBRANCH  15  17
BRANCH   1  25
ATOM     24  N   UNL     1       0.869   2.056   0.967  0.00  0.00    -0.313 N 
ATOM     25  C   UNL     1       0.042   1.469   0.080  0.00  0.00    +0.238 C 
ATOM     26  O   UNL     1      -0.650   2.150  -0.647  0.00  0.00    -0.273 OA
ATOM     27  H   UNL     1       1.556   1.442   1.568  0.00  0.00    +0.149 HD
BRANCH  24  28
ATOM     28  C   UNL     1       0.853   3.512   1.132  0.00  0.00    +0.104 C 
BRANCH  28  29
ATOM     29  C   UNL     1       1.878   3.917   2.193  0.00  0.00    +0.022 C 
BRANCH  29  31
ATOM     30  C   UNL     1       0.506   5.872   2.925  0.00  0.00    +0.007 C 
ATOM     31  C   UNL     1       1.861   5.437   2.365  0.00  0.00    -0.016 C 
ATOM     32  C   UNL     1       2.971   5.853   3.332  0.00  0.00    +0.007 C 
ENDBRANCH  29  31
ENDBRANCH  28  29
ENDBRANCH  24  28
ENDBRANCH   1  25
TORSDOF 5
