REMARK  Name = ZINC40014682
REMARK  13 active torsions:
REMARK  status: ('A' for Active; 'I' for Inactive)
REMARK    1  A    between atoms: C_1  and  C_2
REMARK    2  A    between atoms: C_2  and  C_3
REMARK    3  A    between atoms: C_3  and  C_4
REMARK    4  A    between atoms: C_4  and  N_5
REMARK    5  A    between atoms: N_5  and  C_6
REMARK    6  A    between atoms: N_5  and  C_10
REMARK    7  A    between atoms: C_6  and  C_7
REMARK    8  A    between atoms: C_7  and  C_8
REMARK    9  A    between atoms: C_8  and  C_9
REMARK   10  A    between atoms: C_10  and  C_11
REMARK   11  A    between atoms: C_11  and  C_12
REMARK   12  A    between atoms: C_12  and  N_13
REMARK   13  A    between atoms: C_14  and  C_30
REMARK                            x       y       z     vdW  Elec       q    Type
REMARK                         _______ _______ _______ _____ _____    ______ ____
ROOT
ATOM      1  N   UNL     1       2.882  -6.492  -5.143  0.00  0.00    -0.284 N 
ATOM      2  C   UNL     1       2.402  -6.620  -6.529  0.00  0.00    +0.147 C 
ATOM      3  C   UNL     1       3.570  -7.111  -7.321  0.00  0.00    +0.072 A 
ATOM      4  C   UNL     1       3.705  -7.434  -8.745  0.00  0.00    +0.199 A 
ATOM      5  O   UNL     1       2.851  -7.170  -9.573  0.00  0.00    -0.287 OA
ATOM      6  C   UNL     1       4.981  -8.113  -9.082  0.00  0.00    +0.066 A 
ATOM      7  C   UNL     1       5.176  -8.662 -10.349  0.00  0.00    +0.035 A 
ATOM      8  C   UNL     1       6.365  -9.293 -10.643  0.00  0.00    +0.042 A 
ATOM      9  C   UNL     1       7.362  -9.381  -9.680  0.00  0.00    +0.023 A 
ATOM     10  C   UNL     1       7.182  -8.842  -8.427  0.00  0.00    +0.048 A 
ATOM     11  C   UNL     1       5.988  -8.196  -8.106  0.00  0.00    +0.140 A 
ATOM     12  O   UNL     1       5.841  -7.666  -6.870  0.00  0.00    -0.450 OA
ATOM     13  C   UNL     1       4.626  -7.245  -6.465  0.00  0.00    +0.199 A 
ATOM     14  C   UNL     1       4.181  -6.855  -5.116  0.00  0.00    +0.283 C 
ATOM     15  O   UNL     1       4.881  -6.860  -4.123  0.00  0.00    -0.267 OA
ATOM     16 CL   UNL     1       6.617  -9.979 -12.218  0.00  0.00    -0.084 Cl
ENDROOT
BRANCH   2  17
ATOM     17  C   UNL     1       1.272  -7.614  -6.598  0.00  0.00    +0.013 A 
ATOM     18  C   UNL     1       1.099  -8.536  -5.583  0.00  0.00    +0.008 A 
ATOM     19  C   UNL     1       0.062  -9.448  -5.646  0.00  0.00    +0.001 A 
ATOM     20  C   UNL     1      -0.804  -9.439  -6.724  0.00  0.00    +0.003 A 
ATOM     21  C   UNL     1      -0.633  -8.518  -7.740  0.00  0.00    +0.039 A 
ATOM     22  C   UNL     1       0.402  -7.601  -7.675  0.00  0.00    +0.129 A 
ATOM     23  F   UNL     1       0.567  -6.696  -8.665  0.00  0.00    -0.205 F 
ENDBRANCH   2  17
BRANCH   1  24
ATOM     24  C   UNL     1       2.089  -6.044  -3.996  0.00  0.00    +0.107 C 
BRANCH  24  25
ATOM     25  C   UNL     1       2.200  -4.524  -3.863  0.00  0.00    +0.000 C 
BRANCH  25  26
ATOM     26  C   UNL     1       1.372  -4.055  -2.665  0.00  0.00    -0.077 C 
BRANCH  26  27
ATOM     27  N   UNL     1       1.561  -2.611  -2.473  0.00  0.00    +0.380 N 
ATOM     28  H   UNL     1       2.546  -2.409  -2.390  0.00  0.00    -0.082 HD
BRANCH  27  29
ATOM     29  C   UNL     1       1.008  -1.888  -3.626  0.00  0.00    -0.079 C 
BRANCH  29  30
ATOM     30  C   UNL     1       1.315  -0.395  -3.487  0.00  0.00    -0.019 C 
BRANCH  30  32
ATOM     31  C   UNL     1       1.045   1.850  -4.549  0.00  0.00    +0.004 C 
ATOM     32  C   UNL     1       0.739   0.358  -4.688  0.00  0.00    -0.005 C 
ENDBRANCH  30  32
ENDBRANCH  29  30
ENDBRANCH  27  29
BRANCH  27  33
ATOM     33  C   UNL     1       0.869  -2.184  -1.250  0.00  0.00    -0.079 C 
BRANCH  33  34
ATOM     34  C   UNL     1       1.550  -2.812  -0.033  0.00  0.00    -0.019 C 
BRANCH  34  35
ATOM     35  C   UNL     1       0.801  -2.406   1.238  0.00  0.00    -0.005 C 
ATOM     36  C   UNL     1       1.483  -3.034   2.455  0.00  0.00    +0.004 C 
ENDBRANCH  34  35
ENDBRANCH  33  34
ENDBRANCH  27  33
ENDBRANCH  26  27
ENDBRANCH  25  26
ENDBRANCH  24  25
ENDBRANCH   1  24
TORSDOF 11
