REMARK  Name = ZINC09337551
REMARK  10 active torsions:
REMARK  status: ('A' for Active; 'I' for Inactive)
REMARK    1  A    between atoms: C_1  and  C_2
REMARK    2  A    between atoms: C_2  and  C_4
REMARK    3  A    between atoms: C_2  and  N_14
REMARK    4  A    between atoms: C_15  and  C_17
REMARK    5  A    between atoms: C_17  and  S_18
REMARK    6  A    between atoms: S_18  and  C_19
REMARK    7  A    between atoms: C_22  and  C_24
REMARK    8  A    between atoms: C_24  and  C_26
REMARK    9  A    between atoms: C_24  and  O_27
REMARK   10  A    between atoms: O_27  and  C_28
REMARK                            x       y       z     vdW  Elec       q    Type
REMARK                         _______ _______ _______ _____ _____    ______ ____
ROOT
ATOM      1  C   UNL     1       6.665   4.932   1.591  0.00  0.00    +0.174 C 
ENDROOT
BRANCH   1   3
ATOM      2  N   UNL     1       4.394   4.674   0.646  0.00  0.00    -0.308 N 
ATOM      3  C   UNL     1       5.477   4.093   1.197  0.00  0.00    +0.224 C 
ATOM      4  O   UNL     1       5.497   2.893   1.376  0.00  0.00    -0.275 OA
ATOM      5  H   UNL     1       4.378   5.633   0.503  0.00  0.00    +0.149 HD
BRANCH   2   7
ATOM      6  C   UNL     1       3.422   3.357  -1.171  0.00  0.00    +0.033 C 
ATOM      7  C   UNL     1       3.239   3.858   0.263  0.00  0.00    +0.101 C 
BRANCH   7   8
ATOM      8  C   UNL     1       1.985   4.689   0.349  0.00  0.00    -0.020 A 
ATOM      9  C   UNL     1       2.046   6.039   0.183  0.00  0.00    +0.006 A 
ATOM     10  C   UNL     1       0.898   6.824   0.259  0.00  0.00    +0.001 A 
ATOM     11  C   UNL     1      -0.319   6.264   0.500  0.00  0.00    +0.008 A 
ATOM     12  C   UNL     1      -0.422   4.874   0.676  0.00  0.00    -0.018 A 
ATOM     13  C   UNL     1       0.746   4.075   0.600  0.00  0.00    -0.013 A 
ATOM     14  C   UNL     1       0.643   2.685   0.776  0.00  0.00    +0.009 A 
ATOM     15  C   UNL     1      -0.574   2.125   1.017  0.00  0.00    +0.001 A 
ATOM     16  C   UNL     1      -1.723   2.910   1.087  0.00  0.00    +0.001 A 
ATOM     17  C   UNL     1      -1.661   4.260   0.927  0.00  0.00    +0.008 A 
ENDBRANCH   7   8
ENDBRANCH   2   7
ENDBRANCH   1   3
BRANCH   1  18
ATOM     18  S   UNL     1       7.948   3.869   2.296  0.00  0.00    -0.056 S 
BRANCH  18  19
ATOM     19  C   UNL     1       9.181   5.075   2.658  0.00  0.00    +0.278 A 
ATOM     20  N   UNL     1       9.097   6.364   2.432  0.00  0.00    -0.101 NA
ATOM     21  N   UNL     1      10.181   6.936   2.825  0.00  0.00    -0.108 NA
ATOM     22  C   UNL     1      10.995   6.043   3.304  0.00  0.00    +0.258 A 
ATOM     23  O   UNL     1      10.386   4.845   3.211  0.00  0.00    -0.412 OA
BRANCH  22  24
ATOM     24  C   UNL     1      12.371   6.301   3.862  0.00  0.00    +0.257 C 
ATOM     25  C   UNL     1      13.345   6.573   2.713  0.00  0.00    +0.062 C 
BRANCH  24  26
ATOM     26  O   UNL     1      12.329   7.437   4.729  0.00  0.00    -0.477 OA
BRANCH  26  27
ATOM     27  C   UNL     1      13.295   7.522   5.681  0.00  0.00    +0.157 A 
ATOM     28  C   UNL     1      14.328   6.598   5.708  0.00  0.00    +0.048 A 
ATOM     29  C   UNL     1      15.310   6.687   6.676  0.00  0.00    +0.004 A 
ATOM     30  C   UNL     1      15.264   7.698   7.619  0.00  0.00    +0.003 A 
ATOM     31  C   UNL     1      14.236   8.622   7.596  0.00  0.00    +0.042 A 
ATOM     32  C   UNL     1      13.253   8.540   6.626  0.00  0.00    +0.165 A 
ATOM     33  F   UNL     1      12.251   9.446   6.599  0.00  0.00    -0.202 F 
ENDBRANCH  26  27
ENDBRANCH  24  26
ENDBRANCH  22  24
ENDBRANCH  18  19
ENDBRANCH   1  18
TORSDOF 8
