REMARK  Name = ZINC39217966
REMARK  10 active torsions:
REMARK  status: ('A' for Active; 'I' for Inactive)
REMARK    1  A    between atoms: C_1  and  C_2
REMARK    2  A    between atoms: C_8  and  C_10
REMARK    3  A    between atoms: N_12  and  C_28
REMARK    4  A    between atoms: C_13  and  C_16
REMARK    5  A    between atoms: C_18  and  O_26
REMARK    6  A    between atoms: C_19  and  O_24
REMARK    7  A    between atoms: C_20  and  O_22
REMARK    8  A    between atoms: O_22  and  C_23
REMARK    9  A    between atoms: O_24  and  C_25
REMARK   10  A    between atoms: O_26  and  C_27
REMARK                            x       y       z     vdW  Elec       q    Type
REMARK                         _______ _______ _______ _____ _____    ______ ____
ROOT
ATOM      1  C   UNL     1      -1.353  -0.691   1.919  0.00  0.00    +0.055 C 
ATOM      2  N   UNL     1      -2.385  -0.208   1.357  0.00  0.00    -0.187 NA
ATOM      3  N   UNL     1      -3.547  -0.283   2.123  0.00  0.00    -0.214 N 
ATOM      4  C   UNL     1      -3.226  -0.925   3.408  0.00  0.00    +0.134 C 
ATOM      5  C   UNL     1      -1.717  -1.222   3.287  0.00  0.00    +0.082 C 
ENDROOT
BRANCH   1  13
ATOM      6  C   UNL     1      -0.018   1.503   0.010  0.00  0.00    +0.040 C 
ATOM      7  C   UNL     1       0.002  -0.004   0.002  0.00  0.00    -0.054 C 
ATOM      8  C   UNL     1       0.005  -0.637  -1.160  0.00  0.00    +0.023 C 
ATOM      9  C   UNL     1       0.034  -2.113  -1.190  0.00  0.00    +0.026 C 
ATOM     10  N   UNL     1       0.413  -2.800  -0.030  0.00  0.00    -0.285 N 
ATOM     11  C   UNL     1       0.436  -2.165   1.152  0.00  0.00    +0.230 C 
ATOM     12  O   UNL     1       0.809  -2.774   2.133  0.00  0.00    -0.274 OA
ATOM     13  C   UNL     1       0.024  -0.735   1.310  0.00  0.00    +0.147 C 
ATOM     14  C   UNL     1      -0.295  -2.779  -2.300  0.00  0.00    +0.033 C 
ATOM     15  H   UNL     1       0.660  -3.737  -0.081  0.00  0.00    +0.155 HD
ENDBRANCH   1  13
BRANCH   3  16
ATOM     16  C   UNL     1      -4.809   0.176   1.734  0.00  0.00    +0.087 A 
ATOM     17  C   UNL     1      -5.900  -0.683   1.759  0.00  0.00    +0.028 A 
ATOM     18  C   UNL     1      -7.146  -0.226   1.375  0.00  0.00    +0.002 A 
ATOM     19  C   UNL     1      -7.309   1.085   0.966  0.00  0.00    +0.003 A 
ATOM     20  C   UNL     1      -6.225   1.944   0.939  0.00  0.00    +0.040 A 
ATOM     21  C   UNL     1      -4.976   1.496   1.327  0.00  0.00    +0.146 A 
ATOM     22  F   UNL     1      -3.919   2.337   1.306  0.00  0.00    -0.203 F 
ENDBRANCH   3  16
BRANCH   4  23
ATOM     23  C   UNL     1      -4.006  -2.204   3.573  0.00  0.00    -0.018 A 
ATOM     24  C   UNL     1      -4.207  -3.034   2.486  0.00  0.00    +0.055 A 
ATOM     25  C   UNL     1      -4.925  -4.212   2.634  0.00  0.00    +0.165 A 
ATOM     26  C   UNL     1      -5.442  -4.556   3.877  0.00  0.00    +0.204 A 
ATOM     27  C   UNL     1      -5.238  -3.719   4.967  0.00  0.00    +0.165 A 
ATOM     28  C   UNL     1      -4.514  -2.546   4.812  0.00  0.00    +0.055 A 
BRANCH  27  29
ATOM     29  O   UNL     1      -5.742  -4.052   6.185  0.00  0.00    -0.491 OA
ATOM     30  C   UNL     1      -5.493  -3.145   7.261  0.00  0.00    +0.277 C 
ENDBRANCH  27  29
BRANCH  26  31
ATOM     31  O   UNL     1      -6.147  -5.711   4.026  0.00  0.00    -0.488 OA
ATOM     32  C   UNL     1      -5.407  -6.883   4.372  0.00  0.00    +0.277 C 
ENDBRANCH  26  31
BRANCH  25  33
ATOM     33  O   UNL     1      -5.122  -5.027   1.564  0.00  0.00    -0.491 OA
ATOM     34  C   UNL     1      -4.562  -4.609   0.317  0.00  0.00    +0.277 C 
ENDBRANCH  25  33
ENDBRANCH   4  23
TORSDOF 6
