REMARK  Name = ZINC08499895
REMARK  5 active torsions:
REMARK  status: ('A' for Active; 'I' for Inactive)
REMARK    1  A    between atoms: C_1  and  C_2
REMARK    2  A    between atoms: C_2  and  C_4
REMARK    3  A    between atoms: C_2  and  S_20
REMARK    4  A    between atoms: N_9  and  C_10
REMARK    5  A    between atoms: S_20  and  C_21
REMARK                            x       y       z     vdW  Elec       q    Type
REMARK                         _______ _______ _______ _____ _____    ______ ____
ROOT
ATOM      1  C   UNL     1       0.002  -0.004   0.002  0.00  0.00    +0.233 C 
ATOM      2  O   UNL     1      -1.040  -0.625   0.009  0.00  0.00    -0.274 OA
ATOM      3  N   UNL     1      -0.016   1.344   0.009  0.00  0.00    -0.239 N 
ATOM      4  C   UNL     1      -1.192   2.002   0.019  0.00  0.00    +0.306 C 
ATOM      5  O   UNL     1      -2.237   1.380   0.020  0.00  0.00    -0.252 OA
ATOM      6  N   UNL     1      -1.211   3.349   0.026  0.00  0.00    -0.294 N 
ATOM      7  H   UNL     1       0.817   1.840   0.004  0.00  0.00    +0.159 HD
ATOM      8  H   UNL     1      -0.377   3.845   0.025  0.00  0.00    +0.151 HD
ENDROOT
BRANCH   6   9
ATOM      9  C   UNL     1      -2.489   4.064   0.036  0.00  0.00    +0.037 C 
ATOM     10  C   UNL     1      -3.292   3.691  -1.212  0.00  0.00    +0.029 C 
ATOM     11  C   UNL     1      -4.628   4.438  -1.201  0.00  0.00    -0.008 C 
ATOM     12  C   UNL     1      -4.369   5.945  -1.194  0.00  0.00    +0.007 C 
ATOM     13  C   UNL     1      -3.565   6.319   0.053  0.00  0.00    -0.008 C 
ATOM     14  C   UNL     1      -2.230   5.572   0.043  0.00  0.00    +0.029 C 
ATOM     15  C   UNL     1      -4.357   5.932   1.304  0.00  0.00    +0.007 C 
ATOM     16  C   UNL     1      -4.616   4.424   1.297  0.00  0.00    -0.008 C 
ATOM     17  C   UNL     1      -5.419   4.050   0.050  0.00  0.00    +0.007 C 
ATOM     18  C   UNL     1      -3.280   3.677   1.287  0.00  0.00    +0.029 C 
ENDBRANCH   6   9
BRANCH   1  20
ATOM     19  C   UNL     1       1.837  -0.887   1.417  0.00  0.00    +0.029 C 
ATOM     20  C   UNL     1       1.317  -0.740  -0.015  0.00  0.00    +0.137 C 
BRANCH  20  21
ATOM     21  S   UNL     1       1.082  -2.380  -0.742  0.00  0.00    -0.074 S 
BRANCH  21  22
ATOM     22  C   UNL     1       2.752  -2.942  -0.777  0.00  0.00    +0.189 A 
ATOM     23  N   UNL     1       3.711  -2.147  -0.326  0.00  0.00    -0.230 NA
ATOM     24  C   UNL     1       4.974  -2.540  -0.333  0.00  0.00    +0.115 A 
ATOM     25  C   UNL     1       5.288  -3.796  -0.829  0.00  0.00    +0.039 A 
ATOM     26  C   UNL     1       4.261  -4.600  -1.298  0.00  0.00    +0.115 A 
ATOM     27  N   UNL     1       3.019  -4.148  -1.258  0.00  0.00    -0.230 NA
ENDBRANCH  21  22
ENDBRANCH  20  21
ENDBRANCH   1  20
TORSDOF 4
