REMARK  Name = ZINC61759391
REMARK  6 active torsions:
REMARK  status: ('A' for Active; 'I' for Inactive)
REMARK    1  A    between atoms: C_4  and  C_7
REMARK    2  A    between atoms: C_4  and  N_20
REMARK    3  A    between atoms: C_7  and  N_8
REMARK    4  A    between atoms: C_9  and  C_11
REMARK    5  A    between atoms: C_11  and  N_12
REMARK    6  A    between atoms: C_16  and  C_17
REMARK                            x       y       z     vdW  Elec       q    Type
REMARK                         _______ _______ _______ _____ _____    ______ ____
ROOT
ATOM      1  N   UNL     1       4.241   0.344  -0.081  0.00  0.00    -0.315 N 
ATOM      2  C   UNL     1       5.022   0.298  -1.178  0.00  0.00    +0.197 C 
ATOM      3  O   UNL     1       4.630  -0.265  -2.178  0.00  0.00    -0.278 OA
ATOM      4  H   UNL     1       4.555   0.795   0.719  0.00  0.00    +0.149 HD
ENDROOT
BRANCH   1   5
ATOM      5  C   UNL     1       2.918  -0.284  -0.096  0.00  0.00    +0.126 C 
BRANCH   5   9
ATOM      6  C   UNL     1      -0.272   1.212   0.174  0.00  0.00    +0.000 C 
ATOM      7  C   UNL     1       1.058   1.967   0.139  0.00  0.00    +0.002 C 
ATOM      8  C   UNL     1       1.929   1.523   1.317  0.00  0.00    +0.024 C 
ATOM      9  C   UNL     1       2.193   0.020   1.217  0.00  0.00    +0.038 C 
ATOM     10  C   UNL     1       0.863  -0.736   1.252  0.00  0.00    +0.024 C 
ATOM     11  C   UNL     1      -0.007  -0.292   0.074  0.00  0.00    +0.002 C 
BRANCH   9  12
ATOM     12  N   UNL     1       3.029  -0.407   2.347  0.00  0.00    -0.291 NA
ATOM     13  C   UNL     1       3.366  -1.834   2.244  0.00  0.00    +0.113 C 
ATOM     14  C   UNL     1       4.284  -2.221   3.406  0.00  0.00    +0.175 C 
ATOM     15  O   UNL     1       3.638  -1.905   4.643  0.00  0.00    -0.377 OA
ATOM     16  C   UNL     1       3.296  -0.523   4.777  0.00  0.00    +0.175 C 
ATOM     17  C   UNL     1       2.368  -0.119   3.628  0.00  0.00    +0.113 C 
ENDBRANCH   9  12
ENDBRANCH   5   9
ENDBRANCH   1   5
BRANCH   2  18
ATOM     18  C   UNL     1       6.383   0.945  -1.162  0.00  0.00    +0.020 C 
BRANCH  18  19
ATOM     19  N   UNL     1       7.030   0.756  -2.467  0.00  0.00    +0.393 N 
ATOM     20  C   UNL     1       6.325   1.547  -3.508  0.00  0.00    -0.077 C 
ATOM     21  C   UNL     1       7.394   1.704  -4.619  0.00  0.00    -0.020 C 
ATOM     22  C   UNL     1       8.702   1.888  -3.816  0.00  0.00    -0.008 C 
ATOM     23  C   UNL     1       8.413   1.279  -2.431  0.00  0.00    +0.020 C 
ATOM     24  H   UNL     1       7.035  -0.222  -2.716  0.00  0.00    -0.080 HD
BRANCH  23  25
ATOM     25  C   UNL     1       9.380   0.157  -2.152  0.00  0.00    +0.197 C 
ATOM     26  O   UNL     1       8.968  -0.973  -1.996  0.00  0.00    -0.278 OA
ATOM     27  N   UNL     1      10.701   0.410  -2.075  0.00  0.00    -0.331 N 
ATOM     28  H   UNL     1      11.030   1.314  -2.200  0.00  0.00    +0.145 HD
ATOM     29  H   UNL     1      11.323  -0.312  -1.895  0.00  0.00    +0.145 HD
ENDBRANCH  23  25
ENDBRANCH  18  19
ENDBRANCH   2  18
TORSDOF 6
