REMARK  Name = ZINC62158775
REMARK  5 active torsions:
REMARK  status: ('A' for Active; 'I' for Inactive)
REMARK    1  A    between atoms: C_1  and  C_2
REMARK    2  A    between atoms: C_6  and  C_12
REMARK    3  A    between atoms: C_12  and  N_13
REMARK    4  A    between atoms: N_13  and  S_14
REMARK    5  A    between atoms: S_14  and  C_17
REMARK                            x       y       z     vdW  Elec       q    Type
REMARK                         _______ _______ _______ _____ _____    ______ ____
ROOT
ATOM      1  S   UNL     1       1.802  -7.855  -1.969  0.00  0.00    +0.059 S 
ATOM      2  O   UNL     1       3.209  -7.930  -2.154  0.00  0.00    -0.153 OA
ATOM      3  O   UNL     1       1.110  -8.685  -1.047  0.00  0.00    -0.153 OA
ENDROOT
BRANCH   1   4
ATOM      4  C   UNL     1       1.071  -8.136  -3.548  0.00  0.00    +0.107 A 
ATOM      5  C   UNL     1      -0.229  -8.605  -3.631  0.00  0.00    +0.030 A 
ATOM      6  C   UNL     1      -0.811  -8.829  -4.864  0.00  0.00    +0.030 A 
ATOM      7  C   UNL     1      -0.089  -8.583  -6.022  0.00  0.00    +0.067 A 
ATOM      8  C   UNL     1       1.222  -8.111  -5.938  0.00  0.00    +0.069 A 
ATOM      9  C   UNL     1       1.796  -7.884  -4.696  0.00  0.00    +0.056 A 
ATOM     10  N   UNL     1       1.681  -7.960  -7.244  0.00  0.00    -0.306 N 
ATOM     11  H   UNL     1       2.561  -7.647  -7.504  0.00  0.00    +0.170 HD
ATOM     12  C   UNL     1       0.694  -8.325  -8.085  0.00  0.00    +0.325 A 
ATOM     13  O   UNL     1       0.767  -8.312  -9.299  0.00  0.00    -0.247 OA
ATOM     14  N   UNL     1      -0.387  -8.705  -7.377  0.00  0.00    -0.306 N 
ATOM     15  H   UNL     1      -1.229  -9.012  -7.748  0.00  0.00    +0.170 HD
ENDBRANCH   1   4
BRANCH   1  16
ATOM     16  N   UNL     1       1.464  -6.290  -1.545  0.00  0.00    -0.186 NA
ATOM     17  H   UNL     1       2.183  -5.646  -1.455  0.00  0.00    +0.148 HD
BRANCH  16  18
ATOM     18  C   UNL     1       0.078  -5.880  -1.306  0.00  0.00    +0.141 C 
BRANCH  18  24
ATOM     19  C   UNL     1      -0.018   1.503   0.010  0.00  0.00    +0.063 C 
ATOM     20  C   UNL     1       0.002  -0.004   0.002  0.00  0.00    +0.014 A 
ATOM     21  C   UNL     1       0.007  -0.769  -1.101  0.00  0.00    +0.030 A 
ATOM     22  C   UNL     1       0.029  -2.164  -0.655  0.00  0.00    +0.000 A 
ATOM     23  C   UNL     1       0.043  -3.394  -1.316  0.00  0.00    +0.015 A 
ATOM     24  C   UNL     1       0.063  -4.552  -0.593  0.00  0.00    -0.031 A 
ATOM     25  C   UNL     1       0.070  -4.517   0.795  0.00  0.00    +0.007 A 
ATOM     26  C   UNL     1       0.056  -3.315   1.468  0.00  0.00    +0.026 A 
ATOM     27  C   UNL     1       0.036  -2.122   0.751  0.00  0.00    +0.047 A 
ATOM     28  N   UNL     1       0.024  -0.795   1.118  0.00  0.00    -0.358 N 
ATOM     29  H   UNL     1       0.029  -0.470   2.032  0.00  0.00    +0.166 HD
ENDBRANCH  18  24
ENDBRANCH  16  18
ENDBRANCH   1  16
TORSDOF 4
