REMARK  Name = ZINC21242216
REMARK  7 active torsions:
REMARK  status: ('A' for Active; 'I' for Inactive)
REMARK    1  A    between atoms: C_1  and  O_2
REMARK    2  A    between atoms: O_2  and  C_3
REMARK    3  A    between atoms: C_7  and  C_9
REMARK    4  A    between atoms: C_14  and  C_24
REMARK    5  A    between atoms: C_26  and  O_32
REMARK    6  A    between atoms: C_27  and  O_31
REMARK    7  A    between atoms: O_32  and  C_33
REMARK                            x       y       z     vdW  Elec       q    Type
REMARK                         _______ _______ _______ _____ _____    ______ ____
ROOT
ATOM      1  C   UNL     1       2.047   1.833   0.894  0.00  0.00    +0.032 C 
ATOM      2  C   UNL     1       2.358   0.595   0.054  0.00  0.00    +0.059 C 
ATOM      3  C   UNL     1       1.154  -0.334   0.037  0.00  0.00    +0.017 C 
ATOM      4  C   UNL     1      -0.091   0.168   0.081  0.00  0.00    +0.036 C 
ATOM      5  C   UNL     1      -1.371  -0.632   0.033  0.00  0.00    +0.136 C 
ATOM      6  N   UNL     1      -1.192  -2.059   0.198  0.00  0.00    -0.331 N 
ATOM      7  C   UNL     1      -0.488  -2.811  -0.741  0.00  0.00    +0.049 A 
ATOM      8  C   UNL     1      -1.112  -3.788  -1.501  0.00  0.00    +0.025 A 
ATOM      9  C   UNL     1      -0.383  -4.478  -2.454  0.00  0.00    +0.002 A 
ATOM     10  C   UNL     1       0.956  -4.195  -2.650  0.00  0.00    +0.002 A 
ATOM     11  C   UNL     1       1.587  -3.231  -1.881  0.00  0.00    +0.025 A 
ATOM     12  C   UNL     1       0.864  -2.555  -0.914  0.00  0.00    +0.052 A 
ATOM     13  N   UNL     1       1.458  -1.653  -0.039  0.00  0.00    -0.316 N 
ATOM     14  C   UNL     1      -0.294   1.565   0.178  0.00  0.00    +0.163 C 
ATOM     15  O   UNL     1      -1.432   1.992   0.192  0.00  0.00    -0.292 OA
ATOM     16  C   UNL     1       0.844   2.538   0.258  0.00  0.00    +0.088 C 
ATOM     17  H   UNL     1      -1.614  -2.568   1.077  0.00  0.00    +0.147 HD
ATOM     18  H   UNL     1       2.226  -2.080   0.624  0.00  0.00    +0.152 HD
ENDROOT
BRANCH   5  19
ATOM     19  C   UNL     1      -2.040  -0.385  -1.295  0.00  0.00    -0.018 A 
ATOM     20  C   UNL     1      -3.281   0.222  -1.340  0.00  0.00    +0.055 A 
ATOM     21  C   UNL     1      -3.895   0.455  -2.560  0.00  0.00    +0.163 A 
ATOM     22  C   UNL     1      -3.264   0.066  -3.739  0.00  0.00    +0.173 A 
ATOM     23  C   UNL     1      -2.023  -0.547  -3.687  0.00  0.00    +0.063 A 
ATOM     24  C   UNL     1      -1.413  -0.772  -2.465  0.00  0.00    +0.025 A 
ATOM     25 BR   UNL     1      -1.162  -1.077  -5.285  0.00  0.00    -0.046 Br
BRANCH  22  26
ATOM     26  O   UNL     1      -3.865   0.288  -4.938  0.00  0.00    -0.503 OA
ATOM     27  H   UNL     1      -3.366  -0.019  -5.869  0.00  0.00    +0.292 HD
ENDBRANCH  22  26
BRANCH  21  28
ATOM     28  O   UNL     1      -5.113   1.058  -2.606  0.00  0.00    -0.491 OA
ATOM     29  C   UNL     1      -5.700   1.429  -1.358  0.00  0.00    +0.277 C 
ENDBRANCH  21  28
ENDBRANCH   5  19
BRANCH   1  34
ATOM     30  C   UNL     1       4.945   3.936   2.101  0.00  0.00    +0.120 A 
ATOM     31  C   UNL     1       5.423   4.456   0.907  0.00  0.00    +0.045 A 
ATOM     32  C   UNL     1       4.807   4.125  -0.285  0.00  0.00    +0.004 A 
ATOM     33  C   UNL     1       3.715   3.277  -0.288  0.00  0.00    +0.004 A 
ATOM     34  C   UNL     1       3.237   2.757   0.901  0.00  0.00    -0.040 A 
ATOM     35  C   UNL     1       3.847   3.088   2.096  0.00  0.00    +0.049 A 
BRANCH  30  37
ATOM     36  C   UNL     1       6.671   5.142   3.205  0.00  0.00    +0.277 C 
ATOM     37  O   UNL     1       5.549   4.260   3.275  0.00  0.00    -0.495 OA
ENDBRANCH  30  37
ENDBRANCH   1  34
TORSDOF 5
