REMARK  Name = ZINC24807753
REMARK  10 active torsions:
REMARK  status: ('A' for Active; 'I' for Inactive)
REMARK    1  A    between atoms: C_1  and  C_2
REMARK    2  A    between atoms: C_3  and  N_15
REMARK    3  A    between atoms: N_6  and  C_9
REMARK    4  A    between atoms: N_7  and  C_8
REMARK    5  A    between atoms: C_16  and  C_18
REMARK    6  A    between atoms: C_18  and  C_20
REMARK    7  A    between atoms: C_18  and  N_21
REMARK    8  A    between atoms: N_21  and  C_22
REMARK    9  A    between atoms: C_22  and  C_24
REMARK   10  A    between atoms: C_22  and  C_25
REMARK                            x       y       z     vdW  Elec       q    Type
REMARK                         _______ _______ _______ _____ _____    ______ ____
ROOT
ATOM      1  N   UNL     1      -0.862   4.451  -0.167  0.00  0.00    -0.281 N 
ATOM      2  C   UNL     1      -2.109   4.956  -0.097  0.00  0.00    +0.203 C 
ATOM      3  O   UNL     1      -3.067   4.212  -0.125  0.00  0.00    -0.277 OA
ATOM      4  H   UNL     1       0.003   5.128  -0.226  0.00  0.00    +0.155 HD
ENDROOT
BRANCH   1   7
ATOM      5  C   UNL     1       0.959   2.946   1.792  0.00  0.00    +0.067 C 
ATOM      6  C   UNL     1       0.127   2.359   0.680  0.00  0.00    +0.059 A 
ATOM      7  C   UNL     1      -0.665   3.056  -0.165  0.00  0.00    +0.121 A 
ATOM      8  C   UNL     1      -1.276   2.092  -1.081  0.00  0.00    +0.293 A 
ATOM      9  O   UNL     1      -2.049   2.343  -1.988  0.00  0.00    -0.264 OA
ATOM     10  N   UNL     1      -0.822   0.872  -0.727  0.00  0.00    -0.216 N 
ATOM     11  N   UNL     1       0.048   1.030   0.358  0.00  0.00    -0.282 N 
ATOM     12  C   UNL     1       0.761  -0.053   1.040  0.00  0.00    +0.171 C 
BRANCH  10  13
ATOM     13  C   UNL     1      -1.156  -0.339  -1.341  0.00  0.00    +0.067 A 
ATOM     14  C   UNL     1      -2.489  -0.663  -1.561  0.00  0.00    +0.028 A 
ATOM     15  C   UNL     1      -2.816  -1.857  -2.173  0.00  0.00    +0.002 A 
ATOM     16  C   UNL     1      -1.819  -2.735  -2.557  0.00  0.00    +0.000 A 
ATOM     17  C   UNL     1      -0.491  -2.418  -2.335  0.00  0.00    +0.002 A 
ATOM     18  C   UNL     1      -0.157  -1.223  -1.728  0.00  0.00    +0.028 A 
ENDBRANCH  10  13
ENDBRANCH   1   7
BRANCH   2  19
ATOM     19  C   UNL     1      -2.315   6.444   0.016  0.00  0.00    +0.014 C 
ATOM     20  C   UNL     1      -1.636   6.958   1.288  0.00  0.00    -0.004 C 
BRANCH  19  21
ATOM     21  N   UNL     1      -3.753   6.737   0.076  0.00  0.00    +0.391 N 
ATOM     22  H   UNL     1      -4.298   6.032  -0.569  0.00  0.00    -0.084 HD
ATOM     23  H   UNL     1      -4.106   6.633   1.113  0.00  0.00    -0.084 HD
BRANCH  21  24
ATOM     24  C   UNL     1      -4.031   8.105  -0.380  0.00  0.00    -0.042 C 
ATOM     25  C   UNL     1      -5.398   8.550   0.145  0.00  0.00    -0.009 C 
BRANCH  24  26
ATOM     26  C   UNL     1      -4.036   8.141  -1.887  0.00  0.00    -0.043 A 
ATOM     27  C   UNL     1      -4.330   6.997  -2.604  0.00  0.00    +0.005 A 
ATOM     28  C   UNL     1      -4.334   7.029  -3.986  0.00  0.00    +0.020 A 
ATOM     29  C   UNL     1      -4.044   8.207  -4.652  0.00  0.00    +0.042 A 
ATOM     30  C   UNL     1      -3.750   9.352  -3.935  0.00  0.00    +0.040 A 
ATOM     31  C   UNL     1      -3.752   9.321  -2.551  0.00  0.00    +0.044 A 
ATOM     32 CL   UNL     1      -3.390  10.760  -1.650  0.00  0.00    -0.083 Cl
ATOM     33 CL   UNL     1      -4.050   8.247  -6.388  0.00  0.00    -0.083 Cl
ENDBRANCH  24  26
ENDBRANCH  21  24
ENDBRANCH  19  21
ENDBRANCH   2  19
TORSDOF 6
