REMARK  Name = ZINC35355670
REMARK  3 active torsions:
REMARK  status: ('A' for Active; 'I' for Inactive)
REMARK    1  A    between atoms: C_1  and  C_2
REMARK    2  A    between atoms: N_5  and  C_8
REMARK    3  A    between atoms: C_13  and  N_14
REMARK                            x       y       z     vdW  Elec       q    Type
REMARK                         _______ _______ _______ _____ _____    ______ ____
ROOT
ATOM      1  C   UNL     1      -1.081  -3.496   1.982  0.00  0.00    +0.052 A 
ATOM      2  C   UNL     1      -0.922  -4.851   1.738  0.00  0.00    +0.048 A 
ATOM      3  C   UNL     1      -1.422  -5.781   2.639  0.00  0.00    +0.038 A 
ATOM      4  C   UNL     1      -2.080  -5.354   3.785  0.00  0.00    -0.024 A 
ATOM      5  C   UNL     1      -2.240  -4.004   4.031  0.00  0.00    +0.030 A 
ATOM      6  C   UNL     1      -1.738  -3.071   3.136  0.00  0.00    +0.046 A 
ATOM      7  C   UNL     1      -2.619  -6.368   4.761  0.00  0.00    +0.046 C 
ATOM      8  C   UNL     1      -3.095  -7.607   4.001  0.00  0.00    +0.101 C 
ATOM      9  C   UNL     1      -2.035  -8.051   3.030  0.00  0.00    +0.218 C 
ATOM     10  O   UNL     1      -1.875  -9.235   2.818  0.00  0.00    -0.275 OA
ATOM     11  N   UNL     1      -1.262  -7.151   2.395  0.00  0.00    -0.285 N 
ATOM     12  H   UNL     1      -0.591  -7.453   1.763  0.00  0.00    +0.155 HD
ENDROOT
BRANCH   1  17
ATOM     13  C   UNL     1      -0.019   1.526   0.010  0.00  0.00    +0.007 C 
ATOM     14  C   UNL     1       0.002  -0.004   0.002  0.00  0.00    -0.011 C 
ATOM     15  C   UNL     1      -1.434  -0.533   0.011  0.00  0.00    +0.022 C 
ATOM     16  C   UNL     1      -1.409  -2.065  -0.032  0.00  0.00    +0.105 C 
ATOM     17  N   UNL     1      -0.578  -2.556   1.075  0.00  0.00    -0.328 N 
ATOM     18  C   UNL     1       0.791  -2.042   1.212  0.00  0.00    +0.105 C 
ATOM     19  C   UNL     1       0.742  -0.511   1.242  0.00  0.00    +0.022 C 
ENDBRANCH   1  17
BRANCH   6  20
ATOM     20  N   UNL     1      -1.896  -1.700   3.390  0.00  0.00    -0.357 N 
ATOM     21  H   UNL     1      -1.548  -1.048   2.762  0.00  0.00    +0.142 HD
ATOM     22  H   UNL     1      -2.353  -1.405   4.193  0.00  0.00    +0.142 HD
ENDBRANCH   6  20
TORSDOF 2
