REMARK  Name = ZINC12473562
REMARK  9 active torsions:
REMARK  status: ('A' for Active; 'I' for Inactive)
REMARK    1  A    between atoms: C_5  and  N_7
REMARK    2  A    between atoms: N_7  and  C_8
REMARK    3  A    between atoms: C_8  and  C_9
REMARK    4  A    between atoms: N_11  and  C_12
REMARK    5  A    between atoms: C_18  and  C_20
REMARK    6  A    between atoms: C_20  and  S_21
REMARK    7  A    between atoms: S_21  and  C_23
REMARK    8  A    between atoms: C_23  and  C_24
REMARK    9  A    between atoms: N_26  and  C_27
REMARK                            x       y       z     vdW  Elec       q    Type
REMARK                         _______ _______ _______ _____ _____    ______ ____
ROOT
ATOM      1  N   UNL     1       0.475  -0.143   2.460  0.00  0.00    -0.262 N 
ATOM      2  C   UNL     1       1.796   0.104   2.572  0.00  0.00    +0.233 C 
ATOM      3  O   UNL     1       2.586  -0.816   2.586  0.00  0.00    -0.274 OA
ENDROOT
BRANCH   1   8
ATOM      4  C   UNL     1      -1.616   2.616   1.241  0.00  0.00    +0.002 A 
ATOM      5  C   UNL     1      -2.229   3.009   2.413  0.00  0.00    +0.004 A 
ATOM      6  C   UNL     1      -1.952   2.361   3.610  0.00  0.00    -0.042 A 
ATOM      7  C   UNL     1      -1.058   1.315   3.629  0.00  0.00    -0.023 A 
ATOM      8  C   UNL     1      -0.436   0.918   2.445  0.00  0.00    +0.040 A 
ATOM      9  C   UNL     1      -0.716   1.569   1.253  0.00  0.00    +0.024 A 
ATOM     10  C   UNL     1      -0.715   0.563   4.888  0.00  0.00    +0.037 C 
ATOM     11  C   UNL     1      -1.123   1.366   6.121  0.00  0.00    +0.005 C 
ATOM     12  C   UNL     1      -2.585   1.796   5.956  0.00  0.00    +0.005 C 
ATOM     13  C   UNL     1      -2.655   2.848   4.850  0.00  0.00    +0.035 C 
ENDBRANCH   1   8
BRANCH   1  14
ATOM     14  C   UNL     1      -0.005  -1.523   2.354  0.00  0.00    +0.209 C 
BRANCH  14  15
ATOM     15  C   UNL     1       0.054  -1.967   0.915  0.00  0.00    +0.231 C 
ATOM     16  O   UNL     1       0.541  -1.239   0.076  0.00  0.00    -0.274 OA
ATOM     17  N   UNL     1      -0.436  -3.171   0.560  0.00  0.00    -0.311 N 
ATOM     18  H   UNL     1      -0.826  -3.753   1.231  0.00  0.00    +0.149 HD
BRANCH  17  19
ATOM     19  C   UNL     1      -0.379  -3.602  -0.839  0.00  0.00    +0.073 C 
ATOM     20  C   UNL     1      -1.591  -3.051  -1.592  0.00  0.00    +0.022 C 
ATOM     21  C   UNL     1      -1.531  -3.501  -3.053  0.00  0.00    +0.002 C 
ATOM     22  C   UNL     1      -1.543  -5.030  -3.117  0.00  0.00    +0.000 C 
ATOM     23  C   UNL     1      -0.330  -5.580  -2.364  0.00  0.00    +0.002 C 
ATOM     24  C   UNL     1      -0.390  -5.131  -0.903  0.00  0.00    +0.022 C 
ENDBRANCH  17  19
ENDBRANCH  14  15
ENDBRANCH   1  14
BRANCH   2  25
ATOM     25  C   UNL     1       2.290   1.523   2.682  0.00  0.00    +0.200 C 
BRANCH  25  26
ATOM     26  S   UNL     1       4.099   1.525   2.819  0.00  0.00    +0.040 S 
ATOM     27  O   UNL     1       4.664   0.980   1.634  0.00  0.00    -0.256 OA
BRANCH  26  28
ATOM     28  C   UNL     1       4.528   3.283   2.940  0.00  0.00    +0.200 C 
BRANCH  28  29
ATOM     29  C   UNL     1       6.023   3.428   3.060  0.00  0.00    +0.230 C 
ATOM     30  O   UNL     1       6.730   2.442   3.064  0.00  0.00    -0.274 OA
ATOM     31  N   UNL     1       6.575   4.653   3.164  0.00  0.00    -0.285 N 
ATOM     32  H   UNL     1       6.018   5.444   3.094  0.00  0.00    +0.155 HD
BRANCH  31  33
ATOM     33  C   UNL     1       7.954   4.784   3.373  0.00  0.00    +0.034 A 
ATOM     34  C   UNL     1       8.442   5.820   4.158  0.00  0.00    +0.026 A 
ATOM     35  C   UNL     1       9.802   5.945   4.368  0.00  0.00    +0.040 A 
ATOM     36  C   UNL     1      10.678   5.044   3.786  0.00  0.00    +0.124 A 
ATOM     37  C   UNL     1      10.193   4.013   2.999  0.00  0.00    +0.040 A 
ATOM     38  C   UNL     1       8.834   3.882   2.791  0.00  0.00    +0.026 A 
ATOM     39  F   UNL     1      12.008   5.170   3.989  0.00  0.00    -0.205 F 
ENDBRANCH  31  33
ENDBRANCH  28  29
ENDBRANCH  26  28
ENDBRANCH  25  26
ENDBRANCH   2  25
TORSDOF 9
