REMARK  Name = ZINC38705797
REMARK  16 active torsions:
REMARK  status: ('A' for Active; 'I' for Inactive)
REMARK    1  A    between atoms: C_1  and  C_2
REMARK    2  A    between atoms: C_2  and  C_3
REMARK    3  A    between atoms: C_3  and  O_4
REMARK    4  A    between atoms: O_4  and  C_5
REMARK    5  A    between atoms: C_8  and  C_14
REMARK    6  A    between atoms: C_10  and  O_11
REMARK    7  A    between atoms: O_11  and  C_12
REMARK    8  A    between atoms: C_12  and  C_13
REMARK    9  A    between atoms: C_17  and  C_29
REMARK   10  A    between atoms: N_24  and  C_25
REMARK   11  A    between atoms: C_25  and  C_26
REMARK   12  A    between atoms: C_26  and  O_27
REMARK   13  A    between atoms: O_27  and  C_28
REMARK   14  A    between atoms: C_30  and  C_37
REMARK   15  A    between atoms: C_32  and  C_36
REMARK   16  A    between atoms: C_34  and  O_35
REMARK                            x       y       z     vdW  Elec       q    Type
REMARK                         _______ _______ _______ _____ _____    ______ ____
ROOT
ATOM      1  C   UNL     1       3.467  -4.590   5.410  0.00  0.00    +0.141 C 
ATOM      2  C   UNL     1       2.453  -4.559   6.521  0.00  0.00    +0.035 A 
ATOM      3  C   UNL     1       1.190  -4.952   6.976  0.00  0.00    +0.102 A 
ATOM      4  N   UNL     1       1.038  -4.460   8.190  0.00  0.00    -0.173 NA
ATOM      5  N   UNL     1       2.079  -3.796   8.546  0.00  0.00    -0.272 N 
ATOM      6  H   UNL     1       2.189  -3.347   9.399  0.00  0.00    +0.189 HD
ATOM      7  C   UNL     1       3.008  -3.816   7.545  0.00  0.00    +0.126 A 
ATOM      8  C   UNL     1       4.343  -3.371   7.128  0.00  0.00    +0.266 C 
ATOM      9  O   UNL     1       5.093  -2.695   7.806  0.00  0.00    -0.268 OA
ATOM     10  N   UNL     1       4.620  -3.816   5.887  0.00  0.00    -0.283 N 
ENDROOT
BRANCH   3  11
ATOM     11  C   UNL     1       0.203  -5.772   6.230  0.00  0.00    +0.047 A 
ATOM     12  C   UNL     1      -1.121  -5.354   6.132  0.00  0.00    -0.037 A 
ATOM     13  C   UNL     1      -2.036  -6.120   5.437  0.00  0.00    +0.007 A 
ATOM     14  C   UNL     1      -1.641  -7.302   4.837  0.00  0.00    -0.047 A 
ATOM     15  C   UNL     1      -0.329  -7.726   4.929  0.00  0.00    +0.049 A 
ATOM     16  C   UNL     1       0.600  -6.964   5.618  0.00  0.00    +0.127 A 
ATOM     17  C   UNL     1      -2.647  -8.132   4.081  0.00  0.00    +0.044 C 
ATOM     18  C   UNL     1      -1.556  -4.067   6.784  0.00  0.00    +0.044 C 
BRANCH  16  19
ATOM     19  O   UNL     1       1.892  -7.377   5.704  0.00  0.00    -0.506 OA
ATOM     20  H   UNL     1       2.059  -8.000   6.423  0.00  0.00    +0.292 HD
ENDBRANCH  16  19
ENDBRANCH   3  11
BRANCH   1  24
ATOM     21  C   UNL     1       1.845  -2.785   1.888  0.00  0.00    +0.162 A 
ATOM     22  C   UNL     1       2.122  -2.010   3.003  0.00  0.00    +0.050 A 
ATOM     23  C   UNL     1       2.646  -2.596   4.140  0.00  0.00    +0.009 A 
ATOM     24  C   UNL     1       2.895  -3.956   4.168  0.00  0.00    -0.019 A 
ATOM     25  C   UNL     1       2.621  -4.735   3.059  0.00  0.00    +0.055 A 
ATOM     26  C   UNL     1       2.090  -4.154   1.919  0.00  0.00    +0.162 A 
BRANCH  21  27
ATOM     27  O   UNL     1       1.329  -2.209   0.769  0.00  0.00    -0.488 OA
BRANCH  27  28
ATOM     28  C   UNL     1       1.103  -0.799   0.810  0.00  0.00    +0.229 C 
BRANCH  28  30
ATOM     29  C   UNL     1       0.282   1.174  -0.484  0.00  0.00    +0.007 C 
ATOM     30  C   UNL     1       0.524  -0.336  -0.528  0.00  0.00    +0.038 C 
ENDBRANCH  28  30
ENDBRANCH  27  28
ENDBRANCH  21  27
BRANCH  26  31
ATOM     31  O   UNL     1       1.815  -4.920   0.829  0.00  0.00    -0.489 OA
BRANCH  31  32
ATOM     32  C   UNL     1       2.092  -6.318   0.932  0.00  0.00    +0.226 C 
ATOM     33  C   UNL     1       1.721  -7.010  -0.382  0.00  0.00    +0.048 C 
ENDBRANCH  31  32
ENDBRANCH  26  31
ENDBRANCH   1  24
BRANCH  10  34
ATOM     34  C   UNL     1       5.857  -3.571   5.142  0.00  0.00    +0.137 C 
BRANCH  34  35
ATOM     35  C   UNL     1       5.767  -2.216   4.436  0.00  0.00    +0.178 C 
BRANCH  35  36
ATOM     36  O   UNL     1       5.713  -1.173   5.411  0.00  0.00    -0.381 OA
ATOM     37  C   UNL     1       5.628   0.140   4.854  0.00  0.00    +0.194 C 
ENDBRANCH  35  36
ENDBRANCH  34  35
ENDBRANCH  10  34
TORSDOF 11
