REMARK  Name = ZINC01901370
REMARK  11 active torsions:
REMARK  status: ('A' for Active; 'I' for Inactive)
REMARK    1  A    between atoms: C_1  and  C_2
REMARK    2  A    between atoms: C_2  and  C_4
REMARK    3  A    between atoms: C_2  and  C_23
REMARK    4  A    between atoms: C_4  and  C_5
REMARK    5  A    between atoms: C_5  and  C_6
REMARK    6  A    between atoms: N_8  and  N_9
REMARK    7  A    between atoms: C_14  and  N_20
REMARK    8  A    between atoms: C_29  and  C_50
REMARK    9  A    between atoms: C_36  and  O_49
REMARK   10  A    between atoms: C_41  and  C_48
REMARK   11  A    between atoms: C_44  and  O_47
REMARK                            x       y       z     vdW  Elec       q    Type
REMARK                         _______ _______ _______ _____ _____    ______ ____
ROOT
ATOM      1  C   UNL     1      -0.538   1.143   0.528  0.00  0.00    +0.008 C 
ATOM      2  C   UNL     1      -0.363  -0.355   0.272  0.00  0.00    -0.010 C 
ENDROOT
BRANCH   2   3
ATOM      3  C   UNL     1       0.496  -0.561  -0.970  0.00  0.00    -0.002 C 
ATOM      4  C   UNL     1      -0.110   0.168  -2.183  0.00  0.00    +0.004 C 
ATOM      5  C   UNL     1      -0.225  -0.886  -3.309  0.00  0.00    +0.005 C 
ATOM      6  C   UNL     1       0.794  -1.973  -2.892  0.00  0.00    +0.001 C 
ATOM      7  C   UNL     1       0.595  -2.060  -1.368  0.00  0.00    -0.026 C 
ATOM      8  C   UNL     1      -0.722  -2.744  -1.032  0.00  0.00    +0.007 C 
ATOM      9  C   UNL     1      -0.833  -4.107  -1.726  0.00  0.00    +0.005 C 
ATOM     10  C   UNL     1      -0.789  -3.904  -3.235  0.00  0.00    +0.001 C 
ATOM     11  C   UNL     1       0.531  -3.260  -3.636  0.00  0.00    +0.025 C 
ATOM     12  C   UNL     1       1.675  -4.261  -3.491  0.00  0.00    +0.118 C 
ATOM     13  C   UNL     1       1.423  -5.419  -4.462  0.00  0.00    +0.035 C 
ATOM     14  C   UNL     1       0.126  -6.131  -4.088  0.00  0.00    +0.000 C 
ATOM     15  C   UNL     1      -1.058  -5.188  -4.007  0.00  0.00    -0.026 C 
ATOM     16  C   UNL     1      -2.314  -5.879  -3.479  0.00  0.00    +0.010 C 
ATOM     17  C   UNL     1      -2.085  -6.785  -2.284  0.00  0.00    +0.032 C 
ATOM     18  C   UNL     1      -0.931  -7.754  -2.536  0.00  0.00    +0.115 C 
ATOM     19  C   UNL     1       0.333  -6.933  -2.806  0.00  0.00    +0.035 C 
ATOM     20  C   UNL     1      -1.400  -4.766  -5.464  0.00  0.00    +0.012 C 
ATOM     21  C   UNL     1       1.785  -2.719  -0.661  0.00  0.00    +0.012 C 
BRANCH  18  22
ATOM     22  O   UNL     1      -0.732  -8.577  -1.387  0.00  0.00    -0.392 OA
ATOM     23  H   UNL     1      -1.502  -9.110  -1.146  0.00  0.00    +0.210 HD
ENDBRANCH  18  22
BRANCH  12  24
ATOM     24  O   UNL     1       2.917  -3.636  -3.817  0.00  0.00    -0.391 OA
ATOM     25  H   UNL     1       3.683  -4.221  -3.744  0.00  0.00    +0.210 HD
ENDBRANCH  12  24
ENDBRANCH   2   3
BRANCH   2  26
ATOM     26  C   UNL     1       0.320  -1.002   1.478  0.00  0.00    +0.013 C 
BRANCH  26  27
ATOM     27  C   UNL     1      -0.560  -0.829   2.717  0.00  0.00    +0.098 C 
BRANCH  27  28
ATOM     28  C   UNL     1       0.113  -1.466   3.905  0.00  0.00    +0.232 C 
ATOM     29  O   UNL     1       1.191  -2.006   3.774  0.00  0.00    -0.274 OA
ATOM     30  N   UNL     1      -0.483  -1.436   5.114  0.00  0.00    -0.206 N 
ATOM     31  H   UNL     1      -1.345  -1.004   5.219  0.00  0.00    +0.177 HD
BRANCH  30  32
ATOM     32  N   UNL     1       0.143  -2.029   6.218  0.00  0.00    -0.175 NA
ATOM     33  C   UNL     1      -0.436  -2.000   7.394  0.00  0.00    +0.152 C 
ATOM     34  C   UNL     1       0.074  -2.563   8.665  0.00  0.00    +0.028 A 
ATOM     35  C   UNL     1       1.234  -3.250   9.005  0.00  0.00    +0.014 A 
ATOM     36  C   UNL     1       1.432  -3.658  10.309  0.00  0.00    +0.033 A 
ATOM     37  C   UNL     1       0.477  -3.384  11.274  0.00  0.00    +0.128 A 
ATOM     38  C   UNL     1      -0.678  -2.703  10.946  0.00  0.00    +0.056 A 
ATOM     39  C   UNL     1      -0.894  -2.283   9.638  0.00  0.00    +0.045 A 
ATOM     40  N   UNL     1      -1.950  -1.594   9.052  0.00  0.00    -0.280 N 
ATOM     41  C   UNL     1      -1.737  -1.392   7.741  0.00  0.00    +0.269 C 
ATOM     42  O   UNL     1      -2.485  -0.814   6.974  0.00  0.00    -0.268 OA
ATOM     43  H   UNL     1      -2.738  -1.292   9.530  0.00  0.00    +0.155 HD
BRANCH  37  44
ATOM     44  N   UNL     1       0.698  -3.825  12.669  0.00  0.00    +0.056 N 
ATOM     45  O   UNL     1       1.708  -4.423  12.962  0.00  0.00    -0.126 OA
ATOM     46  O   UNL     1      -0.132  -3.589  13.516  0.00  0.00    -0.126 OA
ENDBRANCH  37  44
ENDBRANCH  30  32
ENDBRANCH  27  28
ENDBRANCH  26  27
ENDBRANCH   2  26
TORSDOF 8
