REMARK  Name = ZINC39214882
REMARK  5 active torsions:
REMARK  status: ('A' for Active; 'I' for Inactive)
REMARK    1  A    between atoms: C_4  and  C_7
REMARK    2  A    between atoms: C_8  and  C_32
REMARK    3  A    between atoms: C_10  and  S_12
REMARK    4  A    between atoms: S_12  and  C_13
REMARK    5  A    between atoms: C_15  and  C_26
REMARK                            x       y       z     vdW  Elec       q    Type
REMARK                         _______ _______ _______ _____ _____    ______ ____
ROOT
ATOM      1  C   UNL     1       7.335   0.076  -2.318  0.00  0.00    +0.173 C 
ATOM      2  C   UNL     1       8.748   0.516  -2.651  0.00  0.00    -0.009 C 
ATOM      3  C   UNL     1       9.042   0.740  -3.999  0.00  0.00    +0.003 A 
ATOM      4  C   UNL     1      10.332   1.152  -4.396  0.00  0.00    +0.030 A 
ATOM      5  C   UNL     1      10.591   1.364  -5.716  0.00  0.00    +0.042 A 
ATOM      6  C   UNL     1       9.606   1.183  -6.686  0.00  0.00    +0.022 A 
ATOM      7  C   UNL     1       8.344   0.787  -6.363  0.00  0.00    +0.025 A 
ATOM      8  C   UNL     1       8.005   0.549  -5.019  0.00  0.00    +0.041 A 
ATOM      9  N   UNL     1       6.765   0.160  -4.704  0.00  0.00    -0.284 N 
ATOM     10  C   UNL     1       6.369  -0.081  -3.470  0.00  0.00    +0.235 C 
ATOM     11  O   UNL     1       5.223  -0.433  -3.258  0.00  0.00    -0.274 OA
ATOM     12 CL   UNL     1      12.179   1.870  -6.200  0.00  0.00    -0.084 Cl
ATOM     13  H   UNL     1       6.122   0.050  -5.422  0.00  0.00    +0.155 HD
ENDROOT
BRANCH   2  14
ATOM     14  C   UNL     1       9.726   0.692  -1.640  0.00  0.00    -0.020 A 
ATOM     15  C   UNL     1       9.552   1.673  -0.650  0.00  0.00    +0.008 A 
ATOM     16  C   UNL     1      10.508   1.835   0.328  0.00  0.00    +0.001 A 
ATOM     17  C   UNL     1      11.639   1.036   0.336  0.00  0.00    +0.000 A 
ATOM     18  C   UNL     1      11.822   0.066  -0.636  0.00  0.00    +0.001 A 
ATOM     19  C   UNL     1      10.874  -0.117  -1.619  0.00  0.00    +0.008 A 
ENDBRANCH   2  14
BRANCH   1  20
ATOM     20  S   UNL     1       7.436  -1.515  -1.454  0.00  0.00    -0.050 S 
BRANCH  20  24
ATOM     21  C   UNL     1       3.675  -1.539  -0.518  0.00  0.00    +0.118 A 
ATOM     22  C   UNL     1       4.060  -2.732   0.053  0.00  0.00    +0.164 A 
ATOM     23  O   UNL     1       5.384  -2.872  -0.193  0.00  0.00    -0.430 OA
ATOM     24  C   UNL     1       5.791  -1.800  -0.892  0.00  0.00    +0.259 A 
ATOM     25  N   UNL     1       4.772  -1.001  -1.095  0.00  0.00    -0.203 NA
BRANCH  21  29
ATOM     26  C   UNL     1      -0.234   0.129  -0.489  0.00  0.00    +0.000 A 
ATOM     27  C   UNL     1       0.274  -0.456   0.657  0.00  0.00    +0.001 A 
ATOM     28  C   UNL     1       1.542  -0.999   0.654  0.00  0.00    +0.010 A 
ATOM     29  C   UNL     1       2.312  -0.958  -0.508  0.00  0.00    +0.004 A 
ATOM     30  C   UNL     1       1.794  -0.367  -1.661  0.00  0.00    +0.010 A 
ATOM     31  C   UNL     1       0.525   0.173  -1.645  0.00  0.00    +0.001 A 
ENDBRANCH  21  29
BRANCH  22  32
ATOM     32  C   UNL     1       3.198  -3.674   0.791  0.00  0.00    +0.020 A 
ATOM     33  C   UNL     1       1.969  -4.068   0.256  0.00  0.00    +0.011 A 
ATOM     34  C   UNL     1       1.168  -4.949   0.952  0.00  0.00    +0.001 A 
ATOM     35  C   UNL     1       1.579  -5.443   2.177  0.00  0.00    +0.000 A 
ATOM     36  C   UNL     1       2.794  -5.057   2.714  0.00  0.00    +0.001 A 
ATOM     37  C   UNL     1       3.608  -4.181   2.027  0.00  0.00    +0.011 A 
ENDBRANCH  22  32
ENDBRANCH  20  24
ENDBRANCH   1  20
TORSDOF 5
