REMARK  Name = ZINC12568564
REMARK  6 active torsions:
REMARK  status: ('A' for Active; 'I' for Inactive)
REMARK    1  A    between atoms: C_4  and  C_7
REMARK    2  A    between atoms: C_7  and  N_8
REMARK    3  A    between atoms: C_9  and  C_29
REMARK    4  A    between atoms: N_11  and  C_14
REMARK    5  A    between atoms: C_14  and  N_62
REMARK    6  A    between atoms: C_17  and  C_20
REMARK                            x       y       z     vdW  Elec       q    Type
REMARK                         _______ _______ _______ _____ _____    ______ ____
ROOT
ATOM      1  N   UNL     1      -0.538  10.784  -2.637  0.00  0.00    -0.299 N 
ATOM      2  C   UNL     1      -1.418   9.913  -3.249  0.00  0.00    +0.163 A 
ATOM      3  N   UNL     1      -1.467   8.814  -2.550  0.00  0.00    -0.152 NA
ATOM      4  N   UNL     1      -0.604   8.957  -1.454  0.00  0.00    -0.257 N 
ATOM      5  C   UNL     1      -0.050  10.185  -1.533  0.00  0.00    +0.177 A 
ATOM      6  S   UNL     1       1.074  10.858  -0.431  0.00  0.00    -0.011 S 
ENDROOT
BRANCH   2   7
ATOM      7  C   UNL     1      -2.178  10.182  -4.489  0.00  0.00    +0.019 A 
ATOM      8  C   UNL     1      -3.475   9.690  -4.637  0.00  0.00    +0.013 A 
ATOM      9  C   UNL     1      -4.180   9.947  -5.794  0.00  0.00    +0.021 A 
ATOM     10  C   UNL     1      -3.599  10.685  -6.812  0.00  0.00    +0.041 A 
ATOM     11  C   UNL     1      -2.311  11.171  -6.674  0.00  0.00    +0.021 A 
ATOM     12  C   UNL     1      -1.598  10.924  -5.519  0.00  0.00    +0.013 A 
ATOM     13 CL   UNL     1      -4.491  11.000  -8.268  0.00  0.00    -0.084 Cl
ENDBRANCH   2   7
BRANCH   1  14
ATOM     14  C   UNL     1      -0.199  12.130  -3.104  0.00  0.00    +0.161 C 
BRANCH  14  18
ATOM     15  C   UNL     1      -3.090  14.916  -1.645  0.00  0.00    +0.000 A 
ATOM     16  C   UNL     1      -1.959  14.638  -0.899  0.00  0.00    +0.000 A 
ATOM     17  C   UNL     1      -1.024  13.737  -1.372  0.00  0.00    +0.005 A 
ATOM     18  C   UNL     1      -1.219  13.113  -2.589  0.00  0.00    -0.028 A 
ATOM     19  C   UNL     1      -2.347  13.394  -3.337  0.00  0.00    +0.005 A 
ATOM     20  C   UNL     1      -3.285  14.291  -2.863  0.00  0.00    +0.000 A 
ENDBRANCH  14  18
ENDBRANCH   1  14
BRANCH   4  21
ATOM     21  C   UNL     1      -0.354   7.959  -0.412  0.00  0.00    +0.072 C 
BRANCH  21  27
ATOM     22  C   UNL     1       0.899   5.948   0.086  0.00  0.00    -0.076 C 
ATOM     23  C   UNL     1       2.161   5.160  -0.272  0.00  0.00    -0.007 C 
ATOM     24  C   UNL     1       2.067   4.689  -1.726  0.00  0.00    +0.054 C 
ATOM     25  C   UNL     1       1.883   5.905  -2.639  0.00  0.00    -0.007 C 
ATOM     26  C   UNL     1       0.630   6.673  -2.211  0.00  0.00    -0.076 C 
ATOM     27  N   UNL     1       0.794   7.119  -0.811  0.00  0.00    +0.393 N 
ATOM     28  H   UNL     1       1.655   7.673  -0.737  0.00  0.00    -0.079 HD
BRANCH  24  29
ATOM     29  C   UNL     1       3.333   3.963  -2.103  0.00  0.00    +0.141 A 
ATOM     30  N   UNL     1       4.543   4.460  -2.089  0.00  0.00    -0.133 NA
ATOM     31  N   UNL     1       5.394   3.572  -2.467  0.00  0.00    -0.129 NA
ATOM     32  C   UNL     1       4.761   2.445  -2.748  0.00  0.00    +0.161 A 
ATOM     33  N   UNL     1       3.426   2.672  -2.521  0.00  0.00    -0.286 N 
ATOM     34  C   UNL     1       2.512   1.680  -2.726  0.00  0.00    +0.094 A 
ATOM     35  C   UNL     1       2.906   0.463  -3.156  0.00  0.00    +0.018 A 
ATOM     36  C   UNL     1       4.265   0.201  -3.398  0.00  0.00    +0.005 A 
ATOM     37  C   UNL     1       5.188   1.181  -3.197  0.00  0.00    +0.048 A 
ENDBRANCH  24  29
ENDBRANCH  21  27
ENDBRANCH   4  21
TORSDOF 6
