REMARK  Name = ZINC63731739
REMARK  11 active torsions:
REMARK  status: ('A' for Active; 'I' for Inactive)
REMARK    1  A    between atoms: C_1  and  C_2
REMARK    2  A    between atoms: C_2  and  C_3
REMARK    3  A    between atoms: C_8  and  N_9
REMARK    4  A    between atoms: C_10  and  C_12
REMARK    5  A    between atoms: C_12  and  S_13
REMARK    6  A    between atoms: S_13  and  C_14
REMARK    7  A    between atoms: C_19  and  C_22
REMARK    8  A    between atoms: N_25  and  C_26
REMARK    9  A    between atoms: C_29  and  O_32
REMARK   10  A    between atoms: O_32  and  C_33
REMARK   11  A    between atoms: C_33  and  C_34
REMARK                            x       y       z     vdW  Elec       q    Type
REMARK                         _______ _______ _______ _____ _____    ______ ____
ROOT
ATOM      1  C   UNL     1      -1.587  -0.292  -7.727  0.00  0.00    +0.260 C 
ATOM      2  N   UNL     1      -1.237   1.132  -7.720  0.00  0.00    -0.230 NA
ATOM      3  C   UNL     1      -0.126   1.528  -7.189  0.00  0.00    +0.185 C 
ATOM      4  C   UNL     1       0.885   0.541  -6.675  0.00  0.00    +0.083 C 
ATOM      5  C   UNL     1       1.889   1.279  -6.194  0.00  0.00    +0.075 C 
ATOM      6  N   UNL     1       1.587   2.580  -6.395  0.00  0.00    -0.152 NA
ATOM      7  N   UNL     1       0.445   2.739  -6.974  0.00  0.00    -0.129 NA
ATOM      8  C   UNL     1       3.141   0.752  -5.541  0.00  0.00    +0.068 C 
ATOM      9  C   UNL     1       0.615  -0.906  -6.807  0.00  0.00    +0.133 C 
ATOM     10  N   UNL     1       1.248  -1.833  -6.141  0.00  0.00    -0.285 NA
ATOM     11  N   UNL     1      -0.407  -1.161  -7.736  0.00  0.00    -0.253 N 
ATOM     12  H   UNL     1       1.945  -1.588  -5.512  0.00  0.00    +0.188 HD
ENDROOT
BRANCH  11  13
ATOM     13  C   UNL     1      -0.301  -2.220  -8.646  0.00  0.00    +0.038 A 
ATOM     14  C   UNL     1      -1.274  -2.399  -9.620  0.00  0.00    +0.027 A 
ATOM     15  C   UNL     1      -1.168  -3.443 -10.517  0.00  0.00    +0.047 A 
ATOM     16  C   UNL     1      -0.090  -4.314 -10.445  0.00  0.00    +0.121 A 
ATOM     17  C   UNL     1       0.882  -4.136  -9.472  0.00  0.00    +0.047 A 
ATOM     18  C   UNL     1       0.781  -3.088  -8.578  0.00  0.00    +0.027 A 
BRANCH  16  19
ATOM     19  O   UNL     1       0.013  -5.342 -11.329  0.00  0.00    -0.492 OA
BRANCH  19  20
ATOM     20  C   UNL     1       1.149  -6.199 -11.196  0.00  0.00    +0.225 C 
ATOM     21  C   UNL     1       1.093  -7.289 -12.269  0.00  0.00    +0.048 C 
ENDBRANCH  19  20
ENDBRANCH  16  19
ENDBRANCH  11  13
BRANCH   1  22
ATOM     22  S   UNL     1      -2.576  -0.660  -6.251  0.00  0.00    -0.106 S 
BRANCH  22  23
ATOM     23  C   UNL     1      -1.466  -0.268  -4.871  0.00  0.00    +0.168 C 
BRANCH  23  25
ATOM     24  N   UNL     1      -1.539  -0.311  -2.399  0.00  0.00    -0.285 N 
ATOM     25  C   UNL     1      -2.173  -0.533  -3.567  0.00  0.00    +0.227 C 
ATOM     26  O   UNL     1      -3.314  -0.946  -3.568  0.00  0.00    -0.275 OA
ATOM     27  H   UNL     1      -0.650   0.077  -2.396  0.00  0.00    +0.155 HD
BRANCH  24  33
ATOM     28  C   UNL     1      -1.407  -1.112  -0.124  0.00  0.00    -0.026 A 
ATOM     29  C   UNL     1      -2.025  -1.431   1.070  0.00  0.00    +0.005 A 
ATOM     30  C   UNL     1      -3.394  -1.288   1.201  0.00  0.00    +0.000 A 
ATOM     31  C   UNL     1      -4.149  -0.825   0.139  0.00  0.00    +0.002 A 
ATOM     32  C   UNL     1      -3.538  -0.504  -1.056  0.00  0.00    +0.023 A 
ATOM     33  C   UNL     1      -2.162  -0.641  -1.190  0.00  0.00    +0.037 A 
BRANCH  28  35
ATOM     34  C   UNL     1       0.768   0.069   0.030  0.00  0.00    +0.009 C 
ATOM     35  C   UNL     1       0.085  -1.268  -0.266  0.00  0.00    +0.033 C 
ENDBRANCH  28  35
ENDBRANCH  24  33
ENDBRANCH  23  25
ENDBRANCH  22  23
ENDBRANCH   1  22
TORSDOF 8
