REMARK  Name = ZINC04109207
REMARK  12 active torsions:
REMARK  status: ('A' for Active; 'I' for Inactive)
REMARK    1  A    between atoms: C_1  and  C_2
REMARK    2  A    between atoms: C_2  and  C_3
REMARK    3  A    between atoms: C_3  and  C_4
REMARK    4  A    between atoms: C_4  and  C_5
REMARK    5  A    between atoms: C_17  and  O_33
REMARK    6  A    between atoms: N_20  and  C_32
REMARK    7  A    between atoms: C_23  and  C_27
REMARK    8  A    between atoms: C_23  and  O_31
REMARK    9  A    between atoms: C_24  and  O_26
REMARK   10  A    between atoms: C_27  and  O_29
REMARK   11  A    between atoms: O_29  and  C_30
REMARK   12  A    between atoms: O_33  and  C_34
REMARK                            x       y       z     vdW  Elec       q    Type
REMARK                         _______ _______ _______ _____ _____    ______ ____
ROOT
ATOM      1  C   UNL     1      -4.358   1.014   2.636  0.00  0.00    +0.007 C 
ATOM      2  C   UNL     1      -3.982  -0.410   2.880  0.00  0.00    -0.025 C 
ATOM      3  C   UNL     1      -4.656  -1.143   3.718  0.00  0.00    -0.049 C 
ATOM      4  C   UNL     1      -5.818  -0.553   4.451  0.00  0.00    -0.051 C 
ATOM      5  C   UNL     1      -4.984   1.717   3.784  0.00  0.00    -0.043 C 
ATOM      6  C   UNL     1      -5.920   2.834   3.404  0.00  0.00    +0.007 C 
ATOM      7  C   UNL     1      -7.326   2.245   3.647  0.00  0.00    -0.007 C 
ATOM      8  C   UNL     1      -7.050   1.446   4.955  0.00  0.00    -0.077 C 
ATOM      9  C   UNL     1      -5.851   4.114   4.188  0.00  0.00    -0.020 A 
ATOM     10  C   UNL     1      -5.425   4.415   5.457  0.00  0.00    +0.009 A 
ATOM     11  C   UNL     1      -5.516   5.743   5.858  0.00  0.00    +0.046 A 
ATOM     12  C   UNL     1      -6.018   6.719   5.014  0.00  0.00    +0.122 A 
ATOM     13  C   UNL     1      -6.450   6.424   3.723  0.00  0.00    +0.069 A 
ATOM     14  C   UNL     1      -6.351   5.105   3.308  0.00  0.00    +0.037 A 
ATOM     15  N   UNL     1      -6.660   4.522   2.058  0.00  0.00    -0.325 N 
ATOM     16  C   UNL     1      -5.688   3.410   2.012  0.00  0.00    +0.127 C 
ATOM     17  C   UNL     1      -5.675   2.428   0.896  0.00  0.00    +0.208 C 
ATOM     18  C   UNL     1      -4.710   1.285   1.214  0.00  0.00    +0.167 C 
ATOM     19  C   UNL     1      -6.413   5.481   0.973  0.00  0.00    +0.129 C 
ATOM     20  N   UNL     1      -5.719   0.893   4.803  0.00  0.00    +0.385 N 
ATOM     21  H   UNL     1      -5.220   0.968   5.698  0.00  0.00    -0.081 HD
ENDROOT
BRANCH  18  22
ATOM     22  O   UNL     1      -5.245   0.078   0.650  0.00  0.00    -0.388 OA
ATOM     23  H   UNL     1      -5.504   0.158  -0.278  0.00  0.00    +0.210 HD
ENDBRANCH  18  22
BRANCH  17  24
ATOM     24  C   UNL     1      -7.040   1.900   0.537  0.00  0.00    +0.343 C 
ATOM     25  O   UNL     1      -7.432   0.861   1.014  0.00  0.00    -0.247 OA
BRANCH  24  26
ATOM     26  O   UNL     1      -7.822   2.585  -0.313  0.00  0.00    -0.466 OA
ATOM     27  C   UNL     1      -9.124   2.017  -0.614  0.00  0.00    +0.280 C 
ENDBRANCH  24  26
ENDBRANCH  17  24
BRANCH  17  28
ATOM     28  O   UNL     1      -5.161   3.090  -0.293  0.00  0.00    -0.374 OA
ATOM     29  H   UNL     1      -5.117   2.520  -1.073  0.00  0.00    +0.211 HD
ENDBRANCH  17  28
BRANCH  12  30
ATOM     30  O   UNL     1      -6.089   8.003   5.456  0.00  0.00    -0.495 OA
ATOM     31  C   UNL     1      -5.635   8.258   6.786  0.00  0.00    +0.277 C 
ENDBRANCH  12  30
BRANCH   1  32
ATOM     32  C   UNL     1      -2.949   1.620   2.685  0.00  0.00    +0.012 C 
BRANCH  32  33
ATOM     33  C   UNL     1      -2.245   1.171   3.967  0.00  0.00    +0.001 C 
BRANCH  33  35
ATOM     34  C   UNL     1      -0.190   1.430   5.364  0.00  0.00    +0.004 C 
ATOM     35  C   UNL     1      -0.894   1.880   4.082  0.00  0.00    -0.003 C 
ENDBRANCH  33  35
ENDBRANCH  32  33
ENDBRANCH   1  32
TORSDOF 8
