REMARK  Name = ZINC36580299
REMARK  13 active torsions:
REMARK  status: ('A' for Active; 'I' for Inactive)
REMARK    1  A    between atoms: C_1  and  C_2
REMARK    2  A    between atoms: C_5  and  S_8
REMARK    3  A    between atoms: S_8  and  C_11
REMARK    4  A    between atoms: C_11  and  N_12
REMARK    5  A    between atoms: C_13  and  C_15
REMARK    6  A    between atoms: C_15  and  C_17
REMARK    7  A    between atoms: C_15  and  N_24
REMARK    8  A    between atoms: C_22  and  O_23
REMARK    9  A    between atoms: N_24  and  C_33
REMARK   10  A    between atoms: C_25  and  C_27
REMARK   11  A    between atoms: C_33  and  C_34
REMARK   12  A    between atoms: C_33  and  C_35
REMARK   13  A    between atoms: C_33  and  C_36
REMARK                            x       y       z     vdW  Elec       q    Type
REMARK                         _______ _______ _______ _____ _____    ______ ____
ROOT
ATOM      1  C   UNL     1       2.967  -4.449   4.444  0.00  0.00    +0.196 C 
ENDROOT
BRANCH   1   2
ATOM      2  C   UNL     1       2.691  -3.311   5.393  0.00  0.00    +0.023 A 
ATOM      3  C   UNL     1       1.393  -2.885   5.603  0.00  0.00    +0.009 A 
ATOM      4  C   UNL     1       1.140  -1.841   6.473  0.00  0.00    +0.001 A 
ATOM      5  C   UNL     1       2.183  -1.221   7.136  0.00  0.00    +0.004 A 
ATOM      6  C   UNL     1       3.482  -1.644   6.930  0.00  0.00    +0.046 A 
ATOM      7  C   UNL     1       3.739  -2.695   6.062  0.00  0.00    +0.122 A 
BRANCH   7   8
ATOM      8  O   UNL     1       5.015  -3.117   5.862  0.00  0.00    -0.506 OA
ATOM      9  H   UNL     1       5.496  -2.613   5.191  0.00  0.00    +0.292 HD
ENDBRANCH   7   8
ENDBRANCH   1   2
BRANCH   1  11
ATOM     10  N   UNL     1       1.503  -3.675   2.606  0.00  0.00    -0.294 N 
ATOM     11  C   UNL     1       1.792  -4.626   3.517  0.00  0.00    +0.239 C 
ATOM     12  O   UNL     1       1.106  -5.623   3.590  0.00  0.00    -0.273 OA
ATOM     13  H   UNL     1       2.006  -2.845   2.595  0.00  0.00    +0.150 HD
BRANCH  10  14
ATOM     14  C   UNL     1       0.431  -3.894   1.633  0.00  0.00    +0.278 C 
BRANCH  14  15
ATOM     15  S   UNL     1      -1.107  -3.157   2.251  0.00  0.00    +0.013 S 
ATOM     16  O   UNL     1      -1.318  -3.528   3.607  0.00  0.00    -0.168 OA
ATOM     17  O   UNL     1      -2.143  -3.306   1.290  0.00  0.00    -0.168 OA
BRANCH  15  22
ATOM     18  C   UNL     1      -0.021   2.776   2.433  0.00  0.00    +0.044 C 
ATOM     19  C   UNL     1      -0.292   1.294   2.388  0.00  0.00    -0.050 A 
ATOM     20  C   UNL     1      -0.816   0.722   1.243  0.00  0.00    +0.005 A 
ATOM     21  C   UNL     1      -1.064  -0.637   1.202  0.00  0.00    +0.027 A 
ATOM     22  C   UNL     1      -0.789  -1.425   2.304  0.00  0.00    +0.090 A 
ATOM     23  C   UNL     1      -0.265  -0.853   3.448  0.00  0.00    +0.027 A 
ATOM     24  C   UNL     1      -0.012   0.506   3.488  0.00  0.00    +0.005 A 
ENDBRANCH  15  22
ENDBRANCH  14  15
ENDBRANCH  10  14
ENDBRANCH   1  11
BRANCH   1  25
ATOM     25  N   UNL     1       3.176  -5.682   5.207  0.00  0.00    -0.281 N 
ATOM     26  C   UNL     1       2.254  -6.083   6.105  0.00  0.00    +0.220 C 
ATOM     27  O   UNL     1       1.190  -5.507   6.180  0.00  0.00    -0.275 OA
BRANCH  26  28
ATOM     28  C   UNL     1       2.547  -7.248   7.015  0.00  0.00    +0.075 C 
ATOM     29  C   UNL     1       2.699  -8.522   6.181  0.00  0.00    +0.013 C 
ATOM     30  C   UNL     1       2.995  -9.704   7.105  0.00  0.00    +0.001 C 
ATOM     31  C   UNL     1       1.843  -9.879   8.097  0.00  0.00    +0.000 C 
ATOM     32  C   UNL     1       1.691  -8.605   8.931  0.00  0.00    +0.001 C 
ATOM     33  C   UNL     1       1.395  -7.422   8.007  0.00  0.00    +0.013 C 
ENDBRANCH  26  28
BRANCH  25  34
ATOM     34  C   UNL     1       4.387  -6.478   4.995  0.00  0.00    +0.030 C 
ATOM     35  C   UNL     1       5.494  -5.583   4.435  0.00  0.00    +0.031 C 
ATOM     36  C   UNL     1       4.842  -7.079   6.326  0.00  0.00    +0.031 C 
ATOM     37  C   UNL     1       4.090  -7.603   4.002  0.00  0.00    +0.031 C 
ENDBRANCH  25  34
ENDBRANCH   1  25
TORSDOF 9
