REMARK  Name = ZINC39361931
REMARK  9 active torsions:
REMARK  status: ('A' for Active; 'I' for Inactive)
REMARK    1  A    between atoms: C_1  and  C_2
REMARK    2  A    between atoms: C_5  and  C_8
REMARK    3  A    between atoms: C_8  and  S_9
REMARK    4  A    between atoms: S_9  and  C_10
REMARK    5  A    between atoms: C_13  and  C_24
REMARK    6  A    between atoms: N_15  and  C_16
REMARK    7  A    between atoms: C_18  and  C_23
REMARK    8  A    between atoms: C_21  and  C_22
REMARK    9  A    between atoms: C_24  and  C_25
REMARK                            x       y       z     vdW  Elec       q    Type
REMARK                         _______ _______ _______ _____ _____    ______ ____
ROOT
ATOM      1  C   UNL     1       1.632  -6.614  -0.043  0.00  0.00    +0.180 C 
ATOM      2  N   UNL     1       0.507  -7.246  -0.046  0.00  0.00    -0.162 NA
ATOM      3  N   UNL     1       0.698  -8.633  -0.053  0.00  0.00    -0.246 N 
ATOM      4  C   UNL     1       2.156  -8.847  -0.055  0.00  0.00    +0.187 C 
ATOM      5  N   UNL     1       2.713  -7.483  -0.054  0.00  0.00    -0.258 N 
ATOM      6  H   UNL     1       0.010  -9.316  -0.057  0.00  0.00    +0.170 HD
ENDROOT
BRANCH   5   7
ATOM      7  C   UNL     1       4.066  -7.134  -0.059  0.00  0.00    +0.041 A 
ATOM      8  C   UNL     1       4.749  -6.973   1.140  0.00  0.00    +0.027 A 
ATOM      9  C   UNL     1       6.086  -6.628   1.131  0.00  0.00    -0.049 A 
ATOM     10  C   UNL     1       6.745  -6.443  -0.070  0.00  0.00    +0.004 A 
ATOM     11  C   UNL     1       6.069  -6.602  -1.266  0.00  0.00    +0.005 A 
ATOM     12  C   UNL     1       4.734  -6.953  -1.264  0.00  0.00    -0.029 A 
ATOM     13  C   UNL     1       3.999  -7.133  -2.567  0.00  0.00    +0.045 C 
ATOM     14  C   UNL     1       6.827  -6.452   2.432  0.00  0.00    +0.044 C 
ENDBRANCH   5   7
BRANCH   1  15
ATOM     15  S   UNL     1       1.777  -4.858  -0.034  0.00  0.00    -0.084 S 
BRANCH  15  16
ATOM     16  C   UNL     1       0.059  -4.275  -0.021  0.00  0.00    +0.112 C 
BRANCH  16  21
ATOM     17  C   UNL     1      -0.018   1.503   0.010  0.00  0.00    +0.044 C 
ATOM     18  C   UNL     1       0.002  -0.004   0.002  0.00  0.00    -0.050 A 
ATOM     19  C   UNL     1       0.006  -0.689  -1.199  0.00  0.00    +0.003 A 
ATOM     20  C   UNL     1       0.025  -2.071  -1.206  0.00  0.00    +0.005 A 
ATOM     21  C   UNL     1       0.040  -2.768  -0.013  0.00  0.00    -0.037 A 
ATOM     22  C   UNL     1       0.037  -2.084   1.188  0.00  0.00    +0.005 A 
ATOM     23  C   UNL     1       0.023  -0.702   1.195  0.00  0.00    +0.003 A 
ENDBRANCH  16  21
ENDBRANCH  15  16
ENDBRANCH   1  15
BRANCH   4  24
ATOM     24  C   UNL     1       2.588  -9.613   1.197  0.00  0.00    +0.097 C 
BRANCH  24  25
ATOM     25  C   UNL     1       2.024 -11.010   1.150  0.00  0.00    +0.029 A 
ATOM     26  N   UNL     1       0.753 -11.253   1.594  0.00  0.00    -0.311 N 
ATOM     27  C   UNL     1       0.240 -12.496   1.557  0.00  0.00    +0.327 A 
ATOM     28  O   UNL     1      -0.891 -12.691   1.956  0.00  0.00    -0.247 OA
ATOM     29  N   UNL     1       0.963 -13.528   1.082  0.00  0.00    -0.275 N 
ATOM     30  C   UNL     1       2.219 -13.330   0.635  0.00  0.00    +0.254 A 
ATOM     31  O   UNL     1       2.873 -14.263   0.205  0.00  0.00    -0.268 OA
ATOM     32  C   UNL     1       2.769 -12.026   0.665  0.00  0.00    +0.091 A 
ATOM     33  H   UNL     1       0.578 -14.419   1.062  0.00  0.00    +0.173 HD
ATOM     34  H   UNL     1       0.217 -10.523   1.940  0.00  0.00    +0.170 HD
ENDBRANCH  24  25
ENDBRANCH   4  24
TORSDOF 6
