REMARK  Name = ZINC40783142
REMARK  5 active torsions:
REMARK  status: ('A' for Active; 'I' for Inactive)
REMARK    1  A    between atoms: C_1  and  C_2
REMARK    2  A    between atoms: C_3  and  C_23
REMARK    3  A    between atoms: C_9  and  N_22
REMARK    4  A    between atoms: C_10  and  N_14
REMARK    5  A    between atoms: N_14  and  C_15
REMARK                            x       y       z     vdW  Elec       q    Type
REMARK                         _______ _______ _______ _____ _____    ______ ____
ROOT
ATOM      1  C   UNL     1      -0.018   1.503   0.010  0.00  0.00    +0.066 C 
ATOM      2  C   UNL     1       0.002  -0.004   0.002  0.00  0.00    +0.050 A 
ATOM      3  C   UNL     1       0.006  -0.705  -1.157  0.00  0.00    +0.011 A 
ATOM      4  S   UNL     1       0.032  -2.378  -0.535  0.00  0.00    -0.057 S 
ATOM      5  C   UNL     1       0.035  -2.016   1.108  0.00  0.00    +0.164 A 
ATOM      6  N   UNL     1       0.023  -0.700   1.125  0.00  0.00    -0.230 NA
ATOM      7  N   UNL     1       0.052  -2.891   2.184  0.00  0.00    -0.277 N 
ATOM      8  C   UNL     1       0.052  -2.396   3.484  0.00  0.00    +0.150 A 
ATOM      9  C   UNL     1       0.075  -3.267   4.575  0.00  0.00    +0.106 A 
ATOM     10  C   UNL     1       0.074  -2.716   5.858  0.00  0.00    +0.145 A 
ATOM     11  N   UNL     1       0.051  -1.392   5.992  0.00  0.00    -0.219 NA
ATOM     12  C   UNL     1       0.030  -0.605   4.935  0.00  0.00    +0.225 A 
ATOM     13  N   UNL     1       0.035  -1.084   3.707  0.00  0.00    -0.219 NA
ATOM     14  C   UNL     1      -0.008  -0.209  -2.580  0.00  0.00    +0.053 C 
ATOM     15  H   UNL     1       0.064  -3.849   2.030  0.00  0.00    +0.156 HD
ENDROOT
BRANCH   9  16
ATOM     16  N   UNL     1       0.098  -4.658   4.387  0.00  0.00    -0.353 N 
ATOM     17  H   UNL     1       0.098  -5.026   3.489  0.00  0.00    +0.143 HD
ATOM     18  H   UNL     1       0.114  -5.251   5.154  0.00  0.00    +0.143 HD
ENDBRANCH   9  16
BRANCH  10  19
ATOM     19  N   UNL     1       0.096  -3.538   6.978  0.00  0.00    -0.325 N 
ATOM     20  H   UNL     1       0.112  -4.502   6.872  0.00  0.00    +0.148 HD
BRANCH  19  21
ATOM     21  C   UNL     1       0.095  -2.949   8.320  0.00  0.00    +0.072 C 
ATOM     22  C   UNL     1       1.536  -2.539   8.686  0.00  0.00    +0.022 C 
ATOM     23  C   UNL     1       1.476  -1.509   9.781  0.00  0.00    +0.002 C 
ATOM     24  C   UNL     1       1.601  -2.132  11.185  0.00  0.00    +0.000 C 
ATOM     25  C   UNL     1       0.792  -3.435  11.334  0.00  0.00    +0.000 C 
ATOM     26  C   UNL     1      -0.565  -3.347  10.689  0.00  0.00    +0.002 C 
ATOM     27  C   UNL     1      -0.464  -3.912   9.257  0.00  0.00    +0.022 C 
ENDBRANCH  19  21
ENDBRANCH  10  19
TORSDOF 3
