REMARK  Name = ZINC09163038
REMARK  9 active torsions:
REMARK  status: ('A' for Active; 'I' for Inactive)
REMARK    1  A    between atoms: C_1  and  C_2
REMARK    2  A    between atoms: C_2  and  O_3
REMARK    3  A    between atoms: O_3  and  C_4
REMARK    4  A    between atoms: C_7  and  N_10
REMARK    5  A    between atoms: C_11  and  C_28
REMARK    6  A    between atoms: C_14  and  S_15
REMARK    7  A    between atoms: S_15  and  C_16
REMARK    8  A    between atoms: C_16  and  C_17
REMARK    9  A    between atoms: C_32  and  C_34
REMARK                            x       y       z     vdW  Elec       q    Type
REMARK                         _______ _______ _______ _____ _____    ______ ____
ROOT
ATOM      1  N   UNL     1      -3.764   1.532  -0.159  0.00  0.00    -0.270 N 
ATOM      2  C   UNL     1      -2.501   0.983  -0.132  0.00  0.00    +0.169 A 
ATOM      3  N   UNL     1      -2.643  -0.300   0.108  0.00  0.00    -0.128 NA
ATOM      4  N   UNL     1      -3.890  -0.589   0.227  0.00  0.00    -0.122 NA
ATOM      5  C   UNL     1      -4.622   0.492   0.070  0.00  0.00    +0.197 A 
ENDROOT
BRANCH   2   6
ATOM      6  C   UNL     1      -1.225   1.703  -0.330  0.00  0.00    +0.020 A 
ATOM      7  C   UNL     1      -0.022   1.125   0.080  0.00  0.00    +0.011 A 
ATOM      8  C   UNL     1       1.164   1.805  -0.102  0.00  0.00    +0.001 A 
ATOM      9  C   UNL     1       1.164   3.055  -0.694  0.00  0.00    +0.003 A 
ATOM     10  C   UNL     1      -0.024   3.632  -1.108  0.00  0.00    -0.050 A 
ATOM     11  C   UNL     1      -1.217   2.962  -0.932  0.00  0.00    +0.015 A 
ATOM     12  C   UNL     1      -0.014   4.994  -1.752  0.00  0.00    +0.044 C 
ENDBRANCH   2   6
BRANCH   1  16
ATOM     13  C   UNL     1      -4.764   5.530  -0.809  0.00  0.00    +0.121 A 
ATOM     14  C   UNL     1      -5.095   4.569  -1.754  0.00  0.00    +0.047 A 
ATOM     15  C   UNL     1      -4.763   3.246  -1.540  0.00  0.00    +0.030 A 
ATOM     16  C   UNL     1      -4.100   2.877  -0.378  0.00  0.00    +0.051 A 
ATOM     17  C   UNL     1      -3.774   3.837   0.570  0.00  0.00    +0.030 A 
ATOM     18  C   UNL     1      -4.100   5.161   0.352  0.00  0.00    +0.047 A 
BRANCH  13  19
ATOM     19  O   UNL     1      -5.090   6.832  -1.021  0.00  0.00    -0.492 OA
BRANCH  19  21
ATOM     20  C   UNL     1      -5.165   9.171  -0.418  0.00  0.00    +0.048 C 
ATOM     21  C   UNL     1      -4.718   7.767  -0.006  0.00  0.00    +0.225 C 
ENDBRANCH  19  21
ENDBRANCH  13  19
ENDBRANCH   1  16
BRANCH   5  22
ATOM     22  S   UNL     1      -6.380   0.584   0.147  0.00  0.00    -0.078 S 
BRANCH  22  23
ATOM     23  C   UNL     1      -6.771  -1.151   0.481  0.00  0.00    +0.151 C 
BRANCH  23  24
ATOM     24  C   UNL     1      -8.265  -1.317   0.590  0.00  0.00    +0.121 A 
ATOM     25  N   UNL     1      -8.761  -2.557   0.841  0.00  0.00    -0.309 N 
ATOM     26  H   UNL     1      -8.161  -3.313   0.945  0.00  0.00    +0.170 HD
ATOM     27  C   UNL     1     -10.101  -2.728   0.944  0.00  0.00    +0.266 A 
ATOM     28  O   UNL     1     -10.577  -3.829   1.167  0.00  0.00    -0.267 OA
ATOM     29  C   UNL     1     -10.921  -1.611   0.786  0.00  0.00    +0.102 A 
ATOM     30  C   UNL     1     -10.382  -0.338   0.527  0.00  0.00    +0.085 A 
ATOM     31  N   UNL     1      -9.013  -0.270   0.447  0.00  0.00    -0.232 NA
ATOM     32  C   UNL     1     -11.317   0.697   0.391  0.00  0.00    +0.036 A 
ATOM     33  C   UNL     1     -12.638   0.439   0.508  0.00  0.00    +0.048 A 
ATOM     34  S   UNL     1     -12.669  -1.317   0.827  0.00  0.00    -0.090 S 
ENDBRANCH  23  24
ENDBRANCH  22  23
ENDBRANCH   5  22
TORSDOF 7
