REMARK  Name = ZINC06737950
REMARK  5 active torsions:
REMARK  status: ('A' for Active; 'I' for Inactive)
REMARK    1  A    between atoms: C_10  and  N_22
REMARK    2  A    between atoms: C_12  and  N_16
REMARK    3  A    between atoms: N_22  and  C_23
REMARK    4  A    between atoms: C_23  and  C_24
REMARK    5  A    between atoms: C_24  and  O_25
REMARK                            x       y       z     vdW  Elec       q    Type
REMARK                         _______ _______ _______ _____ _____    ______ ____
ROOT
ATOM      1  C   UNL     1      -3.741   3.296   0.052  0.00  0.00    +0.001 A 
ATOM      2  C   UNL     1      -3.698   1.908   0.040  0.00  0.00    +0.001 A 
ATOM      3  C   UNL     1      -2.495   1.243   0.026  0.00  0.00    +0.012 A 
ATOM      4  C   UNL     1      -1.293   1.961   0.019  0.00  0.00    +0.033 A 
ATOM      5  C   UNL     1      -1.340   3.377   0.035  0.00  0.00    +0.031 A 
ATOM      6  C   UNL     1      -2.576   4.029   0.050  0.00  0.00    +0.012 A 
ATOM      7  C   UNL     1      -0.092   4.139   0.030  0.00  0.00    +0.176 A 
ATOM      8  C   UNL     1       1.058   3.392   0.013  0.00  0.00    +0.063 A 
ATOM      9  C   UNL     1       1.187   1.961   0.001  0.00  0.00    +0.056 A 
ATOM     10  C   UNL     1       2.492   1.443  -0.017  0.00  0.00    +0.041 A 
ATOM     11  C   UNL     1       3.588   2.314  -0.024  0.00  0.00    +0.049 A 
ATOM     12  C   UNL     1       3.502   3.692  -0.014  0.00  0.00    +0.061 A 
ATOM     13  C   UNL     1       2.178   4.327   0.007  0.00  0.00    +0.136 A 
ATOM     14  N   UNL     1       1.583   5.486   0.022  0.00  0.00    -0.076 NA
ATOM     15  O   UNL     1       0.357   5.400   0.037  0.00  0.00    -0.353 OA
ATOM     16  C   UNL     1      -0.015   1.216   0.009  0.00  0.00    +0.196 C 
ATOM     17  O   UNL     1       0.002  -0.004   0.002  0.00  0.00    -0.287 OA
ENDROOT
BRANCH  12  18
ATOM     18  N   UNL     1       4.646   4.463  -0.022  0.00  0.00    -0.328 N 
ATOM     19  C   UNL     1       5.401   4.272  -1.267  0.00  0.00    +0.105 C 
ATOM     20  C   UNL     1       6.580   5.247  -1.305  0.00  0.00    +0.019 C 
ATOM     21  C   UNL     1       7.483   4.994  -0.094  0.00  0.00    +0.003 C 
ATOM     22  C   UNL     1       6.661   5.153   1.188  0.00  0.00    +0.019 C 
ATOM     23  C   UNL     1       5.479   4.181   1.154  0.00  0.00    +0.105 C 
ENDBRANCH  12  18
BRANCH  10  24
ATOM     24  N   UNL     1       2.693   0.079  -0.027  0.00  0.00    -0.341 N 
ATOM     25  H   UNL     1       1.933  -0.524  -0.021  0.00  0.00    +0.146 HD
BRANCH  24  26
ATOM     26  C   UNL     1       4.055  -0.461  -0.046  0.00  0.00    +0.129 C 
BRANCH  26  27
ATOM     27  C   UNL     1       3.999  -1.989  -0.053  0.00  0.00    +0.174 C 
BRANCH  27  28
ATOM     28  O   UNL     1       3.397  -2.438  -1.270  0.00  0.00    -0.393 OA
ATOM     29  H   UNL     1       3.329  -3.400  -1.343  0.00  0.00    +0.209 HD
ENDBRANCH  27  28
ENDBRANCH  26  27
ENDBRANCH  24  26
ENDBRANCH  10  24
TORSDOF 5
