REMARK  Name = ZINC63472945
REMARK  3 active torsions:
REMARK  status: ('A' for Active; 'I' for Inactive)
REMARK    1  A    between atoms: C_7  and  C_10
REMARK    2  A    between atoms: C_10  and  C_11
REMARK    3  A    between atoms: N_19  and  C_22
REMARK                            x       y       z     vdW  Elec       q    Type
REMARK                         _______ _______ _______ _____ _____    ______ ____
ROOT
ATOM      1  C   UNL     1       0.457  -3.653  -1.462  0.00  0.00    +0.072 C 
ATOM      2  C   UNL     1      -0.573  -4.804  -1.492  0.00  0.00    +0.107 C 
ATOM      3  C   UNL     1      -0.063  -5.765  -2.602  0.00  0.00    +0.122 C 
ATOM      4  C   UNL     1      -1.137  -5.675  -3.661  0.00  0.00    +0.228 C 
ATOM      5  O   UNL     1      -1.133  -6.273  -4.715  0.00  0.00    -0.275 OA
ATOM      6  N   UNL     1      -2.093  -4.832  -3.255  0.00  0.00    -0.238 N 
ATOM      7  C   UNL     1      -1.883  -4.282  -2.035  0.00  0.00    +0.227 C 
ATOM      8  O   UNL     1      -2.616  -3.501  -1.468  0.00  0.00    -0.275 OA
ATOM      9  C   UNL     1       1.236  -5.122  -3.103  0.00  0.00    +0.136 C 
ATOM     10  N   UNL     1       1.702  -4.239  -2.025  0.00  0.00    -0.295 NA
ATOM     11  C   UNL     1       2.260  -6.160  -3.467  0.00  0.00    +0.005 A 
ATOM     12  C   UNL     1       2.876  -7.171  -2.765  0.00  0.00    +0.027 A 
ATOM     13  C   UNL     1       3.803  -7.986  -3.393  0.00  0.00    +0.041 A 
ATOM     14  C   UNL     1       4.108  -7.780  -4.727  0.00  0.00    +0.022 A 
ATOM     15  C   UNL     1       3.492  -6.768  -5.433  0.00  0.00    +0.025 A 
ATOM     16  C   UNL     1       2.558  -5.945  -4.809  0.00  0.00    +0.039 A 
ATOM     17  N   UNL     1       1.812  -4.872  -5.304  0.00  0.00    -0.283 N 
ATOM     18  C   UNL     1       1.010  -4.335  -4.365  0.00  0.00    +0.243 C 
ATOM     19  O   UNL     1       0.252  -3.400  -4.509  0.00  0.00    -0.273 OA
ATOM     20 CL   UNL     1       4.580  -9.262  -2.509  0.00  0.00    -0.084 Cl
ATOM     21  H   UNL     1       2.313  -3.517  -2.378  0.00  0.00    +0.124 HD
ATOM     22  H   UNL     1       1.866  -4.551  -6.218  0.00  0.00    +0.155 HD
ENDROOT
BRANCH   6  23
ATOM     23  C   UNL     1      -3.279  -4.530  -4.061  0.00  0.00    +0.084 C 
ATOM     24  C   UNL     1      -3.321  -3.031  -4.364  0.00  0.00    +0.023 C 
ATOM     25  C   UNL     1      -4.559  -2.716  -5.206  0.00  0.00    +0.002 C 
ATOM     26  C   UNL     1      -5.817  -3.115  -4.432  0.00  0.00    +0.000 C 
ATOM     27  C   UNL     1      -5.775  -4.614  -4.129  0.00  0.00    +0.002 C 
ATOM     28  C   UNL     1      -4.537  -4.929  -3.287  0.00  0.00    +0.023 C 
ENDBRANCH   6  23
BRANCH   1  29
ATOM     29  C   UNL     1       0.691  -3.186  -0.024  0.00  0.00    +0.052 C 
BRANCH  29  36
ATOM     30  C   UNL     1      -0.016   1.348   0.009  0.00  0.00    +0.001 A 
ATOM     31  C   UNL     1       1.166   2.101   0.002  0.00  0.00    +0.002 A 
ATOM     32  C   UNL     1       2.391   1.535  -0.013  0.00  0.00    +0.026 A 
ATOM     33  C   UNL     1       2.529   0.120  -0.022  0.00  0.00    +0.043 A 
ATOM     34  N   UNL     1       3.587  -0.654  -0.037  0.00  0.00    -0.380 N 
ATOM     35  C   UNL     1       3.143  -2.053  -0.041  0.00  0.00    +0.144 C 
ATOM     36  C   UNL     1       1.631  -2.008  -0.025  0.00  0.00    -0.040 C 
ATOM     37  C   UNL     1       1.295  -0.698  -0.014  0.00  0.00    -0.001 A 
ATOM     38  C   UNL     1       0.002  -0.004   0.002  0.00  0.00    +0.010 A 
ATOM     39  H   UNL     1       4.509  -0.353  -0.045  0.00  0.00    +0.160 HD
ENDBRANCH  29  36
ENDBRANCH   1  29
TORSDOF 3
