REMARK  Name = ZINC03372628
REMARK  6 active torsions:
REMARK  status: ('A' for Active; 'I' for Inactive)
REMARK    1  A    between atoms: C_3  and  C_9
REMARK    2  A    between atoms: C_9  and  C_10
REMARK    3  A    between atoms: C_10  and  N_11
REMARK    4  A    between atoms: C_12  and  C_14
REMARK    5  A    between atoms: C_14  and  N_15
REMARK    6  A    between atoms: C_17  and  C_23
REMARK                            x       y       z     vdW  Elec       q    Type
REMARK                         _______ _______ _______ _____ _____    ______ ____
ROOT
ATOM      1  N   UNL     1       5.510   2.975   1.383  0.00  0.00    -0.314 N 
ATOM      2  C   UNL     1       6.204   3.141   2.527  0.00  0.00    +0.233 C 
ATOM      3  O   UNL     1       5.787   2.668   3.563  0.00  0.00    -0.274 OA
ATOM      4  H   UNL     1       5.843   3.353   0.554  0.00  0.00    +0.149 HD
ENDROOT
BRANCH   1   5
ATOM      5  C   UNL     1       4.252   2.224   1.392  0.00  0.00    +0.109 C 
BRANCH   5   6
ATOM      6  C   UNL     1       3.671   2.185  -0.023  0.00  0.00    +0.055 C 
BRANCH   6   9
ATOM      7  C   UNL     1      -0.017   1.379   0.010  0.00  0.00    +0.020 A 
ATOM      8  C   UNL     1       1.171   2.087   0.002  0.00  0.00    +0.006 A 
ATOM      9  C   UNL     1       2.377   1.413  -0.013  0.00  0.00    -0.027 A 
ATOM     10  C   UNL     1       2.397   0.029  -0.021  0.00  0.00    +0.046 A 
ATOM     11  C   UNL     1       1.210  -0.679  -0.013  0.00  0.00    +0.040 A 
ATOM     12  C   UNL     1       0.002  -0.004   0.002  0.00  0.00    +0.042 A 
ATOM     13 CL   UNL     1      -1.489  -0.893   0.012  0.00  0.00    -0.083 Cl
ATOM     14 CL   UNL     1       3.913  -0.817  -0.041  0.00  0.00    -0.083 Cl
ENDBRANCH   6   9
ENDBRANCH   5   6
ENDBRANCH   1   5
BRANCH   2  15
ATOM     15  C   UNL     1       7.498   3.913   2.517  0.00  0.00    +0.220 C 
BRANCH  15  16
ATOM     16  N   UNL     1       8.054   3.950   3.872  0.00  0.00    -0.305 N 
ATOM     17  C   UNL     1       7.711   4.962   4.711  0.00  0.00    +0.102 A 
ATOM     18  C   UNL     1       8.211   5.018   5.967  0.00  0.00    +0.073 A 
ATOM     19  C   UNL     1       9.094   4.025   6.415  0.00  0.00    +0.039 A 
ATOM     20  C   UNL     1       9.438   3.009   5.571  0.00  0.00    +0.106 A 
ATOM     21  C   UNL     1       8.896   2.978   4.274  0.00  0.00    +0.270 A 
ATOM     22  O   UNL     1       9.191   2.073   3.510  0.00  0.00    -0.266 OA
ATOM     23 CL   UNL     1      10.529   1.765   6.095  0.00  0.00    -0.078 Cl
BRANCH  18  24
ATOM     24  C   UNL     1       7.820   6.148   6.884  0.00  0.00    +0.419 C 
ATOM     25  F   UNL     1       6.748   5.746   7.688  0.00  0.00    -0.166 F 
ATOM     26  F   UNL     1       8.909   6.489   7.695  0.00  0.00    -0.166 F 
ATOM     27  F   UNL     1       7.441   7.258   6.122  0.00  0.00    -0.166 F 
ENDBRANCH  18  24
ENDBRANCH  15  16
ENDBRANCH   2  15
TORSDOF 6
