REMARK  Name = ZINC04155852
REMARK  9 active torsions:
REMARK  status: ('A' for Active; 'I' for Inactive)
REMARK    1  A    between atoms: C_1  and  C_2
REMARK    2  A    between atoms: C_9  and  C_18
REMARK    3  A    between atoms: C_10  and  N_11
REMARK    4  A    between atoms: N_11  and  C_12
REMARK    5  A    between atoms: C_23  and  O_24
REMARK    6  A    between atoms: O_24  and  S_25
REMARK    7  A    between atoms: S_25  and  C_28
REMARK    8  A    between atoms: C_31  and  N_34
REMARK    9  A    between atoms: C_35  and  C_37
REMARK                            x       y       z     vdW  Elec       q    Type
REMARK                         _______ _______ _______ _____ _____    ______ ____
ROOT
ATOM      1  C   UNL     1      -0.440  -5.769   2.284  0.00  0.00    +0.046 A 
ATOM      2  C   UNL     1      -1.373  -6.361   3.133  0.00  0.00    +0.014 A 
ATOM      3  C   UNL     1      -1.075  -7.555   3.759  0.00  0.00    +0.001 A 
ATOM      4  C   UNL     1       0.149  -8.166   3.547  0.00  0.00    +0.004 A 
ATOM      5  C   UNL     1       1.082  -7.586   2.707  0.00  0.00    +0.049 A 
ATOM      6  C   UNL     1       0.794  -6.392   2.068  0.00  0.00    +0.166 A 
ENDROOT
BRANCH   1  15
ATOM      7  C   UNL     1      -2.016   1.192   0.365  0.00  0.00    +0.044 C 
ATOM      8  C   UNL     1      -1.720  -0.283   0.274  0.00  0.00    -0.046 A 
ATOM      9  C   UNL     1      -1.686  -0.920  -0.980  0.00  0.00    +0.021 A 
ATOM     10  C   UNL     1      -1.422  -2.239  -1.067  0.00  0.00    +0.094 A 
ATOM     11  N   UNL     1      -1.184  -2.978   0.061  0.00  0.00    -0.289 N 
ATOM     12  C   UNL     1      -1.210  -2.382   1.301  0.00  0.00    +0.117 A 
ATOM     13  C   UNL     1      -1.480  -1.001   1.403  0.00  0.00    +0.048 A 
ATOM     14  N   UNL     1      -0.951  -3.303   2.216  0.00  0.00    -0.338 N 
ATOM     15  C   UNL     1      -0.755  -4.488   1.609  0.00  0.00    +0.090 A 
ATOM     16  C   UNL     1      -0.898  -4.301   0.251  0.00  0.00    +0.129 A 
ATOM     17  H   UNL     1      -0.909  -3.147   3.172  0.00  0.00    +0.167 HD
BRANCH  16  18
ATOM     18  N   UNL     1      -0.775  -5.277  -0.741  0.00  0.00    -0.326 N 
ATOM     19  H   UNL     1      -0.564  -6.192  -0.497  0.00  0.00    +0.148 HD
BRANCH  18  20
ATOM     20  C   UNL     1      -0.966  -4.919  -2.148  0.00  0.00    +0.072 C 
ATOM     21  C   UNL     1      -2.461  -4.771  -2.439  0.00  0.00    +0.022 C 
ATOM     22  C   UNL     1      -2.659  -4.396  -3.909  0.00  0.00    +0.002 C 
ATOM     23  C   UNL     1      -2.073  -5.495  -4.799  0.00  0.00    +0.000 C 
ATOM     24  C   UNL     1      -0.578  -5.643  -4.508  0.00  0.00    +0.002 C 
ATOM     25  C   UNL     1      -0.379  -6.017  -3.038  0.00  0.00    +0.022 C 
ENDBRANCH  18  20
ENDBRANCH  16  18
ENDBRANCH   1  15
BRANCH   6  26
ATOM     26  O   UNL     1       1.708  -5.825   1.237  0.00  0.00    -0.342 OA
BRANCH  26  27
ATOM     27  S   UNL     1       2.666  -4.868   1.932  0.00  0.00    +0.151 S 
ATOM     28  O   UNL     1       3.403  -4.216   0.907  0.00  0.00    -0.131 OA
ATOM     29  O   UNL     1       1.900  -4.153   2.893  0.00  0.00    -0.131 OA
BRANCH  27  30
ATOM     30  C   UNL     1       3.818  -5.848   2.836  0.00  0.00    +0.128 A 
ATOM     31  C   UNL     1       3.543  -6.207   4.143  0.00  0.00    +0.032 A 
ATOM     32  C   UNL     1       4.444  -6.975   4.854  0.00  0.00    +0.025 A 
ATOM     33  C   UNL     1       5.627  -7.388   4.255  0.00  0.00    +0.033 A 
ATOM     34  C   UNL     1       5.899  -7.027   2.942  0.00  0.00    +0.025 A 
ATOM     35  C   UNL     1       4.992  -6.263   2.235  0.00  0.00    +0.032 A 
BRANCH  33  36
ATOM     36  N   UNL     1       6.542  -8.167   4.972  0.00  0.00    -0.286 N 
ATOM     37  C   UNL     1       6.099  -9.080   5.859  0.00  0.00    +0.214 C 
ATOM     38  O   UNL     1       4.914  -9.165   6.102  0.00  0.00    -0.276 OA
ATOM     39  C   UNL     1       7.078  -9.997   6.548  0.00  0.00    +0.109 C 
ATOM     40  H   UNL     1       7.494  -8.049   4.832  0.00  0.00    +0.155 HD
ENDBRANCH  33  36
ENDBRANCH  27  30
ENDBRANCH  26  27
ENDBRANCH   6  26
TORSDOF 7
