REMARK  Name = ZINC34967011
REMARK  10 active torsions:
REMARK  status: ('A' for Active; 'I' for Inactive)
REMARK    1  A    between atoms: C_1  and  C_2
REMARK    2  A    between atoms: C_5  and  C_13
REMARK    3  A    between atoms: C_6  and  C_7
REMARK    4  A    between atoms: C_6  and  C_8
REMARK    5  A    between atoms: C_10  and  O_12
REMARK    6  A    between atoms: N_15  and  N_16
REMARK    7  A    between atoms: C_17  and  C_18
REMARK    8  A    between atoms: C_25  and  O_28
REMARK    9  A    between atoms: O_28  and  C_29
REMARK   10  A    between atoms: C_29  and  C_30
REMARK                            x       y       z     vdW  Elec       q    Type
REMARK                         _______ _______ _______ _____ _____    ______ ____
ROOT
ATOM      1  N   UNL     1       1.363  -5.679   2.009  0.00  0.00    -0.186 NA
ATOM      2  C   UNL     1       1.686  -6.783   1.407  0.00  0.00    +0.158 C 
ENDROOT
BRANCH   2   3
ATOM      3  C   UNL     1       1.143  -7.078   0.070  0.00  0.00    +0.084 A 
ATOM      4  C   UNL     1       0.738  -6.016  -0.759  0.00  0.00    +0.030 A 
ATOM      5  C   UNL     1       0.234  -6.278  -1.997  0.00  0.00    +0.012 A 
ATOM      6  C   UNL     1       0.137  -7.622  -2.409  0.00  0.00    +0.004 A 
ATOM      7  C   UNL     1      -0.372  -7.960  -3.673  0.00  0.00    +0.010 A 
ATOM      8  C   UNL     1      -0.454  -9.270  -4.042  0.00  0.00    +0.004 A 
ATOM      9  C   UNL     1      -0.039 -10.283  -3.182  0.00  0.00    +0.048 A 
ATOM     10  C   UNL     1       0.461  -9.994  -1.944  0.00  0.00    +0.147 A 
ATOM     11  C   UNL     1       0.561  -8.648  -1.528  0.00  0.00    +0.113 A 
ATOM     12  N   UNL     1       1.052  -8.336  -0.328  0.00  0.00    -0.242 NA
BRANCH  10  13
ATOM     13  O   UNL     1       0.861 -10.995  -1.118  0.00  0.00    -0.485 OA
BRANCH  13  14
ATOM     14  C   UNL     1       0.833 -12.322  -1.647  0.00  0.00    +0.264 C 
BRANCH  14  15
ATOM     15  C   UNL     1       1.285 -13.295  -0.588  0.00  0.00    -0.010 A 
ATOM     16  C   UNL     1       2.633 -13.538  -0.403  0.00  0.00    +0.007 A 
ATOM     17  C   UNL     1       3.048 -14.430   0.569  0.00  0.00    +0.000 A 
ATOM     18  C   UNL     1       2.114 -15.078   1.355  0.00  0.00    +0.000 A 
ATOM     19  C   UNL     1       0.766 -14.834   1.171  0.00  0.00    +0.000 A 
ATOM     20  C   UNL     1       0.352 -13.939   0.203  0.00  0.00    +0.007 A 
ENDBRANCH  14  15
ENDBRANCH  13  14
ENDBRANCH  10  13
ENDBRANCH   2   3
BRANCH   1  23
ATOM     21  C   UNL     1       0.085  -3.671   2.048  0.00  0.00    +0.239 C 
ATOM     22  O   UNL     1       0.673  -3.329   3.052  0.00  0.00    -0.273 OA
ATOM     23  N   UNL     1       0.344  -4.870   1.490  0.00  0.00    -0.206 N 
ATOM     24  H   UNL     1      -0.176  -5.173   0.730  0.00  0.00    +0.177 HD
BRANCH  21  29
ATOM     25  C   UNL     1      -2.681   0.617   1.325  0.00  0.00    +0.014 C 
ATOM     26  C   UNL     1      -2.189  -0.813   1.093  0.00  0.00    +0.000 C 
ATOM     27  C   UNL     1      -1.516  -1.087  -0.287  0.00  0.00    +0.011 C 
ATOM     28  C   UNL     1      -0.685  -2.372  -0.068  0.00  0.00    +0.017 C 
ATOM     29  C   UNL     1      -0.934  -2.753   1.423  0.00  0.00    +0.057 C 
ATOM     30  C   UNL     1      -1.073  -1.329   2.068  0.00  0.00    -0.013 C 
ATOM     31  C   UNL     1      -1.563  -1.399   3.515  0.00  0.00    +0.012 C 
ATOM     32  C   UNL     1       0.217  -0.515   1.945  0.00  0.00    +0.012 C 
ATOM     33  C   UNL     1      -2.418  -3.232   1.461  0.00  0.00    +0.048 C 
ATOM     34  C   UNL     1      -3.257  -1.937   1.258  0.00  0.00    +0.122 C 
BRANCH  34  35
ATOM     35  O   UNL     1      -4.047  -2.051   0.072  0.00  0.00    -0.391 OA
ATOM     36  H   UNL     1      -4.780  -2.677   0.147  0.00  0.00    +0.210 HD
ENDBRANCH  34  35
ENDBRANCH  21  29
ENDBRANCH   1  23
TORSDOF 7
