REMARK  Name = ZINC34757562
REMARK  11 active torsions:
REMARK  status: ('A' for Active; 'I' for Inactive)
REMARK    1  A    between atoms: C_1  and  C_2
REMARK    2  A    between atoms: C_2  and  N_3
REMARK    3  A    between atoms: N_3  and  C_4
REMARK    4  A    between atoms: C_4  and  C_5
REMARK    5  A    between atoms: C_6  and  C_8
REMARK    6  A    between atoms: C_8  and  N_9
REMARK    7  A    between atoms: C_22  and  S_24
REMARK    8  A    between atoms: S_24  and  C_25
REMARK    9  A    between atoms: C_25  and  C_26
REMARK   10  A    between atoms: C_29  and  C_33
REMARK   11  A    between atoms: C_31  and  C_32
REMARK                            x       y       z     vdW  Elec       q    Type
REMARK                         _______ _______ _______ _____ _____    ______ ____
ROOT
ATOM      1  N   UNL     1       4.705  -1.132   0.717  0.00  0.00    +0.387 N 
ATOM      2  C   UNL     1       6.030  -1.472   0.182  0.00  0.00    -0.059 C 
ATOM      3  C   UNL     1       6.931  -1.956   1.323  0.00  0.00    +0.088 C 
ATOM      4  N   UNL     1       6.946  -0.928   2.374  0.00  0.00    -0.318 N 
ATOM      5  C   UNL     1       5.657  -0.409   2.855  0.00  0.00    +0.088 C 
ATOM      6  C   UNL     1       4.816   0.003   1.642  0.00  0.00    -0.059 C 
ATOM      7  C   UNL     1       8.139  -0.462   2.896  0.00  0.00    +0.134 A 
ATOM      8  C   UNL     1       8.771  -1.145   3.973  0.00  0.00    +0.051 A 
ATOM      9  C   UNL     1       8.321  -2.361   4.672  0.00  0.00    -0.025 A 
ATOM     10  C   UNL     1       9.101  -2.812   5.666  0.00  0.00    -0.004 A 
ATOM     11  S   UNL     1      10.466  -1.674   5.737  0.00  0.00    -0.073 S 
ATOM     12  C   UNL     1       9.979  -0.587   4.425  0.00  0.00    +0.115 A 
ATOM     13  N   UNL     1      10.485   0.503   3.878  0.00  0.00    -0.215 NA
ATOM     14  C   UNL     1       9.854   1.100   2.876  0.00  0.00    +0.191 A 
ATOM     15  N   UNL     1       8.711   0.621   2.397  0.00  0.00    -0.206 NA
ATOM     16  C   UNL     1       8.542  -4.053   6.310  0.00  0.00    +0.043 C 
ATOM     17  C   UNL     1       7.063  -4.087   5.865  0.00  0.00    +0.010 C 
ATOM     18  C   UNL     1       7.117  -3.298   4.542  0.00  0.00    +0.037 C 
ATOM     19  H   UNL     1       4.329  -1.929   1.207  0.00  0.00    -0.081 HD
ENDROOT
BRANCH   1  20
ATOM     20  C   UNL     1       3.810  -0.772  -0.391  0.00  0.00    +0.019 C 
BRANCH  20  22
ATOM     21  N   UNL     1       2.806  -1.879  -2.362  0.00  0.00    -0.304 N 
ATOM     22  C   UNL     1       3.598  -1.974  -1.276  0.00  0.00    +0.199 C 
ATOM     23  O   UNL     1       4.139  -3.026  -1.010  0.00  0.00    -0.278 OA
BRANCH  21  25
ATOM     24  C   UNL     1       3.668  -3.068  -4.318  0.00  0.00    +0.024 C 
ATOM     25  C   UNL     1       2.600  -3.047  -3.222  0.00  0.00    +0.104 C 
ENDBRANCH  21  25
BRANCH  21  26
ATOM     26  C   UNL     1       2.152  -0.608  -2.683  0.00  0.00    +0.104 C 
ATOM     27  C   UNL     1       0.785  -0.551  -1.999  0.00  0.00    +0.024 C 
ENDBRANCH  21  26
ENDBRANCH  20  22
ENDBRANCH   1  20
BRANCH  14  28
ATOM     28  S   UNL     1      10.549   2.553   2.161  0.00  0.00    -0.081 S 
BRANCH  28  29
ATOM     29  C   UNL     1      12.072   2.822   3.108  0.00  0.00    +0.112 C 
BRANCH  29  30
ATOM     30  C   UNL     1      12.774   4.052   2.592  0.00  0.00    -0.034 A 
ATOM     31  C   UNL     1      13.697   3.942   1.569  0.00  0.00    +0.005 A 
ATOM     32  C   UNL     1      14.341   5.070   1.095  0.00  0.00    +0.003 A 
ATOM     33  C   UNL     1      14.061   6.308   1.644  0.00  0.00    -0.050 A 
ATOM     34  C   UNL     1      13.137   6.417   2.667  0.00  0.00    +0.007 A 
ATOM     35  C   UNL     1      12.491   5.290   3.137  0.00  0.00    -0.046 A 
ATOM     36  C   UNL     1      11.480   5.410   4.249  0.00  0.00    +0.044 C 
ATOM     37  C   UNL     1      14.764   7.537   1.128  0.00  0.00    +0.044 C 
ENDBRANCH  29  30
ENDBRANCH  28  29
ENDBRANCH  14  28
TORSDOF 7
