REMARK  Name = ZINC66991818
REMARK  8 active torsions:
REMARK  status: ('A' for Active; 'I' for Inactive)
REMARK    1  A    between atoms: C_1  and  C_2
REMARK    2  A    between atoms: N_8  and  C_9
REMARK    3  A    between atoms: C_12  and  C_15
REMARK    4  A    between atoms: C_15  and  C_17
REMARK    5  A    between atoms: C_15  and  N_18
REMARK    6  A    between atoms: N_18  and  C_19
REMARK    7  A    between atoms: C_19  and  C_20
REMARK    8  A    between atoms: N_28  and  C_29
REMARK                            x       y       z     vdW  Elec       q    Type
REMARK                         _______ _______ _______ _____ _____    ______ ____
ROOT
ATOM      1  C   UNL     1       6.062   0.467   2.661  0.00  0.00    -0.043 C 
ATOM      2  C   UNL     1       6.922  -0.738   2.277  0.00  0.00    -0.009 C 
ENDROOT
BRANCH   1   6
ATOM      3  C   UNL     1       1.998  -0.275   1.567  0.00  0.00    +0.038 A 
ATOM      4  C   UNL     1       2.804   0.514   0.756  0.00  0.00    +0.024 A 
ATOM      5  C   UNL     1       4.117   0.752   1.113  0.00  0.00    +0.004 A 
ATOM      6  C   UNL     1       4.629   0.205   2.275  0.00  0.00    -0.062 A 
ATOM      7  C   UNL     1       3.829  -0.581   3.084  0.00  0.00    +0.004 A 
ATOM      8  C   UNL     1       2.514  -0.818   2.736  0.00  0.00    +0.024 A 
BRANCH   3  15
ATOM      9  C   UNL     1      -0.019   1.526   0.010  0.00  0.00    +0.030 C 
ATOM     10  C   UNL     1       0.002  -0.004   0.002  0.00  0.00    +0.097 C 
ATOM     11  C   UNL     1      -1.430  -0.565   0.098  0.00  0.00    +0.128 C 
ATOM     12  N   UNL     1      -1.423  -1.335   1.351  0.00  0.00    -0.297 N 
ATOM     13  C   UNL     1      -0.209  -1.255   1.910  0.00  0.00    +0.307 C 
ATOM     14  O   UNL     1       0.076  -1.802   2.958  0.00  0.00    -0.252 OA
ATOM     15  N   UNL     1       0.667  -0.518   1.209  0.00  0.00    -0.251 N 
ATOM     16  H   UNL     1      -2.178  -1.824   1.714  0.00  0.00    +0.150 HD
ENDBRANCH   3  15
ENDBRANCH   1   6
BRANCH   1  17
ATOM     17  N   UNL     1       6.146   0.686   4.111  0.00  0.00    +0.388 N 
ATOM     18  H   UNL     1       5.516   1.429   4.377  0.00  0.00    -0.084 HD
ATOM     19  H   UNL     1       5.890  -0.161   4.595  0.00  0.00    -0.084 HD
BRANCH  17  20
ATOM     20  C   UNL     1       7.521   1.059   4.471  0.00  0.00    -0.006 C 
BRANCH  20  21
ATOM     21  C   UNL     1       7.608   1.284   5.958  0.00  0.00    +0.093 A 
ATOM     22  N   UNL     1       7.403   2.423   6.553  0.00  0.00    -0.234 NA
ATOM     23  C   UNL     1       7.562   2.273   7.894  0.00  0.00    +0.089 A 
ATOM     24  C   UNL     1       7.463   3.147   8.979  0.00  0.00    +0.030 A 
ATOM     25  C   UNL     1       7.686   2.687  10.246  0.00  0.00    +0.002 A 
ATOM     26  C   UNL     1       8.011   1.356  10.469  0.00  0.00    +0.002 A 
ATOM     27  C   UNL     1       8.113   0.475   9.413  0.00  0.00    +0.028 A 
ATOM     28  C   UNL     1       7.890   0.925   8.118  0.00  0.00    +0.069 A 
ATOM     29  N   UNL     1       7.906   0.324   6.876  0.00  0.00    -0.332 N 
ATOM     30  C   UNL     1       8.193  -1.085   6.596  0.00  0.00    +0.150 C 
ENDBRANCH  20  21
ENDBRANCH  17  20
ENDBRANCH   1  17
TORSDOF 5
