REMARK  Name = ZINC33332055
REMARK  8 active torsions:
REMARK  status: ('A' for Active; 'I' for Inactive)
REMARK    1  A    between atoms: C_1  and  C_2
REMARK    2  A    between atoms: N_8  and  C_9
REMARK    3  A    between atoms: C_9  and  C_10
REMARK    4  A    between atoms: C_10  and  N_11
REMARK    5  A    between atoms: C_12  and  C_14
REMARK    6  A    between atoms: C_14  and  C_15
REMARK    7  A    between atoms: C_15  and  C_16
REMARK    8  A    between atoms: C_16  and  N_17
REMARK                            x       y       z     vdW  Elec       q    Type
REMARK                         _______ _______ _______ _____ _____    ______ ____
ROOT
ATOM      1  C   UNL     1       1.608  10.191   0.321  0.00  0.00    +0.031 C 
ENDROOT
BRANCH   1   2
ATOM      2  C   UNL     1       0.255   9.482   0.230  0.00  0.00    +0.097 C 
BRANCH   2   4
ATOM      3  N   UNL     1      -0.589   7.159   0.145  0.00  0.00    -0.317 N 
ATOM      4  C   UNL     1       0.469   7.991   0.220  0.00  0.00    +0.213 C 
ATOM      5  O   UNL     1       1.593   7.539   0.280  0.00  0.00    -0.276 OA
ATOM      6  H   UNL     1      -1.608   7.568   0.091  0.00  0.00    +0.149 HD
BRANCH   3   7
ATOM      7  C   UNL     1      -0.381   5.708   0.135  0.00  0.00    +0.085 C 
BRANCH   7   8
ATOM      8  C   UNL     1      -1.734   5.000   0.044  0.00  0.00    -0.059 C 
BRANCH   8  15
ATOM      9  C   UNL     1      -1.542   3.608   2.482  0.00  0.00    -0.013 C 
ATOM     10  C   UNL     1      -0.804   3.109   1.238  0.00  0.00    -0.072 C 
ATOM     11  C   UNL     1      -0.732   1.581   1.266  0.00  0.00    -0.016 C 
ATOM     12  C   UNL     1      -0.013   1.086   0.008  0.00  0.00    -0.003 C 
ATOM     13  C   UNL     1      -0.756   1.594  -1.230  0.00  0.00    -0.019 C 
ATOM     14  C   UNL     1      -0.826   3.122  -1.185  0.00  0.00    -0.078 C 
ATOM     15  N   UNL     1      -1.525   3.546   0.035  0.00  0.00    +0.382 N 
ATOM     16  H   UNL     1      -2.512   3.061   0.041  0.00  0.00    -0.081 HD
ENDBRANCH   8  15
ENDBRANCH   7   8
ENDBRANCH   3   7
ENDBRANCH   2   4
ENDBRANCH   1   2
BRANCH   1  17
ATOM     17  C   UNL     1       1.391  11.706   0.331  0.00  0.00    +0.126 C 
BRANCH  17  18
ATOM     18  N   UNL     1       2.686  12.384   0.418  0.00  0.00    -0.305 N 
ATOM     19  C   UNL     1       3.370  12.723  -0.750  0.00  0.00    +0.070 A 
ATOM     20  C   UNL     1       2.816  12.413  -1.986  0.00  0.00    +0.043 A 
ATOM     21  C   UNL     1       3.486  12.747  -3.147  0.00  0.00    +0.020 A 
ATOM     22  C   UNL     1       4.712  13.388  -3.084  0.00  0.00    +0.017 A 
ATOM     23  C   UNL     1       5.271  13.699  -1.861  0.00  0.00    +0.029 A 
ATOM     24  C   UNL     1       4.604  13.369  -0.689  0.00  0.00    +0.070 A 
ATOM     25  N   UNL     1       5.173  13.687   0.549  0.00  0.00    -0.310 N 
ATOM     26  C   UNL     1       6.335  14.300   0.887  0.00  0.00    +0.092 A 
ATOM     27  C   UNL     1       6.421  14.367   2.238  0.00  0.00    +0.020 A 
ATOM     28  C   UNL     1       5.272  13.775   2.772  0.00  0.00    +0.033 A 
ATOM     29  C   UNL     1       4.503  13.355   1.708  0.00  0.00    +0.112 A 
ATOM     30  C   UNL     1       3.206  12.681   1.626  0.00  0.00    +0.276 A 
ATOM     31  O   UNL     1       2.602  12.387   2.641  0.00  0.00    -0.265 OA
ATOM     32 BR   UNL     1       2.727  12.326  -4.827  0.00  0.00    -0.050 Br
ENDBRANCH  17  18
ENDBRANCH   1  17
TORSDOF 7
