REMARK  Name = ZINC20850586
REMARK  3 active torsions:
REMARK  status: ('A' for Active; 'I' for Inactive)
REMARK    1  A    between atoms: C_3  and  C_8
REMARK    2  A    between atoms: C_11  and  C_13
REMARK    3  A    between atoms: C_22  and  C_27
REMARK                            x       y       z     vdW  Elec       q    Type
REMARK                         _______ _______ _______ _____ _____    ______ ____
ROOT
ATOM      1  C   UNL     1      -1.292   1.931   0.019  0.00  0.00    +0.072 A 
ATOM      2  C   UNL     1      -1.266   3.315   0.037  0.00  0.00    +0.029 A 
ATOM      3  C   UNL     1      -0.015   3.975   0.035  0.00  0.00    +0.037 A 
ATOM      4  C   UNL     1       1.163   3.253   0.011  0.00  0.00    +0.030 A 
ATOM      5  N   UNL     1       1.139   1.903   0.001  0.00  0.00    -0.325 N 
ATOM      6  H   UNL     1       2.081   1.336  -0.013  0.00  0.00    +0.169 HD
ATOM      7  C   UNL     1      -0.014   1.214   0.009  0.00  0.00    +0.259 A 
ATOM      8  O   UNL     1       0.002  -0.004   0.002  0.00  0.00    -0.267 OA
ATOM      9  C   UNL     1       2.505   3.939  -0.012  0.00  0.00    +0.065 C 
ATOM     10  C   UNL     1       2.416   5.353   0.554  0.00  0.00    +0.068 C 
ATOM     11  C   UNL     1       1.336   6.134  -0.207  0.00  0.00    +0.091 C 
ATOM     12  C   UNL     1       0.013   5.447   0.060  0.00  0.00    +0.166 C 
ATOM     13  O   UNL     1      -0.991   6.089   0.286  0.00  0.00    -0.292 OA
ENDROOT
BRANCH   1  17
ATOM     14  C   UNL     1      -4.016  -0.600  -0.000  0.00  0.00    +0.079 A 
ATOM     15  C   UNL     1      -5.084   0.258   0.010  0.00  0.00    +0.075 A 
ATOM     16  S   UNL     1      -4.242   1.836   0.024  0.00  0.00    -0.075 S 
ATOM     17  C   UNL     1      -2.572   1.197   0.015  0.00  0.00    +0.114 A 
ATOM     18  N   UNL     1      -2.790  -0.109  -0.003  0.00  0.00    -0.239 NA
BRANCH  14  21
ATOM     19  C   UNL     1      -5.728  -3.947  -0.029  0.00  0.00    +0.002 A 
ATOM     20  C   UNL     1      -5.530  -2.581  -0.011  0.00  0.00    +0.010 A 
ATOM     21  C   UNL     1      -4.234  -2.067  -0.014  0.00  0.00    +0.002 A 
ATOM     22  C   UNL     1      -3.145  -2.936  -0.025  0.00  0.00    +0.030 A 
ATOM     23  C   UNL     1      -3.355  -4.301  -0.038  0.00  0.00    +0.042 A 
ATOM     24  C   UNL     1      -4.645  -4.806  -0.040  0.00  0.00    +0.020 A 
ATOM     25 CL   UNL     1      -2.000  -5.386  -0.051  0.00  0.00    -0.084 Cl
ENDBRANCH  14  21
ENDBRANCH   1  17
BRANCH  10  26
ATOM     26  C   UNL     1       3.745   6.045   0.393  0.00  0.00    +0.109 A 
ATOM     27  C   UNL     1       4.505   6.532   1.391  0.00  0.00    +0.045 A 
ATOM     28  C   UNL     1       5.656   7.092   0.793  0.00  0.00    +0.041 A 
ATOM     29  C   UNL     1       5.532   6.914  -0.535  0.00  0.00    +0.195 A 
ATOM     30  O   UNL     1       4.375   6.274  -0.771  0.00  0.00    -0.468 OA
ENDBRANCH  10  26
TORSDOF 3
