REMARK  Name = ZINC00726685
REMARK  12 active torsions:
REMARK  status: ('A' for Active; 'I' for Inactive)
REMARK    1  A    between atoms: C_1  and  C_2
REMARK    2  A    between atoms: C_2  and  O_3
REMARK    3  A    between atoms: O_3  and  C_4
REMARK    4  A    between atoms: C_7  and  C_12
REMARK    5  A    between atoms: C_9  and  O_10
REMARK    6  A    between atoms: O_10  and  C_11
REMARK    7  A    between atoms: C_17  and  C_21
REMARK    8  A    between atoms: C_17  and  C_22
REMARK    9  A    between atoms: C_24  and  C_35
REMARK   10  A    between atoms: C_25  and  C_26
REMARK   11  A    between atoms: C_26  and  O_28
REMARK   12  A    between atoms: O_28  and  C_29
REMARK                            x       y       z     vdW  Elec       q    Type
REMARK                         _______ _______ _______ _____ _____    ______ ____
ROOT
ATOM      1  C   UNL     1      -4.052   2.469   4.822  0.00  0.00    +0.092 C 
ATOM      2  C   UNL     1      -5.024   2.531   5.973  0.00  0.00    +0.024 C 
ATOM      3  C   UNL     1      -4.963   1.630   6.977  0.00  0.00    +0.016 C 
ATOM      4  C   UNL     1      -5.933   1.684   8.130  0.00  0.00    +0.058 C 
ATOM      5  C   UNL     1      -6.354   3.134   8.382  0.00  0.00    -0.023 C 
ATOM      6  C   UNL     1      -6.980   3.688   7.098  0.00  0.00    +0.086 C 
ATOM      7  C   UNL     1      -5.991   3.552   5.972  0.00  0.00    +0.162 C 
ATOM      8  O   UNL     1      -6.029   4.337   5.046  0.00  0.00    -0.292 OA
ATOM      9  C   UNL     1      -5.126   3.968   8.755  0.00  0.00    +0.011 C 
ATOM     10  C   UNL     1      -7.378   3.183   9.516  0.00  0.00    +0.011 C 
ATOM     11  N   UNL     1      -4.016   0.642   6.966  0.00  0.00    -0.321 N 
ATOM     12  C   UNL     1      -3.396   0.286   5.801  0.00  0.00    +0.016 C 
ATOM     13  C   UNL     1      -3.386   1.126   4.751  0.00  0.00    +0.065 C 
ATOM     14  C   UNL     1      -2.715  -1.054   5.693  0.00  0.00    +0.061 C 
ATOM     15  H   UNL     1      -3.748   0.127   7.900  0.00  0.00    +0.152 HD
ENDROOT
BRANCH   1  19
ATOM     16  C   UNL     1      -1.066   5.486   5.345  0.00  0.00    +0.162 A 
ATOM     17  C   UNL     1      -1.209   4.478   6.285  0.00  0.00    +0.050 A 
ATOM     18  C   UNL     1      -2.179   3.508   6.116  0.00  0.00    +0.008 A 
ATOM     19  C   UNL     1      -3.000   3.533   5.004  0.00  0.00    -0.032 A 
ATOM     20  C   UNL     1      -2.864   4.536   4.063  0.00  0.00    +0.054 A 
ATOM     21  C   UNL     1      -1.897   5.515   4.229  0.00  0.00    +0.162 A 
BRANCH  21  22
ATOM     22  O   UNL     1      -1.762   6.503   3.304  0.00  0.00    -0.491 OA
ATOM     23  C   UNL     1      -2.649   6.469   2.184  0.00  0.00    +0.277 C 
ENDBRANCH  21  22
BRANCH  16  24
ATOM     24  O   UNL     1      -0.117   6.445   5.512  0.00  0.00    -0.489 OA
BRANCH  24  26
ATOM     25  C   UNL     1       1.702   7.508   6.697  0.00  0.00    +0.048 C 
ATOM     26  C   UNL     1       0.700   6.352   6.681  0.00  0.00    +0.226 C 
ENDBRANCH  24  26
ENDBRANCH  16  24
ENDBRANCH   1  19
BRANCH  13  27
ATOM     27  C   UNL     1      -2.741   0.734   3.555  0.00  0.00    +0.338 C 
ATOM     28  O   UNL     1      -2.111  -0.307   3.516  0.00  0.00    -0.245 OA
BRANCH  27  29
ATOM     29  O   UNL     1      -2.824   1.514   2.457  0.00  0.00    -0.458 OA
BRANCH  29  30
ATOM     30  C   UNL     1      -2.148   1.056   1.283  0.00  0.00    +0.177 C 
ATOM     31  C   UNL     1      -0.717   1.598   1.275  0.00  0.00    +0.044 C 
ATOM     32  C   UNL     1       0.006   1.108   0.019  0.00  0.00    +0.004 C 
ATOM     33  C   UNL     1      -0.735   1.606  -1.223  0.00  0.00    +0.000 C 
ATOM     34  C   UNL     1      -2.166   1.065  -1.215  0.00  0.00    +0.004 C 
ATOM     35  C   UNL     1      -2.889   1.555   0.041  0.00  0.00    +0.044 C 
ENDBRANCH  29  30
ENDBRANCH  27  29
ENDBRANCH  13  27
TORSDOF 7
