REMARK  Name = ZINC35348937
REMARK  8 active torsions:
REMARK  status: ('A' for Active; 'I' for Inactive)
REMARK    1  A    between atoms: C_1  and  C_2
REMARK    2  A    between atoms: C_7  and  N_12
REMARK    3  A    between atoms: C_9  and  C_11
REMARK    4  A    between atoms: N_12  and  C_13
REMARK    5  A    between atoms: C_16  and  S_19
REMARK    6  A    between atoms: S_19  and  N_22
REMARK    7  A    between atoms: N_22  and  C_23
REMARK    8  A    between atoms: N_22  and  C_24
REMARK                            x       y       z     vdW  Elec       q    Type
REMARK                         _______ _______ _______ _____ _____    ______ ____
ROOT
ATOM      1  C   UNL     1       1.197  -3.799   2.925  0.00  0.00    +0.027 A 
ATOM      2  C   UNL     1       0.257  -4.609   2.300  0.00  0.00    +0.025 A 
ATOM      3  C   UNL     1      -0.011  -5.867   2.802  0.00  0.00    +0.030 A 
ATOM      4  C   UNL     1       0.654  -6.321   3.926  0.00  0.00    +0.106 A 
ATOM      5  C   UNL     1       1.591  -5.518   4.550  0.00  0.00    +0.030 A 
ATOM      6  C   UNL     1       1.868  -4.261   4.051  0.00  0.00    +0.025 A 
ENDROOT
BRANCH   4   7
ATOM      7  S   UNL     1       0.308  -7.927   4.563  0.00  0.00    +0.060 S 
ATOM      8  O   UNL     1       0.666  -7.904   5.938  0.00  0.00    -0.153 OA
ATOM      9  O   UNL     1      -0.999  -8.266   4.122  0.00  0.00    -0.153 OA
BRANCH   7  10
ATOM     10  N   UNL     1       1.347  -8.982   3.822  0.00  0.00    -0.183 NA
ATOM     11  C   UNL     1       2.654  -9.265   4.419  0.00  0.00    +0.131 C 
ATOM     12  C   UNL     1       0.958  -9.634   2.569  0.00  0.00    +0.131 C 
ENDBRANCH   7  10
ENDBRANCH   4   7
BRANCH   1  13
ATOM     13  N   UNL     1       1.471  -2.526   2.420  0.00  0.00    -0.341 N 
ATOM     14  H   UNL     1       2.131  -1.963   2.855  0.00  0.00    +0.146 HD
BRANCH  13  20
ATOM     15  C   UNL     1      -0.019   1.526   0.010  0.00  0.00    +0.008 C 
ATOM     16  C   UNL     1       0.002  -0.004   0.002  0.00  0.00    -0.009 C 
ATOM     17  C   UNL     1       0.718  -0.497  -1.257  0.00  0.00    +0.003 C 
ATOM     18  C   UNL     1       0.739  -2.027  -1.265  0.00  0.00    +0.002 C 
ATOM     19  C   UNL     1       1.479  -2.534  -0.026  0.00  0.00    +0.022 C 
ATOM     20  C   UNL     1       0.763  -2.041   1.233  0.00  0.00    +0.073 C 
ATOM     21  C   UNL     1       0.742  -0.511   1.242  0.00  0.00    +0.009 C 
ATOM     22  C   UNL     1       0.026  -0.018   2.500  0.00  0.00    +0.009 C 
ENDBRANCH  13  20
ENDBRANCH   1  13
TORSDOF 4
