REMARK  Name = ZINC09060775
REMARK  6 active torsions:
REMARK  status: ('A' for Active; 'I' for Inactive)
REMARK    1  A    between atoms: C_3  and  S_8
REMARK    2  A    between atoms: C_6  and  N_7
REMARK    3  A    between atoms: S_8  and  N_11
REMARK    4  A    between atoms: N_11  and  C_12
REMARK    5  A    between atoms: C_12  and  C_32
REMARK    6  A    between atoms: N_20  and  C_25
REMARK                            x       y       z     vdW  Elec       q    Type
REMARK                         _______ _______ _______ _____ _____    ______ ____
ROOT
ATOM      1  C   UNL     1       4.497   1.510   2.563  0.00  0.00    +0.245 C 
ATOM      2  C   UNL     1       4.526   1.867   4.032  0.00  0.00    +0.092 C 
ATOM      3  C   UNL     1       5.312   2.670   4.794  0.00  0.00    +0.253 C 
ATOM      4  O   UNL     1       6.330   3.356   4.234  0.00  0.00    -0.270 OA
ATOM      5  N   UNL     1       5.063   2.778   6.139  0.00  0.00    -0.236 N 
ATOM      6  H   UNL     1       5.622   3.350   6.689  0.00  0.00    +0.159 HD
ATOM      7  C   UNL     1       4.049   2.095   6.700  0.00  0.00    +0.318 C 
ATOM      8  O   UNL     1       3.846   2.206   7.894  0.00  0.00    -0.251 OA
ATOM      9  N   UNL     1       3.254   1.293   5.970  0.00  0.00    -0.209 N 
ATOM     10  C   UNL     1       3.467   1.153   4.611  0.00  0.00    +0.137 C 
ATOM     11  N   UNL     1       2.828   0.433   3.693  0.00  0.00    -0.162 NA
ATOM     12  C   UNL     1       3.324   0.552   2.474  0.00  0.00    +0.273 C 
ATOM     13  O   UNL     1       2.917  -0.002   1.470  0.00  0.00    -0.271 OA
ENDROOT
BRANCH   9  14
ATOM     14  C   UNL     1       2.207   0.597   6.589  0.00  0.00    +0.044 A 
ATOM     15  C   UNL     1       2.263  -0.786   6.701  0.00  0.00    +0.027 A 
ATOM     16  C   UNL     1       1.230  -1.471   7.312  0.00  0.00    +0.040 A 
ATOM     17  C   UNL     1       0.140  -0.779   7.811  0.00  0.00    +0.124 A 
ATOM     18  C   UNL     1       0.082   0.600   7.699  0.00  0.00    +0.040 A 
ATOM     19  C   UNL     1       1.115   1.289   7.095  0.00  0.00    +0.027 A 
ATOM     20  F   UNL     1      -0.870  -1.450   8.407  0.00  0.00    -0.205 F 
ENDBRANCH   9  14
BRANCH   1  21
ATOM     21  C   UNL     1       5.796   0.818   2.145  0.00  0.00    +0.422 C 
ATOM     22  F   UNL     1       6.852   1.733   2.203  0.00  0.00    -0.168 F 
ATOM     23  F   UNL     1       6.055  -0.250   3.010  0.00  0.00    -0.168 F 
ATOM     24  F   UNL     1       5.667   0.337   0.837  0.00  0.00    -0.168 F 
ENDBRANCH   1  21
BRANCH   1  25
ATOM     25  N   UNL     1       4.258   2.701   1.744  0.00  0.00    -0.162 NA
ATOM     26  H   UNL     1       4.860   2.916   1.015  0.00  0.00    +0.150 HD
BRANCH  25  27
ATOM     27  S   UNL     1       2.960   3.678   2.063  0.00  0.00    +0.060 S 
ATOM     28  O   UNL     1       3.006   4.737   1.116  0.00  0.00    -0.153 OA
ATOM     29  O   UNL     1       2.962   3.910   3.465  0.00  0.00    -0.153 OA
BRANCH  27  32
ATOM     30  C   UNL     1      -0.304   1.371   2.455  0.00  0.00    +0.024 A 
ATOM     31  C   UNL     1       0.836   2.100   2.729  0.00  0.00    +0.030 A 
ATOM     32  C   UNL     1       1.507   2.748   1.708  0.00  0.00    +0.105 A 
ATOM     33  C   UNL     1       1.040   2.666   0.409  0.00  0.00    +0.030 A 
ATOM     34  C   UNL     1      -0.099   1.938   0.127  0.00  0.00    +0.024 A 
ATOM     35  C   UNL     1      -0.776   1.287   1.151  0.00  0.00    +0.025 A 
BRANCH  35  36
ATOM     36  N   UNL     1      -1.928   0.550   0.869  0.00  0.00    -0.358 N 
ATOM     37  H   UNL     1      -2.400   0.095   1.585  0.00  0.00    +0.142 HD
ATOM     38  H   UNL     1      -2.257   0.492  -0.042  0.00  0.00    +0.142 HD
ENDBRANCH  35  36
ENDBRANCH  27  32
ENDBRANCH  25  27
ENDBRANCH   1  25
TORSDOF 6
