REMARK  Name = ZINC00079935
REMARK  5 active torsions:
REMARK  status: ('A' for Active; 'I' for Inactive)
REMARK    1  A    between atoms: C_2  and  C_3
REMARK    2  A    between atoms: C_3  and  C_4
REMARK    3  A    between atoms: C_8  and  C_11
REMARK    4  A    between atoms: C_9  and  O_10
REMARK    5  A    between atoms: N_22  and  O_23
REMARK                            x       y       z     vdW  Elec       q    Type
REMARK                         _______ _______ _______ _____ _____    ______ ____
ROOT
ATOM      1  C   UNL     1       0.268  -5.230   1.955  0.00  0.00    +0.223 C 
ATOM      2  N   UNL     1       0.923  -6.138   2.905  0.00  0.00    -0.320 N 
ATOM      3  C   UNL     1       2.201  -6.598   2.609  0.00  0.00    +0.041 A 
ATOM      4  C   UNL     1       3.112  -6.918   3.601  0.00  0.00    +0.024 A 
ATOM      5  C   UNL     1       4.371  -7.369   3.252  0.00  0.00    +0.002 A 
ATOM      6  C   UNL     1       4.728  -7.502   1.920  0.00  0.00    +0.001 A 
ATOM      7  C   UNL     1       3.832  -7.188   0.919  0.00  0.00    +0.015 A 
ATOM      8  C   UNL     1       2.559  -6.735   1.256  0.00  0.00    +0.060 A 
ATOM      9  C   UNL     1       1.559  -6.394   0.228  0.00  0.00    +0.273 C 
ATOM     10  O   UNL     1       1.729  -6.728  -0.929  0.00  0.00    -0.268 OA
ATOM     11  N   UNL     1       0.457  -5.710   0.586  0.00  0.00    -0.154 N 
ATOM     12  H   UNL     1       0.474  -6.410   3.720  0.00  0.00    +0.148 HD
ENDROOT
BRANCH   1  17
ATOM     13  C   UNL     1       1.369  -1.702   1.144  0.00  0.00    -0.002 A 
ATOM     14  C   UNL     1       1.966  -1.324   2.331  0.00  0.00    +0.007 A 
ATOM     15  C   UNL     1       2.014  -2.207   3.394  0.00  0.00    +0.001 A 
ATOM     16  C   UNL     1       1.465  -3.470   3.272  0.00  0.00    +0.011 A 
ATOM     17  C   UNL     1       0.866  -3.853   2.087  0.00  0.00    +0.034 A 
ATOM     18  C   UNL     1       0.812  -2.967   1.021  0.00  0.00    +0.127 A 
BRANCH  18  19
ATOM     19  O   UNL     1       0.219  -3.339  -0.144  0.00  0.00    -0.506 OA
ATOM     20  H   UNL     1       0.820  -3.758  -0.775  0.00  0.00    +0.292 HD
ENDBRANCH  18  19
BRANCH  13  21
ATOM     21  C   UNL     1       1.317  -0.740  -0.015  0.00  0.00    +0.065 C 
BRANCH  21  23
ATOM     22  C   UNL     1      -0.016   1.306   0.009  0.00  0.00    +0.004 C 
ATOM     23  C   UNL     1       0.002  -0.004   0.002  0.00  0.00    -0.030 C 
ENDBRANCH  21  23
ENDBRANCH  13  21
ENDBRANCH   1  17
BRANCH  11  24
ATOM     24  O   UNL     1      -0.540  -5.451  -0.385  0.00  0.00    -0.290 OA
ATOM     25  H   UNL     1      -0.336  -5.803  -1.262  0.00  0.00    +0.242 HD
ENDBRANCH  11  24
TORSDOF 5
