REMARK  Name = ZINC16449878
REMARK  10 active torsions:
REMARK  status: ('A' for Active; 'I' for Inactive)
REMARK    1  A    between atoms: C_5  and  C_7
REMARK    2  A    between atoms: C_7  and  O_8
REMARK    3  A    between atoms: O_8  and  C_9
REMARK    4  A    between atoms: C_12  and  C_15
REMARK    5  A    between atoms: C_15  and  N_50
REMARK    6  A    between atoms: C_16  and  C_17
REMARK    7  A    between atoms: C_16  and  N_50
REMARK    8  A    between atoms: C_17  and  N_18
REMARK    9  A    between atoms: N_18  and  C_19
REMARK   10  A    between atoms: C_22  and  N_26
REMARK                            x       y       z     vdW  Elec       q    Type
REMARK                         _______ _______ _______ _____ _____    ______ ____
ROOT
ATOM      1  N   UNL     1       1.153   4.069   1.406  0.00  0.00    +0.383 N 
ATOM      2  H   UNL     1       2.001   3.731   1.876  0.00  0.00    -0.085 HD
ATOM      3  H   UNL     1       0.324   3.705   1.891  0.00  0.00    -0.085 HD
ENDROOT
BRANCH   1   4
ATOM      4  C   UNL     1       1.147   3.593   0.010  0.00  0.00    -0.047 C 
BRANCH   4   8
ATOM      5  C   UNL     1       1.213  -0.680  -0.013  0.00  0.00    +0.121 A 
ATOM      6  C   UNL     1       0.002  -0.004   0.002  0.00  0.00    +0.046 A 
ATOM      7  C   UNL     1      -0.017   1.377   0.010  0.00  0.00    +0.005 A 
ATOM      8  C   UNL     1       1.171   2.086   0.002  0.00  0.00    -0.064 A 
ATOM      9  C   UNL     1       2.379   1.415  -0.013  0.00  0.00    +0.005 A 
ATOM     10  C   UNL     1       2.403   0.033  -0.021  0.00  0.00    +0.046 A 
BRANCH   5  11
ATOM     11  O   UNL     1       1.234  -2.039  -0.021  0.00  0.00    -0.487 OA
BRANCH  11  12
ATOM     12  C   UNL     1       2.518  -2.668  -0.037  0.00  0.00    +0.266 C 
BRANCH  12  17
ATOM     13  C   UNL     1       0.914  -6.086  -0.040  0.00  0.00    +0.000 A 
ATOM     14  C   UNL     1       2.023  -6.912  -0.055  0.00  0.00    +0.001 A 
ATOM     15  C   UNL     1       3.292  -6.365  -0.065  0.00  0.00    +0.020 A 
ATOM     16  C   UNL     1       3.453  -4.990  -0.059  0.00  0.00    +0.047 A 
ATOM     17  C   UNL     1       2.343  -4.165  -0.044  0.00  0.00    +0.008 A 
ATOM     18  C   UNL     1       1.075  -4.713  -0.029  0.00  0.00    +0.008 A 
ATOM     19 CL   UNL     1       5.047  -4.302  -0.070  0.00  0.00    -0.083 Cl
ENDBRANCH  12  17
ENDBRANCH  11  12
ENDBRANCH   5  11
ENDBRANCH   4   8
ENDBRANCH   1   4
BRANCH   1  20
ATOM     20  C   UNL     1       1.130   5.543   1.444  0.00  0.00    -0.063 C 
BRANCH  20  21
ATOM     21  C   UNL     1       1.137   6.007   2.902  0.00  0.00    +0.082 C 
BRANCH  21  22
ATOM     22  N   UNL     1       1.114   7.471   2.949  0.00  0.00    -0.345 N 
ATOM     23  H   UNL     1       1.099   7.983   2.125  0.00  0.00    +0.146 HD
BRANCH  22  24
ATOM     24  C   UNL     1       1.115   8.131   4.181  0.00  0.00    +0.046 A 
ATOM     25  C   UNL     1       1.138   7.401   5.362  0.00  0.00    +0.026 A 
ATOM     26  C   UNL     1       1.139   8.056   6.578  0.00  0.00    +0.034 A 
ATOM     27  C   UNL     1       1.117   9.438   6.621  0.00  0.00    +0.128 A 
ATOM     28  C   UNL     1       1.095  10.169   5.447  0.00  0.00    +0.054 A 
ATOM     29  C   UNL     1       1.100   9.520   4.227  0.00  0.00    +0.064 A 
ATOM     30 CL   UNL     1       1.080  10.439   2.754  0.00  0.00    -0.082 Cl
BRANCH  27  31
ATOM     31  N   UNL     1       1.119  10.136   7.926  0.00  0.00    +0.056 N 
ATOM     32  O   UNL     1       1.139   9.493   8.960  0.00  0.00    -0.126 OA
ATOM     33  O   UNL     1       1.101  11.353   7.965  0.00  0.00    -0.126 OA
ENDBRANCH  27  31
ENDBRANCH  22  24
ENDBRANCH  21  22
ENDBRANCH  20  21
ENDBRANCH   1  20
TORSDOF 10
