REMARK  Name = ZINC12372576
REMARK  7 active torsions:
REMARK  status: ('A' for Active; 'I' for Inactive)
REMARK    1  A    between atoms: C_1  and  C_2
REMARK    2  A    between atoms: C_3  and  C_25
REMARK    3  A    between atoms: N_4  and  C_18
REMARK    4  A    between atoms: C_5  and  N_17
REMARK    5  A    between atoms: C_6  and  S_7
REMARK    6  A    between atoms: S_7  and  C_10
REMARK    7  A    between atoms: C_18  and  C_19
REMARK                            x       y       z     vdW  Elec       q    Type
REMARK                         _______ _______ _______ _____ _____    ______ ____
ROOT
ATOM      1  C   UNL     1      -5.849   3.506   2.807  0.00  0.00    +0.047 C 
ATOM      2  C   UNL     1      -4.794   2.522   2.373  0.00  0.00    -0.003 A 
ATOM      3  C   UNL     1      -4.245   2.434   1.146  0.00  0.00    +0.023 A 
ATOM      4  N   UNL     1      -3.328   1.415   1.157  0.00  0.00    -0.326 N 
ATOM      5  C   UNL     1      -3.310   0.858   2.404  0.00  0.00    +0.123 A 
ATOM      6  C   UNL     1      -4.202   1.526   3.176  0.00  0.00    +0.136 A 
ATOM      7  C   UNL     1      -4.580   3.306  -0.037  0.00  0.00    +0.064 C 
ENDROOT
BRANCH   6   8
ATOM      8  S   UNL     1      -4.559   1.205   4.871  0.00  0.00    +0.029 S 
ATOM      9  O   UNL     1      -3.414   0.562   5.413  0.00  0.00    -0.164 OA
ATOM     10  O   UNL     1      -5.083   2.411   5.412  0.00  0.00    -0.164 OA
BRANCH   8  11
ATOM     11  C   UNL     1      -5.867   0.025   4.913  0.00  0.00    +0.094 A 
ATOM     12  C   UNL     1      -7.182   0.452   4.935  0.00  0.00    +0.029 A 
ATOM     13  C   UNL     1      -8.209  -0.474   4.962  0.00  0.00    +0.022 A 
ATOM     14  C   UNL     1      -7.920  -1.827   4.980  0.00  0.00    +0.041 A 
ATOM     15  C   UNL     1      -6.604  -2.253   4.964  0.00  0.00    +0.022 A 
ATOM     16  C   UNL     1      -5.578  -1.327   4.931  0.00  0.00    +0.029 A 
ATOM     17 CL   UNL     1      -9.208  -2.989   5.021  0.00  0.00    -0.084 Cl
ENDBRANCH   8  11
ENDBRANCH   6   8
BRANCH   5  18
ATOM     18  N   UNL     1      -2.511  -0.210   2.812  0.00  0.00    -0.343 N 
ATOM     19  H   UNL     1      -1.898  -0.624   2.185  0.00  0.00    +0.144 HD
ATOM     20  H   UNL     1      -2.569  -0.538   3.723  0.00  0.00    +0.144 HD
ENDBRANCH   5  18
BRANCH   4  21
ATOM     21  C   UNL     1      -2.509   0.989   0.020  0.00  0.00    +0.178 C 
BRANCH  21  22
ATOM     22  C   UNL     1      -1.214   1.759   0.017  0.00  0.00    +0.061 A 
ATOM     23  C   UNL     1      -0.013   1.076   0.008  0.00  0.00    +0.025 A 
ATOM     24  C   UNL     1       1.173   1.794   0.001  0.00  0.00    +0.003 A 
ATOM     25  C   UNL     1       1.106   3.179   0.008  0.00  0.00    +0.020 A 
ATOM     26  C   UNL     1      -0.132   3.793   0.023  0.00  0.00    +0.111 A 
ATOM     27  N   UNL     1      -1.240   3.078   0.029  0.00  0.00    -0.258 NA
ENDBRANCH  21  22
ENDBRANCH   4  21
TORSDOF 5
