REMARK  Name = ZINC20833078
REMARK  10 active torsions:
REMARK  status: ('A' for Active; 'I' for Inactive)
REMARK    1  A    between atoms: C_1  and  C_2
REMARK    2  A    between atoms: C_2  and  C_31
REMARK    3  A    between atoms: C_4  and  N_10
REMARK    4  A    between atoms: C_6  and  C_8
REMARK    5  A    between atoms: C_6  and  C_9
REMARK    6  A    between atoms: C_11  and  C_13
REMARK    7  A    between atoms: C_13  and  S_14
REMARK    8  A    between atoms: S_14  and  C_15
REMARK    9  A    between atoms: N_20  and  N_21
REMARK   10  A    between atoms: C_22  and  C_23
REMARK                            x       y       z     vdW  Elec       q    Type
REMARK                         _______ _______ _______ _____ _____    ______ ____
ROOT
ATOM      1  S   UNL     1       5.883  -8.069  -0.101  0.00  0.00    -0.075 S 
ENDROOT
BRANCH   1   2
ATOM      2  C   UNL     1       5.136  -6.473  -0.084  0.00  0.00    +0.211 A 
ATOM      3  N   UNL     1       3.795  -6.214  -0.069  0.00  0.00    -0.186 NA
ATOM      4  C   UNL     1       3.627  -4.857  -0.059  0.00  0.00    +0.232 A 
ATOM      5  N   UNL     1       4.815  -4.302  -0.073  0.00  0.00    -0.245 N 
ATOM      6  N   UNL     1       5.771  -5.325  -0.084  0.00  0.00    -0.144 NA
ATOM      7  N   UNL     1       2.413  -4.186  -0.044  0.00  0.00    -0.205 N 
ATOM      8  H   UNL     1       1.471  -4.754  -0.039  0.00  0.00    +0.177 HD
ATOM      9  H   UNL     1       4.909  -3.206  -0.075  0.00  0.00    +0.192 HD
BRANCH   7  10
ATOM     10  N   UNL     1       2.387  -2.785  -0.036  0.00  0.00    -0.188 NA
ATOM     11  C   UNL     1       1.250  -2.157  -0.022  0.00  0.00    +0.139 C 
BRANCH  11  12
ATOM     12  C   UNL     1       1.223  -0.683  -0.013  0.00  0.00    +0.013 A 
ATOM     13  C   UNL     1       0.002  -0.004   0.002  0.00  0.00    +0.012 A 
ATOM     14  C   UNL     1      -0.017   1.375   0.010  0.00  0.00    +0.021 A 
ATOM     15  C   UNL     1       1.171   2.087   0.002  0.00  0.00    +0.042 A 
ATOM     16  C   UNL     1       2.385   1.421  -0.013  0.00  0.00    +0.040 A 
ATOM     17  C   UNL     1       2.419   0.041  -0.021  0.00  0.00    +0.051 A 
ATOM     18 CL   UNL     1       3.941  -0.792  -0.040  0.00  0.00    -0.083 Cl
ATOM     19 CL   UNL     1       1.138   3.823   0.012  0.00  0.00    -0.083 Cl
ENDBRANCH  11  12
ENDBRANCH   7  10
ENDBRANCH   1   2
BRANCH   1  20
ATOM     20  C   UNL     1       7.663  -7.721  -0.116  0.00  0.00    +0.173 C 
BRANCH  20  22
ATOM     21  N   UNL     1       9.776  -9.007  -0.145  0.00  0.00    -0.312 N 
ATOM     22  C   UNL     1       8.428  -9.019  -0.132  0.00  0.00    +0.224 C 
ATOM     23  O   UNL     1       7.832 -10.075  -0.132  0.00  0.00    -0.275 OA
ATOM     24  H   UNL     1      10.317  -8.049  -0.144  0.00  0.00    +0.149 HD
BRANCH  21  28
ATOM     25  C   UNL     1      12.176 -12.258  -1.894  0.00  0.00    -0.010 C 
ATOM     26  C   UNL     1      12.705 -11.333  -0.791  0.00  0.00    -0.072 C 
ATOM     27  C   UNL     1      11.898 -10.037  -0.782  0.00  0.00    +0.009 C 
ATOM     28  C   UNL     1      10.522 -10.272  -0.160  0.00  0.00    +0.070 C 
ATOM     29  C   UNL     1      10.714 -10.759   1.276  0.00  0.00    +0.009 C 
ATOM     30  C   UNL     1      11.508 -12.063   1.293  0.00  0.00    -0.072 C 
ATOM     31  N   UNL     1      12.714 -12.002   0.493  0.00  0.00    +0.386 N 
ATOM     32  C   UNL     1      10.605 -13.219   0.845  0.00  0.00    -0.010 C 
ATOM     33  C   UNL     1      11.915 -12.341   2.757  0.00  0.00    -0.010 C 
ATOM     34  C   UNL     1      14.161 -10.972  -1.158  0.00  0.00    -0.010 C 
ATOM     35  H   UNL     1      12.992 -13.057   0.355  0.00  0.00    -0.084 HD
ATOM     36  H   UNL     1      13.444 -11.514   1.155  0.00  0.00    -0.084 HD
ENDBRANCH  21  28
ENDBRANCH  20  22
ENDBRANCH   1  20
TORSDOF 6
