REMARK  Name = ZINC40570899
REMARK  8 active torsions:
REMARK  status: ('A' for Active; 'I' for Inactive)
REMARK    1  A    between atoms: C_1  and  C_2
REMARK    2  A    between atoms: C_8  and  C_12
REMARK    3  A    between atoms: N_16  and  C_17
REMARK    4  A    between atoms: C_20  and  S_23
REMARK    5  A    between atoms: S_23  and  N_26
REMARK    6  A    between atoms: N_26  and  C_27
REMARK    7  A    between atoms: C_28  and  C_33
REMARK    8  A    between atoms: C_29  and  C_32
REMARK                            x       y       z     vdW  Elec       q    Type
REMARK                         _______ _______ _______ _____ _____    ______ ____
ROOT
ATOM      1  C   UNL     1       2.554   1.363  -1.693  0.00  0.00    +0.063 C 
ATOM      2  C   UNL     1       2.434  -0.034  -2.245  0.00  0.00    +0.015 A 
ATOM      3  C   UNL     1       1.289  -0.711  -2.049  0.00  0.00    +0.047 A 
ATOM      4  C   UNL     1       1.146  -2.030  -2.557  0.00  0.00    +0.050 A 
ATOM      5  C   UNL     1       2.285  -2.612  -3.295  0.00  0.00    +0.022 A 
ATOM      6  C   UNL     1       2.226  -3.898  -3.825  0.00  0.00    +0.012 A 
ATOM      7  C   UNL     1       3.312  -4.403  -4.508  0.00  0.00    +0.013 A 
ATOM      8  C   UNL     1       4.458  -3.638  -4.666  0.00  0.00    +0.057 A 
ATOM      9  C   UNL     1       4.530  -2.363  -4.145  0.00  0.00    +0.038 A 
ATOM     10  C   UNL     1       3.445  -1.836  -3.455  0.00  0.00    +0.049 A 
ATOM     11  N   UNL     1       3.487  -0.560  -2.929  0.00  0.00    -0.358 N 
ATOM     12  N   UNL     1       0.027  -2.716  -2.375  0.00  0.00    -0.355 N 
ATOM     13  H   UNL     1       4.289  -0.027  -3.045  0.00  0.00    +0.166 HD
ATOM     14  H   UNL     1      -0.797  -2.252  -2.160  0.00  0.00    +0.166 HD
ENDROOT
BRANCH  12  15
ATOM     15  C   UNL     1       0.034  -4.076  -2.490  0.00  0.00    +0.040 A 
ATOM     16  C   UNL     1       0.855  -4.847  -1.662  0.00  0.00    +0.027 A 
ATOM     17  C   UNL     1       0.856  -6.221  -1.785  0.00  0.00    +0.031 A 
ATOM     18  C   UNL     1       0.047  -6.836  -2.724  0.00  0.00    +0.111 A 
ATOM     19  C   UNL     1      -0.768  -6.079  -3.548  0.00  0.00    +0.031 A 
ATOM     20  C   UNL     1      -0.785  -4.705  -3.433  0.00  0.00    +0.027 A 
BRANCH  18  21
ATOM     21  S   UNL     1       0.056  -8.591  -2.873  0.00  0.00    +0.094 S 
ATOM     22  O   UNL     1      -0.379  -8.889  -4.193  0.00  0.00    -0.148 OA
ATOM     23  O   UNL     1       1.306  -9.036  -2.364  0.00  0.00    -0.148 OA
BRANCH  21  24
ATOM     24  N   UNL     1      -1.107  -9.175  -1.849  0.00  0.00    -0.057 NA
BRANCH  24  25
ATOM     25  C   UNL     1      -1.326 -10.537  -1.756  0.00  0.00    +0.262 A 
ATOM     26  C   UNL     1      -2.247 -11.149  -0.965  0.00  0.00    +0.037 A 
ATOM     27  C   UNL     1      -2.144 -12.531  -1.168  0.00  0.00    +0.085 A 
ATOM     28  N   UNL     1      -1.202 -12.746  -2.046  0.00  0.00    -0.081 NA
ATOM     29  O   UNL     1      -0.671 -11.493  -2.437  0.00  0.00    -0.336 OA
ATOM     30  C   UNL     1      -2.978 -13.588  -0.491  0.00  0.00    +0.069 C 
ATOM     31  C   UNL     1      -3.208 -10.460  -0.031  0.00  0.00    +0.051 C 
ENDBRANCH  24  25
ENDBRANCH  21  24
ENDBRANCH  18  21
ENDBRANCH  12  15
BRANCH   8  32
ATOM     32  C   UNL     1       5.637  -4.206  -5.414  0.00  0.00    +0.417 C 
ATOM     33  F   UNL     1       5.335  -5.502  -5.845  0.00  0.00    -0.166 F 
ATOM     34  F   UNL     1       5.918  -3.399  -6.522  0.00  0.00    -0.166 F 
ATOM     35  F   UNL     1       6.751  -4.243  -4.569  0.00  0.00    -0.166 F 
ENDBRANCH   8  32
TORSDOF 5
