REMARK  Name = ZINC39861539
REMARK  6 active torsions:
REMARK  status: ('A' for Active; 'I' for Inactive)
REMARK    1  A    between atoms: C_1  and  C_2
REMARK    2  A    between atoms: C_5  and  C_11
REMARK    3  A    between atoms: C_6  and  N_8
REMARK    4  A    between atoms: C_14  and  C_16
REMARK    5  A    between atoms: N_20  and  C_24
REMARK    6  A    between atoms: C_29  and  C_30
REMARK                            x       y       z     vdW  Elec       q    Type
REMARK                         _______ _______ _______ _____ _____    ______ ____
ROOT
ATOM      1  C   UNL     1       1.309  -7.399   0.974  0.00  0.00    +0.066 C 
ATOM      2  C   UNL     1       2.439  -7.202   1.786  0.00  0.00    +0.080 C 
ATOM      3  C   UNL     1       3.022  -5.923   2.278  0.00  0.00    +0.263 C 
ATOM      4  O   UNL     1       2.536  -4.846   2.000  0.00  0.00    -0.269 OA
ATOM      5  N   UNL     1       4.103  -6.030   3.037  0.00  0.00    -0.223 N 
ATOM      6  C   UNL     1       4.590  -7.258   3.306  0.00  0.00    +0.125 C 
ATOM      7  S   UNL     1       5.957  -7.670   4.250  0.00  0.00    -0.027 S 
ATOM      8  S   UNL     1       3.470  -8.351   2.454  0.00  0.00    -0.061 S 
ENDROOT
BRANCH   5   9
ATOM      9  C   UNL     1       4.727  -4.891   3.548  0.00  0.00    +0.055 A 
ATOM     10  C   UNL     1       4.349  -4.386   4.785  0.00  0.00    +0.024 A 
ATOM     11  C   UNL     1       4.967  -3.259   5.289  0.00  0.00    +0.002 A 
ATOM     12  C   UNL     1       5.966  -2.625   4.567  0.00  0.00    +0.001 A 
ATOM     13  C   UNL     1       6.354  -3.114   3.338  0.00  0.00    +0.015 A 
ATOM     14  C   UNL     1       5.742  -4.256   2.818  0.00  0.00    +0.058 A 
BRANCH  14  15
ATOM     15  C   UNL     1       6.156  -4.788   1.506  0.00  0.00    +0.243 C 
ATOM     16  O   UNL     1       5.617  -5.780   1.054  0.00  0.00    -0.270 OA
ATOM     17  N   UNL     1       7.132  -4.174   0.808  0.00  0.00    -0.325 N 
ATOM     18  H   UNL     1       7.562  -3.383   1.168  0.00  0.00    +0.145 HD
ATOM     19  H   UNL     1       7.404  -4.524  -0.055  0.00  0.00    +0.145 HD
ENDBRANCH  14  15
ENDBRANCH   5   9
BRANCH   1  23
ATOM     20  C   UNL     1      -0.368  -4.305   0.586  0.00  0.00    +0.138 A 
ATOM     21  C   UNL     1      -1.136  -5.080  -0.307  0.00  0.00    +0.050 A 
ATOM     22  C   UNL     1      -0.628  -6.343  -0.297  0.00  0.00    +0.050 A 
ATOM     23  C   UNL     1       0.495  -6.327   0.646  0.00  0.00    +0.130 A 
ATOM     24  O   UNL     1       0.594  -5.069   1.131  0.00  0.00    -0.455 OA
BRANCH  20  29
ATOM     25  C   UNL     1      -1.210   1.264   1.705  0.00  0.00    +0.044 C 
ATOM     26  C   UNL     1      -0.989  -0.197   1.412  0.00  0.00    -0.048 A 
ATOM     27  C   UNL     1      -0.916  -0.632   0.097  0.00  0.00    +0.004 A 
ATOM     28  C   UNL     1      -0.715  -1.964  -0.182  0.00  0.00    +0.014 A 
ATOM     29  C   UNL     1      -0.582  -2.886   0.871  0.00  0.00    +0.047 A 
ATOM     30  C   UNL     1      -0.657  -2.435   2.200  0.00  0.00    +0.137 A 
ATOM     31  C   UNL     1      -0.855  -1.097   2.458  0.00  0.00    +0.036 A 
BRANCH  30  32
ATOM     32  N   UNL     1      -0.520  -3.394   3.319  0.00  0.00    +0.057 N 
ATOM     33  O   UNL     1      -0.591  -2.969   4.564  0.00  0.00    -0.126 OA
ATOM     34  O   UNL     1      -0.327  -4.673   3.070  0.00  0.00    -0.126 OA
ENDBRANCH  30  32
ENDBRANCH  20  29
ENDBRANCH   1  23
TORSDOF 5
