REMARK  Name = ZINC26967418
REMARK  9 active torsions:
REMARK  status: ('A' for Active; 'I' for Inactive)
REMARK    1  A    between atoms: C_1  and  C_2
REMARK    2  A    between atoms: C_2  and  C_3
REMARK    3  A    between atoms: C_2  and  C_4
REMARK    4  A    between atoms: N_6  and  C_7
REMARK    5  A    between atoms: C_7  and  C_9
REMARK    6  A    between atoms: C_7  and  O_13
REMARK    7  A    between atoms: O_13  and  C_14
REMARK    8  A    between atoms: C_17  and  C_20
REMARK    9  A    between atoms: N_21  and  C_22
REMARK                            x       y       z     vdW  Elec       q    Type
REMARK                         _______ _______ _______ _____ _____    ______ ____
ROOT
ATOM      1  C   UNL     1       1.692  -0.610  -6.654  0.00  0.00    +0.123 A 
ATOM      2  C   UNL     1       1.873   0.746  -6.409  0.00  0.00    +0.046 A 
ATOM      3  C   UNL     1       1.337   1.322  -5.279  0.00  0.00    +0.013 A 
ATOM      4  C   UNL     1       0.611   0.540  -4.376  0.00  0.00    -0.009 A 
ATOM      5  C   UNL     1       0.436  -0.824  -4.623  0.00  0.00    +0.013 A 
ATOM      6  C   UNL     1       0.970  -1.391  -5.759  0.00  0.00    +0.046 A 
ENDROOT
BRANCH   4   7
ATOM      7  C   UNL     1       0.035   1.152  -3.164  0.00  0.00    +0.086 C 
ATOM      8  N   UNL     1      -0.637   0.427  -2.330  0.00  0.00    -0.385 N 
ATOM      9  H   UNL     1      -0.780  -0.646  -2.525  0.00  0.00    +0.159 HD
BRANCH   8  10
ATOM     10  C   UNL     1      -1.209   1.035  -1.126  0.00  0.00    +0.101 C 
ATOM     11  C   UNL     1      -0.629   0.355   0.125  0.00  0.00    +0.048 C 
ATOM     12  C   UNL     1      -1.451   0.758   1.373  0.00  0.00    +0.168 C 
ATOM     13  S   UNL     1      -3.115   1.096   0.670  0.00  0.00    -0.029 S 
ATOM     14  O   UNL     1      -3.436   2.465   0.879  0.00  0.00    -0.174 OA
ATOM     15  O   UNL     1      -4.017   0.091   1.112  0.00  0.00    -0.174 OA
ATOM     16  C   UNL     1      -2.751   0.832  -1.117  0.00  0.00    +0.190 C 
ENDBRANCH   8  10
ENDBRANCH   4   7
BRANCH   1  17
ATOM     17  O   UNL     1       2.221  -1.173  -7.770  0.00  0.00    -0.467 OA
BRANCH  17  18
ATOM     18  C   UNL     1       2.090  -2.590  -7.906  0.00  0.00    +0.313 C 
BRANCH  18  21
ATOM     19  C   UNL     1       4.269  -3.667  -7.743  0.00  0.00    +0.218 C 
ATOM     20  O   UNL     1       4.177  -3.611  -6.535  0.00  0.00    -0.275 OA
ATOM     21  N   UNL     1       3.304  -3.136  -8.518  0.00  0.00    -0.277 N 
ATOM     22  H   UNL     1       3.427  -3.112  -9.611  0.00  0.00    +0.152 HD
BRANCH  19  24
ATOM     23  C   UNL     1       6.207  -3.318  -9.250  0.00  0.00    +0.017 C 
ATOM     24  C   UNL     1       5.465  -4.331  -8.377  0.00  0.00    +0.069 C 
ATOM     25  C   UNL     1       6.402  -4.846  -7.282  0.00  0.00    +0.017 C 
ENDBRANCH  19  24
ENDBRANCH  18  21
BRANCH  18  26
ATOM     26  C   UNL     1       0.884  -2.908  -8.792  0.00  0.00    +0.244 C 
ATOM     27 CL   UNL     1       1.122  -2.167 -10.419  0.00  0.00    -0.078 Cl
ATOM     28 CL   UNL     1       0.719  -4.695  -8.964  0.00  0.00    -0.078 Cl
ATOM     29 CL   UNL     1      -0.610  -2.236  -8.038  0.00  0.00    -0.078 Cl
ENDBRANCH  18  26
ENDBRANCH  17  18
ENDBRANCH   1  17
TORSDOF 7
