REMARK  Name = ZINC63573478
REMARK  5 active torsions:
REMARK  status: ('A' for Active; 'I' for Inactive)
REMARK    1  A    between atoms: C_1  and  C_2
REMARK    2  A    between atoms: C_5  and  C_8
REMARK    3  A    between atoms: C_15  and  O_20
REMARK    4  A    between atoms: O_20  and  C_21
REMARK    5  A    between atoms: N_27  and  C_28
REMARK                            x       y       z     vdW  Elec       q    Type
REMARK                         _______ _______ _______ _____ _____    ______ ____
ROOT
ATOM      1  C   UNL     1       0.449  -4.775   0.173  0.00  0.00    +0.134 C 
ATOM      2  C   UNL     1       1.817  -5.195   0.722  0.00  0.00    +0.131 C 
ATOM      3  C   UNL     1       1.966  -4.522   2.080  0.00  0.00    -0.035 C 
ATOM      4  C   UNL     1       3.088  -3.815   2.028  0.00  0.00    +0.003 A 
ATOM      5  C   UNL     1       3.792  -3.014   3.041  0.00  0.00    +0.055 A 
ATOM      6  C   UNL     1       4.938  -2.396   2.642  0.00  0.00    +0.121 A 
ATOM      7  C   UNL     1       5.466  -2.484   1.345  0.00  0.00    +0.047 A 
ATOM      8  C   UNL     1       4.902  -3.198   0.338  0.00  0.00    +0.029 A 
ATOM      9  C   UNL     1       3.658  -3.916   0.649  0.00  0.00    +0.043 A 
ATOM     10  N   UNL     1       2.914  -4.696  -0.111  0.00  0.00    -0.375 N 
ATOM     11  C   UNL     1       0.925  -4.650   3.166  0.00  0.00    +0.052 C 
ATOM     12  C   UNL     1      -0.430  -4.302   2.522  0.00  0.00    +0.114 C 
ATOM     13  N   UNL     1      -0.549  -4.992   1.233  0.00  0.00    -0.276 N 
ATOM     14  C   UNL     1      -1.580  -5.833   1.016  0.00  0.00    +0.307 C 
ATOM     15  O   UNL     1      -1.641  -6.465  -0.021  0.00  0.00    -0.252 OA
ATOM     16  N   UNL     1      -2.543  -5.972   1.949  0.00  0.00    -0.267 N 
ATOM     17  H   UNL     1      -2.509  -5.446   2.763  0.00  0.00    +0.156 HD
ATOM     18  H   UNL     1       3.054  -4.904  -1.049  0.00  0.00    +0.160 HD
ENDROOT
BRANCH  16  19
ATOM     19  C   UNL     1      -3.592  -6.877   1.742  0.00  0.00    +0.073 A 
ATOM     20  C   UNL     1      -3.907  -7.295   0.457  0.00  0.00    +0.064 A 
ATOM     21  C   UNL     1      -4.944  -8.189   0.256  0.00  0.00    +0.125 A 
ATOM     22  C   UNL     1      -5.666  -8.666   1.337  0.00  0.00    +0.041 A 
ATOM     23  C   UNL     1      -5.355  -8.252   2.618  0.00  0.00    +0.043 A 
ATOM     24  C   UNL     1      -4.316  -7.362   2.825  0.00  0.00    +0.145 A 
ATOM     25  F   UNL     1      -4.009  -6.962   4.079  0.00  0.00    -0.204 F 
ATOM     26  F   UNL     1      -5.251  -8.596  -0.995  0.00  0.00    -0.205 F 
ENDBRANCH  16  19
BRANCH   1  31
ATOM     27  C   UNL     1       0.564   0.813  -1.294  0.00  0.00    +0.044 C 
ATOM     28  C   UNL     1       0.534  -0.644  -0.912  0.00  0.00    -0.050 A 
ATOM     29  C   UNL     1       0.875  -1.029   0.372  0.00  0.00    +0.004 A 
ATOM     30  C   UNL     1       0.847  -2.366   0.723  0.00  0.00    +0.006 A 
ATOM     31  C   UNL     1       0.478  -3.318  -0.209  0.00  0.00    -0.025 A 
ATOM     32  C   UNL     1       0.136  -2.933  -1.492  0.00  0.00    +0.006 A 
ATOM     33  C   UNL     1       0.160  -1.596  -1.842  0.00  0.00    +0.004 A 
ENDBRANCH   1  31
BRANCH   6  34
ATOM     34  O   UNL     1       5.611  -1.647   3.555  0.00  0.00    -0.495 OA
ATOM     35  C   UNL     1       6.810  -1.008   3.114  0.00  0.00    +0.277 C 
ENDBRANCH   6  34
TORSDOF 3
