REMARK  Name = ZINC02090737
REMARK  7 active torsions:
REMARK  status: ('A' for Active; 'I' for Inactive)
REMARK    1  A    between atoms: C_1  and  C_2
REMARK    2  A    between atoms: C_5  and  N_37
REMARK    3  A    between atoms: C_7  and  N_8
REMARK    4  A    between atoms: C_11  and  C_18
REMARK    5  A    between atoms: C_13  and  C_16
REMARK    6  A    between atoms: C_14  and  N_15
REMARK    7  A    between atoms: C_28  and  C_31
REMARK                            x       y       z     vdW  Elec       q    Type
REMARK                         _______ _______ _______ _____ _____    ______ ____
ROOT
ATOM      1  N   UNL     1      -4.728   2.734   0.044  0.00  0.00    -0.260 N 
ATOM      2  C   UNL     1      -4.340   2.161   1.227  0.00  0.00    +0.025 C 
ATOM      3  C   UNL     1      -3.288   1.316   1.269  0.00  0.00    +0.025 C 
ATOM      4  C   UNL     1      -2.514   0.979   0.019  0.00  0.00    +0.097 C 
ATOM      5  C   UNL     1      -3.296   1.327  -1.213  0.00  0.00    +0.077 C 
ATOM      6  C   UNL     1      -4.351   2.179  -1.158  0.00  0.00    +0.107 C 
ATOM      7  C   UNL     1      -2.881   0.725   2.478  0.00  0.00    +0.162 C 
ATOM      8  O   UNL     1      -1.939  -0.043   2.479  0.00  0.00    -0.292 OA
ATOM      9  C   UNL     1      -3.589   1.027   3.770  0.00  0.00    +0.088 C 
ATOM     10  C   UNL     1      -4.194   2.433   3.691  0.00  0.00    +0.032 C 
ATOM     11  C   UNL     1      -5.120   2.494   2.474  0.00  0.00    +0.060 C 
ENDROOT
BRANCH   1  18
ATOM     12  C   UNL     1      -7.559   2.439   0.057  0.00  0.00    +0.045 C 
ATOM     13  C   UNL     1      -6.899   3.794   0.065  0.00  0.00    -0.029 A 
ATOM     14  C   UNL     1      -7.671   4.939   0.080  0.00  0.00    +0.007 A 
ATOM     15  C   UNL     1      -7.066   6.183   0.088  0.00  0.00    +0.033 A 
ATOM     16  C   UNL     1      -5.686   6.284   0.081  0.00  0.00    +0.128 A 
ATOM     17  C   UNL     1      -4.909   5.143   0.071  0.00  0.00    +0.056 A 
ATOM     18  C   UNL     1      -5.513   3.892   0.058  0.00  0.00    +0.045 A 
BRANCH  16  19
ATOM     19  N   UNL     1      -5.043   7.617   0.091  0.00  0.00    +0.056 N 
ATOM     20  O   UNL     1      -5.728   8.624   0.104  0.00  0.00    -0.126 OA
ATOM     21  O   UNL     1      -3.828   7.707   0.085  0.00  0.00    -0.126 OA
ENDBRANCH  16  19
ENDBRANCH   1  18
BRANCH   4  22
ATOM     22  C   UNL     1      -1.219   1.750   0.017  0.00  0.00    -0.033 A 
ATOM     23  C   UNL     1      -0.013   1.076   0.008  0.00  0.00    +0.004 A 
ATOM     24  C   UNL     1       1.175   1.783   0.000  0.00  0.00    +0.002 A 
ATOM     25  C   UNL     1       1.157   3.165   0.008  0.00  0.00    +0.020 A 
ATOM     26  C   UNL     1      -0.050   3.841   0.023  0.00  0.00    +0.041 A 
ATOM     27  C   UNL     1      -1.239   3.132   0.031  0.00  0.00    +0.024 A 
ATOM     28 CL   UNL     1      -0.074   5.576   0.033  0.00  0.00    -0.084 Cl
ENDBRANCH   4  22
BRANCH  10  29
ATOM     29  C   UNL     1      -4.983   2.716   4.943  0.00  0.00    -0.044 A 
ATOM     30  C   UNL     1      -6.046   1.903   5.289  0.00  0.00    +0.004 A 
ATOM     31  C   UNL     1      -6.767   2.161   6.440  0.00  0.00    +0.000 A 
ATOM     32  C   UNL     1      -6.431   3.236   7.240  0.00  0.00    +0.000 A 
ATOM     33  C   UNL     1      -5.371   4.052   6.892  0.00  0.00    +0.000 A 
ATOM     34  C   UNL     1      -4.647   3.792   5.743  0.00  0.00    +0.004 A 
ENDBRANCH  10  29
BRANCH   6  35
ATOM     35  N   UNL     1      -5.044   2.488  -2.304  0.00  0.00    -0.345 N 
ATOM     36  H   UNL     1      -5.798   3.097  -2.266  0.00  0.00    +0.144 HD
ATOM     37  H   UNL     1      -4.779   2.097  -3.151  0.00  0.00    +0.144 HD
ENDBRANCH   6  35
BRANCH   5  38
ATOM     38  C   UNL     1      -2.922   0.752  -2.470  0.00  0.00    +0.099 C 
ATOM     39  N   UNL     1      -2.626   0.295  -3.467  0.00  0.00    -0.191 NA
ENDBRANCH   5  38
TORSDOF 6
