REMARK  Name = ZINC53128175
REMARK  7 active torsions:
REMARK  status: ('A' for Active; 'I' for Inactive)
REMARK    1  A    between atoms: C_1  and  C_2
REMARK    2  A    between atoms: C_7  and  C_9
REMARK    3  A    between atoms: C_7  and  N_11
REMARK    4  A    between atoms: C_9  and  O_10
REMARK    5  A    between atoms: C_12  and  C_14
REMARK    6  A    between atoms: C_17  and  O_21
REMARK    7  A    between atoms: O_21  and  C_22
REMARK                            x       y       z     vdW  Elec       q    Type
REMARK                         _______ _______ _______ _____ _____    ______ ____
ROOT
ATOM      1  N   UNL     1      -0.612  -2.545   1.218  0.00  0.00    -0.309 N 
ATOM      2  C   UNL     1      -1.480  -2.162   2.175  0.00  0.00    +0.200 C 
ATOM      3  O   UNL     1      -1.151  -1.331   2.995  0.00  0.00    -0.278 OA
ATOM      4  H   UNL     1      -0.898  -3.153   0.519  0.00  0.00    +0.149 HD
ENDROOT
BRANCH   1  10
ATOM      5  C   UNL     1       0.083   1.366  -0.422  0.00  0.00    +0.007 C 
ATOM      6  C   UNL     1       0.093  -0.155  -0.259  0.00  0.00    -0.012 C 
ATOM      7  C   UNL     1       0.879  -0.786  -1.410  0.00  0.00    +0.003 C 
ATOM      8  C   UNL     1       0.889  -2.308  -1.247  0.00  0.00    +0.002 C 
ATOM      9  C   UNL     1       1.550  -2.674   0.083  0.00  0.00    +0.028 C 
ATOM     10  C   UNL     1       0.764  -2.043   1.234  0.00  0.00    +0.058 C 
ATOM     11  C   UNL     1       0.754  -0.521   1.071  0.00  0.00    +0.031 C 
BRANCH  10  12
ATOM     12  C   UNL     1       1.425  -2.409   2.564  0.00  0.00    +0.181 C 
BRANCH  12  13
ATOM     13  O   UNL     1       1.322  -3.818   2.775  0.00  0.00    -0.393 OA
ATOM     14  H   UNL     1       1.721  -4.122   3.602  0.00  0.00    +0.209 HD
ENDBRANCH  12  13
ENDBRANCH  10  12
ENDBRANCH   1  10
BRANCH   2  15
ATOM     15  C   UNL     1      -2.860  -2.765   2.226  0.00  0.00    +0.018 C 
ATOM     16  C   UNL     1      -3.774  -2.075   1.193  0.00  0.00    +0.023 C 
ATOM     17  C   UNL     1      -5.134  -1.984   1.934  0.00  0.00    +0.100 C 
ATOM     18  C   UNL     1      -4.679  -1.726   3.392  0.00  0.00    -0.050 C 
ATOM     19  N   UNL     1      -3.455  -2.545   3.557  0.00  0.00    +0.388 N 
ATOM     20  H   UNL     1      -3.691  -3.432   3.975  0.00  0.00    -0.085 HD
ATOM     21  H   UNL     1      -2.797  -2.058   4.147  0.00  0.00    -0.085 HD
BRANCH  17  22
ATOM     22  O   UNL     1      -5.915  -0.895   1.440  0.00  0.00    -0.382 OA
ATOM     23  C   UNL     1      -7.326  -1.106   1.522  0.00  0.00    +0.194 C 
ENDBRANCH  17  22
ENDBRANCH   2  15
TORSDOF 5
