REMARK  Name = ZINC02214671
REMARK  4 active torsions:
REMARK  status: ('A' for Active; 'I' for Inactive)
REMARK    1  A    between atoms: C_1  and  O_2
REMARK    2  A    between atoms: O_2  and  C_3
REMARK    3  A    between atoms: C_8  and  N_9
REMARK    4  A    between atoms: N_22  and  C_23
REMARK                            x       y       z     vdW  Elec       q    Type
REMARK                         _______ _______ _______ _____ _____    ______ ____
ROOT
ATOM      1  N   UNL     1      -0.076  -2.780  -0.013  0.00  0.00    -0.236 N 
ATOM      2  C   UNL     1       0.787  -3.333   0.907  0.00  0.00    +0.195 C 
ATOM      3  N   UNL     1       1.851  -3.368   0.033  0.00  0.00    -0.284 N 
ATOM      4  C   UNL     1       0.825  -3.352  -1.015  0.00  0.00    +0.214 C 
ATOM      5  C   UNL     1       0.430  -4.688  -1.578  0.00  0.00    +0.025 A 
ATOM      6  C   UNL     1       0.050  -5.882  -1.008  0.00  0.00    +0.010 A 
ATOM      7  C   UNL     1      -0.262  -6.965  -1.812  0.00  0.00    +0.001 A 
ATOM      8  C   UNL     1      -0.191  -6.843  -3.188  0.00  0.00    +0.002 A 
ATOM      9  C   UNL     1       0.188  -5.648  -3.763  0.00  0.00    +0.024 A 
ATOM     10  C   UNL     1       0.504  -4.553  -2.961  0.00  0.00    +0.041 A 
ATOM     11  N   UNL     1       0.906  -3.259  -3.300  0.00  0.00    -0.282 N 
ATOM     12  C   UNL     1       1.114  -2.491  -2.214  0.00  0.00    +0.265 C 
ATOM     13  O   UNL     1       1.466  -1.330  -2.204  0.00  0.00    -0.271 OA
ATOM     14  N   UNL     1       0.644  -3.700   2.176  0.00  0.00    -0.182 NA
ATOM     15  H   UNL     1       1.022  -2.950  -4.212  0.00  0.00    +0.155 HD
ATOM     16  H   UNL     1       2.819  -3.395   0.086  0.00  0.00    +0.152 HD
ENDROOT
BRANCH  14  17
ATOM     17  C   UNL     1       1.680  -4.223   2.841  0.00  0.00    +0.233 C 
ATOM     18  N   UNL     1       2.927  -4.417   2.311  0.00  0.00    -0.208 NA
ATOM     19  C   UNL     1       3.697  -4.939   3.216  0.00  0.00    +0.119 C 
ATOM     20  C   UNL     1       5.028  -5.460   3.611  0.00  0.00    +0.029 A 
ATOM     21  C   UNL     1       6.235  -5.602   2.959  0.00  0.00    +0.012 A 
ATOM     22  C   UNL     1       7.329  -6.144   3.633  0.00  0.00    +0.001 A 
ATOM     23  C   UNL     1       7.204  -6.537   4.947  0.00  0.00    +0.002 A 
ATOM     24  C   UNL     1       5.991  -6.399   5.614  0.00  0.00    +0.028 A 
ATOM     25  C   UNL     1       4.890  -5.859   4.957  0.00  0.00    +0.076 A 
ATOM     26  N   UNL     1       3.609  -5.619   5.376  0.00  0.00    -0.227 NA
ATOM     27  C   UNL     1       2.860  -5.094   4.445  0.00  0.00    +0.161 C 
ATOM     28  N   UNL     1       1.641  -4.620   4.108  0.00  0.00    -0.307 N 
ATOM     29  H   UNL     1       0.867  -4.579   4.691  0.00  0.00    +0.170 HD
ENDBRANCH  14  17
BRANCH   1  35
ATOM     30  C   UNL     1      -1.201  -0.638   0.010  0.00  0.00    +0.142 A 
ATOM     31  C   UNL     1      -2.374   0.099   0.019  0.00  0.00    +0.049 A 
ATOM     32  C   UNL     1      -3.596  -0.546   0.028  0.00  0.00    +0.024 A 
ATOM     33  C   UNL     1      -3.654  -1.929   0.027  0.00  0.00    +0.043 A 
ATOM     34  C   UNL     1      -2.488  -2.672   0.018  0.00  0.00    +0.047 A 
ATOM     35  C   UNL     1      -1.257  -2.031   0.003  0.00  0.00    +0.082 A 
ATOM     36 CL   UNL     1      -5.192  -2.732   0.037  0.00  0.00    -0.083 Cl
BRANCH  30  38
ATOM     37  C   UNL     1      -0.017   1.425   0.010  0.00  0.00    +0.277 C 
ATOM     38  O   UNL     1       0.002  -0.004   0.002  0.00  0.00    -0.493 OA
ENDBRANCH  30  38
ENDBRANCH   1  35
TORSDOF 3
