REMARK  Name = ZINC40985398
REMARK  14 active torsions:
REMARK  status: ('A' for Active; 'I' for Inactive)
REMARK    1  A    between atoms: C_1  and  C_2
REMARK    2  A    between atoms: C_3  and  C_16
REMARK    3  A    between atoms: C_5  and  C_7
REMARK    4  A    between atoms: C_12  and  O_13
REMARK    5  A    between atoms: O_13  and  C_14
REMARK    6  A    between atoms: C_16  and  N_17
REMARK    7  A    between atoms: C_20  and  C_23
REMARK    8  A    between atoms: N_25  and  C_26
REMARK    9  A    between atoms: C_26  and  C_27
REMARK   10  A    between atoms: C_27  and  C_28
REMARK   11  A    between atoms: C_28  and  O_29
REMARK   12  A    between atoms: O_29  and  C_30
REMARK   13  A    between atoms: C_30  and  C_31
REMARK   14  A    between atoms: C_30  and  C_32
REMARK                            x       y       z     vdW  Elec       q    Type
REMARK                         _______ _______ _______ _____ _____    ______ ____
ROOT
ATOM      1  N   UNL     1      -2.989  -0.231  -1.370  0.00  0.00    +0.383 N 
ATOM      2  C   UNL     1      -2.973  -1.539  -2.035  0.00  0.00    -0.078 C 
ATOM      3  C   UNL     1      -3.390  -1.376  -3.498  0.00  0.00    -0.006 C 
ATOM      4  C   UNL     1      -4.803  -0.788  -3.558  0.00  0.00    +0.071 C 
ATOM      5  C   UNL     1      -4.824   0.541  -2.797  0.00  0.00    -0.006 C 
ATOM      6  C   UNL     1      -4.354   0.307  -1.360  0.00  0.00    -0.078 C 
ATOM      7  H   UNL     1      -2.381   0.404  -1.866  0.00  0.00    -0.081 HD
ENDROOT
BRANCH   4   8
ATOM      8  C   UNL     1      -5.190  -0.551  -4.995  0.00  0.00    +0.216 C 
ATOM      9  O   UNL     1      -4.414  -0.826  -5.886  0.00  0.00    -0.276 OA
ATOM     10  N   UNL     1      -6.399  -0.035  -5.292  0.00  0.00    -0.315 N 
ATOM     11  H   UNL     1      -7.020   0.185  -4.580  0.00  0.00    +0.149 HD
BRANCH  10  12
ATOM     12  C   UNL     1      -6.775   0.195  -6.689  0.00  0.00    +0.106 C 
BRANCH  12  13
ATOM     13  C   UNL     1      -8.187   0.783  -6.747  0.00  0.00    +0.047 C 
BRANCH  13  14
ATOM     14  C   UNL     1      -8.580   1.022  -8.206  0.00  0.00    +0.161 C 
BRANCH  14  15
ATOM     15  O   UNL     1      -9.898   1.572  -8.260  0.00  0.00    -0.377 OA
BRANCH  15  16
ATOM     16  C   UNL     1     -10.364   1.835  -9.585  0.00  0.00    +0.112 C 
ATOM     17  C   UNL     1     -11.886   1.686  -9.629  0.00  0.00    +0.037 C 
ATOM     18  C   UNL     1      -9.979   3.260  -9.988  0.00  0.00    +0.037 C 
ENDBRANCH  15  16
ENDBRANCH  14  15
ENDBRANCH  13  14
ENDBRANCH  12  13
ENDBRANCH  10  12
ENDBRANCH   4   8
BRANCH   1  19
ATOM     19  C   UNL     1      -2.513  -0.381   0.012  0.00  0.00    -0.019 C 
BRANCH  19  22
ATOM     20  C   UNL     1      -0.018   1.503   0.010  0.00  0.00    +0.088 C 
ATOM     21  C   UNL     1       0.002  -0.004   0.002  0.00  0.00    +0.124 A 
ATOM     22  C   UNL     1      -1.070  -0.816   0.003  0.00  0.00    +0.066 A 
ATOM     23  N   UNL     1      -0.627  -2.083  -0.007  0.00  0.00    -0.216 NA
ATOM     24  C   UNL     1       0.686  -2.068  -0.014  0.00  0.00    +0.231 A 
ATOM     25  O   UNL     1       1.099  -0.788  -0.013  0.00  0.00    -0.440 OA
BRANCH  24  26
ATOM     26  C   UNL     1       1.562  -3.257  -0.025  0.00  0.00    +0.079 A 
ATOM     27  C   UNL     1       1.006  -4.537  -0.036  0.00  0.00    +0.032 A 
ATOM     28  C   UNL     1       1.830  -5.644  -0.046  0.00  0.00    +0.019 A 
ATOM     29  C   UNL     1       3.207  -5.490  -0.046  0.00  0.00    +0.019 A 
ATOM     30  C   UNL     1       3.768  -4.227  -0.035  0.00  0.00    +0.047 A 
ATOM     31  C   UNL     1       2.954  -3.106  -0.031  0.00  0.00    +0.132 A 
ATOM     32 BR   UNL     1       1.077  -7.379  -0.061  0.00  0.00    -0.050 Br
BRANCH  31  33
ATOM     33  O   UNL     1       3.505  -1.864  -0.026  0.00  0.00    -0.494 OA
ATOM     34  C   UNL     1       4.931  -1.787  -0.033  0.00  0.00    +0.277 C 
ENDBRANCH  31  33
ENDBRANCH  24  26
ENDBRANCH  19  22
ENDBRANCH   1  19
TORSDOF 10
