REMARK  Name = ZINC13500574
REMARK  16 active torsions:
REMARK  status: ('A' for Active; 'I' for Inactive)
REMARK    1  A    between atoms: C_1  and  C_2
REMARK    2  A    between atoms: C_4  and  C_37
REMARK    3  A    between atoms: C_9  and  C_14
REMARK    4  A    between atoms: C_14  and  N_72
REMARK    5  A    between atoms: C_15  and  C_16
REMARK    6  A    between atoms: C_15  and  N_72
REMARK    7  A    between atoms: C_16  and  C_17
REMARK    8  A    between atoms: C_17  and  O_18
REMARK    9  A    between atoms: C_19  and  C_21
REMARK   10  A    between atoms: C_19  and  C_34
REMARK   11  A    between atoms: C_19  and  N_72
REMARK   12  A    between atoms: N_25  and  C_26
REMARK   13  A    between atoms: C_26  and  C_27
REMARK   14  A    between atoms: C_27  and  C_28
REMARK   15  A    between atoms: C_34  and  C_35
REMARK   16  A    between atoms: C_34  and  C_36
REMARK                            x       y       z     vdW  Elec       q    Type
REMARK                         _______ _______ _______ _____ _____    ______ ____
ROOT
ATOM      1  N   UNL     1      -1.716  -0.711   1.202  0.00  0.00    +0.389 N 
ATOM      2  H   UNL     1      -1.853   0.199   1.657  0.00  0.00    -0.080 HD
ENDROOT
BRANCH   1   3
ATOM      3  C   UNL     1      -1.531  -0.500  -0.249  0.00  0.00    -0.037 C 
BRANCH   3  12
ATOM      4  C   UNL     1       5.635   0.917  -1.753  0.00  0.00    +0.044 C 
ATOM      5  C   UNL     1       4.241   1.391  -1.431  0.00  0.00    -0.050 A 
ATOM      6  C   UNL     1       3.985   2.751  -1.320  0.00  0.00    +0.008 A 
ATOM      7  C   UNL     1       2.718   3.207  -1.026  0.00  0.00    -0.026 A 
ATOM      8  C   UNL     1       1.683   2.296  -0.837  0.00  0.00    +0.052 A 
ATOM      9  C   UNL     1       1.947   0.918  -0.950  0.00  0.00    -0.001 A 
ATOM     10  C   UNL     1       3.241   0.479  -1.249  0.00  0.00    +0.013 A 
ATOM     11  C   UNL     1       0.852  -0.033  -0.750  0.00  0.00    +0.017 A 
ATOM     12  C   UNL     1      -0.382   0.452  -0.462  0.00  0.00    +0.001 A 
ATOM     13  C   UNL     1      -0.593   1.843  -0.359  0.00  0.00    +0.251 A 
ATOM     14  O   UNL     1      -1.711   2.258  -0.105  0.00  0.00    -0.268 OA
ATOM     15  N   UNL     1       0.407   2.724  -0.541  0.00  0.00    -0.322 N 
ATOM     16  H   UNL     1       0.227   3.674  -0.464  0.00  0.00    +0.169 HD
ATOM     17  C   UNL     1       2.454   4.686  -0.909  0.00  0.00    +0.046 C 
ENDBRANCH   3  12
ENDBRANCH   1   3
BRANCH   1  18
ATOM     18  C   UNL     1      -0.516  -1.357   1.775  0.00  0.00    -0.075 C 
BRANCH  18  19
ATOM     19  C   UNL     1      -0.230  -2.682   1.065  0.00  0.00    +0.009 C 
BRANCH  19  20
ATOM     20  C   UNL     1       0.950  -3.380   1.744  0.00  0.00    +0.154 C 
BRANCH  20  21
ATOM     21  O   UNL     1       1.217  -4.618   1.082  0.00  0.00    -0.395 OA
ATOM     22  H   UNL     1       1.954  -5.115   1.460  0.00  0.00    +0.209 HD
ENDBRANCH  20  21
ENDBRANCH  19  20
ENDBRANCH  18  19
ENDBRANCH   1  18
BRANCH   1  23
ATOM     23  C   UNL     1      -2.906  -1.552   1.443  0.00  0.00    +0.006 C 
BRANCH  23  24
ATOM     24  C   UNL     1      -3.134  -1.663   2.928  0.00  0.00    +0.138 A 
ATOM     25  N   UNL     1      -2.996  -0.707   3.814  0.00  0.00    -0.115 NA
ATOM     26  N   UNL     1      -3.282  -1.193   4.973  0.00  0.00    -0.023 NA
ATOM     27  N   UNL     1      -3.591  -2.437   4.849  0.00  0.00    -0.044 NA
ATOM     28  N   UNL     1      -3.512  -2.764   3.604  0.00  0.00    -0.231 N 
BRANCH  28  29
ATOM     29  C   UNL     1      -3.782  -4.085   3.032  0.00  0.00    +0.152 C 
BRANCH  29  30
ATOM     30  C   UNL     1      -2.528  -4.955   3.141  0.00  0.00    +0.058 C 
BRANCH  30  31
ATOM     31  C   UNL     1      -2.768  -6.272   2.450  0.00  0.00    -0.046 A 
ATOM     32  C   UNL     1      -3.283  -7.341   3.159  0.00  0.00    +0.004 A 
ATOM     33  C   UNL     1      -3.508  -8.548   2.524  0.00  0.00    +0.000 A 
ATOM     34  C   UNL     1      -3.209  -8.689   1.182  0.00  0.00    +0.000 A 
ATOM     35  C   UNL     1      -2.689  -7.622   0.474  0.00  0.00    +0.000 A 
ATOM     36  C   UNL     1      -2.469  -6.413   1.108  0.00  0.00    +0.004 A 
ENDBRANCH  30  31
ENDBRANCH  29  30
ENDBRANCH  28  29
ENDBRANCH  23  24
BRANCH  23  37
ATOM     37  C   UNL     1      -4.122  -0.893   0.788  0.00  0.00    -0.024 C 
ATOM     38  C   UNL     1      -5.367  -1.744   1.052  0.00  0.00    +0.006 C 
ATOM     39  C   UNL     1      -4.325   0.504   1.379  0.00  0.00    +0.006 C 
ENDBRANCH  23  37
ENDBRANCH   1  23
TORSDOF 12
