REMARK  Name = ZINC12481994
REMARK  11 active torsions:
REMARK  status: ('A' for Active; 'I' for Inactive)
REMARK    1  A    between atoms: C_1  and  O_2
REMARK    2  A    between atoms: O_2  and  C_3
REMARK    3  A    between atoms: C_8  and  O_9
REMARK    4  A    between atoms: O_9  and  C_10
REMARK    5  A    between atoms: C_15  and  C_17
REMARK    6  A    between atoms: C_17  and  C_18
REMARK    7  A    between atoms: C_23  and  C_25
REMARK    8  A    between atoms: C_25  and  C_26
REMARK    9  A    between atoms: C_28  and  C_31
REMARK   10  A    between atoms: C_31  and  S_32
REMARK   11  A    between atoms: S_32  and  C_33
REMARK                            x       y       z     vdW  Elec       q    Type
REMARK                         _______ _______ _______ _____ _____    ______ ____
ROOT
ATOM      1  C   UNL     1       1.277   1.644  -2.496  0.00  0.00    -0.002 C 
ATOM      2  C   UNL     1       2.063   1.125  -1.289  0.00  0.00    -0.015 C 
ATOM      3  C   UNL     1       1.352   1.550  -0.003  0.00  0.00    -0.082 C 
ATOM      4  C   UNL     1      -0.800   1.527  -1.116  0.00  0.00    -0.079 C 
ATOM      5  C   UNL     1      -0.153   1.101  -2.436  0.00  0.00    -0.019 C 
ATOM      6  N   UNL     1      -0.016   0.997   0.016  0.00  0.00    +0.379 N 
ATOM      7  H   UNL     1      -0.474   1.258   0.897  0.00  0.00    -0.086 HD
ATOM      8  H   UNL     1       0.032  -0.026  -0.055  0.00  0.00    -0.086 HD
ENDROOT
BRANCH   1   9
ATOM      9  C   UNL     1       1.949   1.171  -3.787  0.00  0.00    +0.099 C 
BRANCH   9  20
ATOM     10  C   UNL     1       6.744  -2.110  -7.167  0.00  0.00    +0.162 A 
ATOM     11  C   UNL     1       7.045  -1.040  -6.345  0.00  0.00    +0.053 A 
ATOM     12  C   UNL     1       6.056  -0.145  -5.955  0.00  0.00    -0.038 A 
ATOM     13  C   UNL     1       4.763  -0.323  -6.398  0.00  0.00    -0.023 A 
ATOM     14  C   UNL     1       4.454  -1.399  -7.220  0.00  0.00    +0.054 A 
ATOM     15  C   UNL     1       5.436  -2.293  -7.607  0.00  0.00    +0.162 A 
ATOM     16  C   UNL     1       3.649   0.615  -6.025  0.00  0.00    +0.143 C 
ATOM     17  N   UNL     1       4.096   1.525  -4.965  0.00  0.00    -0.297 N 
ATOM     18  C   UNL     1       5.434   2.121  -5.106  0.00  0.00    +0.113 C 
ATOM     19  C   UNL     1       6.460   0.990  -5.052  0.00  0.00    +0.054 C 
ATOM     20  C   UNL     1       3.315   1.799  -3.901  0.00  0.00    +0.216 C 
ATOM     21  O   UNL     1       3.711   2.550  -3.035  0.00  0.00    -0.276 OA
BRANCH  10  23
ATOM     22  C   UNL     1       9.037  -2.726  -7.052  0.00  0.00    +0.277 C 
ATOM     23  O   UNL     1       7.719  -2.979  -7.543  0.00  0.00    -0.491 OA
ENDBRANCH  10  23
BRANCH  15  24
ATOM     24  O   UNL     1       5.126  -3.344  -8.412  0.00  0.00    -0.491 OA
ATOM     25  C   UNL     1       3.763  -3.466  -8.823  0.00  0.00    +0.277 C 
ENDBRANCH  15  24
ENDBRANCH   9  20
ENDBRANCH   1   9
BRANCH   5  26
ATOM     26  C   UNL     1      -0.124  -0.426  -2.522  0.00  0.00    +0.061 C 
BRANCH  26  27
ATOM     27  C   UNL     1      -1.534  -0.953  -2.587  0.00  0.00    +0.084 A 
ATOM     28  C   UNL     1      -2.078  -1.799  -3.580  0.00  0.00    +0.071 A 
ATOM     29  C   UNL     1      -3.362  -1.982  -3.188  0.00  0.00    +0.148 A 
ATOM     30  O   UNL     1      -3.517  -1.278  -2.058  0.00  0.00    -0.359 OA
ATOM     31  N   UNL     1      -2.495  -0.715  -1.741  0.00  0.00    -0.083 NA
BRANCH  29  32
ATOM     32  C   UNL     1      -4.409  -2.810  -3.887  0.00  0.00    +0.151 C 
BRANCH  32  33
ATOM     33  S   UNL     1      -4.362  -4.508  -3.251  0.00  0.00    -0.117 S 
BRANCH  33  34
ATOM     34  C   UNL     1      -5.628  -5.337  -4.155  0.00  0.00    +0.008 A 
ATOM     35  C   UNL     1      -6.379  -4.644  -5.096  0.00  0.00    +0.015 A 
ATOM     36  C   UNL     1      -7.366  -5.298  -5.806  0.00  0.00    +0.001 A 
ATOM     37  C   UNL     1      -7.615  -6.638  -5.574  0.00  0.00    +0.000 A 
ATOM     38  C   UNL     1      -6.873  -7.330  -4.634  0.00  0.00    +0.001 A 
ATOM     39  C   UNL     1      -5.880  -6.684  -3.924  0.00  0.00    +0.015 A 
ENDBRANCH  33  34
ENDBRANCH  32  33
ENDBRANCH  29  32
ENDBRANCH  26  27
ENDBRANCH   5  26
TORSDOF 9
