REMARK  Name = ZINC22473303
REMARK  11 active torsions:
REMARK  status: ('A' for Active; 'I' for Inactive)
REMARK    1  A    between atoms: C_4  and  C_7
REMARK    2  A    between atoms: C_7  and  N_8
REMARK    3  A    between atoms: N_8  and  C_9
REMARK    4  A    between atoms: C_9  and  C_10
REMARK    5  A    between atoms: C_10  and  C_11
REMARK    6  A    between atoms: C_11  and  N_12
REMARK    7  A    between atoms: C_15  and  O_16
REMARK    8  A    between atoms: C_24  and  C_26
REMARK    9  A    between atoms: C_29  and  O_32
REMARK   10  A    between atoms: O_32  and  C_33
REMARK   11  A    between atoms: C_33  and  C_34
REMARK                            x       y       z     vdW  Elec       q    Type
REMARK                         _______ _______ _______ _____ _____    ______ ____
ROOT
ATOM      1  N   UNL     1      -6.382   2.172   0.036  0.00  0.00    -0.293 N 
ATOM      2  C   UNL     1      -6.832   2.829   1.124  0.00  0.00    +0.247 C 
ATOM      3  O   UNL     1      -7.577   3.781   0.993  0.00  0.00    -0.270 OA
ENDROOT
BRANCH   2   4
ATOM      4  C   UNL     1      -6.421   2.393   2.473  0.00  0.00    +0.037 A 
ATOM      5  C   UNL     1      -5.240   1.667   2.644  0.00  0.00    +0.016 A 
ATOM      6  C   UNL     1      -4.856   1.267   3.905  0.00  0.00    +0.046 A 
ATOM      7  C   UNL     1      -5.649   1.575   5.004  0.00  0.00    +0.121 A 
ATOM      8  C   UNL     1      -6.827   2.293   4.837  0.00  0.00    +0.046 A 
ATOM      9  C   UNL     1      -7.214   2.701   3.581  0.00  0.00    +0.016 A 
BRANCH   7  10
ATOM     10  O   UNL     1      -5.270   1.175   6.245  0.00  0.00    -0.487 OA
BRANCH  10  11
ATOM     11  C   UNL     1      -4.048   0.441   6.345  0.00  0.00    +0.264 C 
BRANCH  11  12
ATOM     12  C   UNL     1      -3.793   0.084   7.787  0.00  0.00    -0.010 A 
ATOM     13  C   UNL     1      -3.069   0.941   8.593  0.00  0.00    +0.007 A 
ATOM     14  C   UNL     1      -2.840   0.616   9.917  0.00  0.00    +0.000 A 
ATOM     15  C   UNL     1      -3.325  -0.572  10.431  0.00  0.00    +0.000 A 
ATOM     16  C   UNL     1      -4.045  -1.432   9.623  0.00  0.00    +0.000 A 
ATOM     17  C   UNL     1      -4.279  -1.104   8.301  0.00  0.00    +0.007 A 
ENDBRANCH  11  12
ENDBRANCH  10  11
ENDBRANCH   7  10
ENDBRANCH   2   4
BRANCH   1  18
ATOM     18  C   UNL     1      -6.727   2.651  -1.304  0.00  0.00    +0.143 C 
BRANCH  18  22
ATOM     19  C   UNL     1     -10.490   1.008  -2.481  0.00  0.00    +0.000 A 
ATOM     20  C   UNL     1     -10.447   2.172  -1.737  0.00  0.00    +0.000 A 
ATOM     21  C   UNL     1      -9.229   2.704  -1.356  0.00  0.00    +0.005 A 
ATOM     22  C   UNL     1      -8.055   2.071  -1.719  0.00  0.00    -0.030 A 
ATOM     23  C   UNL     1      -8.098   0.910  -2.468  0.00  0.00    +0.005 A 
ATOM     24  C   UNL     1      -9.316   0.376  -2.844  0.00  0.00    +0.000 A 
ENDBRANCH  18  22
ENDBRANCH   1  18
BRANCH   1  25
ATOM     25  C   UNL     1      -5.548   0.978   0.196  0.00  0.00    +0.110 C 
BRANCH  25  26
ATOM     26  C   UNL     1      -4.098   1.319  -0.150  0.00  0.00    +0.040 C 
BRANCH  26  27
ATOM     27  C   UNL     1      -3.227   0.072   0.016  0.00  0.00    +0.114 C 
BRANCH  27  28
ATOM     28  N   UNL     1      -1.837   0.399  -0.315  0.00  0.00    -0.384 N 
ATOM     29  C   UNL     1      -0.864  -0.572  -0.238  0.00  0.00    +0.053 A 
ATOM     30  C   UNL     1      -1.172  -1.852   0.146  0.00  0.00    +0.113 A 
ATOM     31  C   UNL     1      -0.161  -2.820   0.209  0.00  0.00    +0.286 A 
ATOM     32  O   UNL     1       1.115  -2.534  -0.097  0.00  0.00    -0.425 OA
ATOM     33  C   UNL     1       1.492  -1.296  -0.483  0.00  0.00    +0.141 A 
ATOM     34  C   UNL     1       0.538  -0.270  -0.572  0.00  0.00    +0.041 A 
ATOM     35  C   UNL     1       0.923   1.010  -0.971  0.00  0.00    +0.013 A 
ATOM     36  C   UNL     1       2.244   1.260  -1.276  0.00  0.00    +0.001 A 
ATOM     37  C   UNL     1       3.186   0.246  -1.189  0.00  0.00    +0.004 A 
ATOM     38  C   UNL     1       2.818  -1.024  -0.795  0.00  0.00    +0.047 A 
ATOM     39  H   UNL     1      -1.572   1.421  -0.625  0.00  0.00    +0.160 HD
BRANCH  31  40
ATOM     40  O   UNL     1      -0.448  -3.954   0.552  0.00  0.00    -0.480 OA
ATOM     41  H   UNL     1       0.334  -4.726   0.608  0.00  0.00    +0.295 HD
ENDBRANCH  31  40
ENDBRANCH  27  28
ENDBRANCH  26  27
ENDBRANCH  25  26
ENDBRANCH   1  25
TORSDOF 11
