REMARK  Name = ZINC63383990
REMARK  6 active torsions:
REMARK  status: ('A' for Active; 'I' for Inactive)
REMARK    1  A    between atoms: C_1  and  C_2
REMARK    2  A    between atoms: C_2  and  N_3
REMARK    3  A    between atoms: C_16  and  C_18
REMARK    4  A    between atoms: N_24  and  C_27
REMARK    5  A    between atoms: C_27  and  C_28
REMARK    6  A    between atoms: C_28  and  C_29
REMARK                            x       y       z     vdW  Elec       q    Type
REMARK                         _______ _______ _______ _____ _____    ______ ____
ROOT
ATOM      1  C   UNL     1      -0.770  -2.587   1.135  0.00  0.00    +0.070 A 
ATOM      2  H   UNL     1      -1.254  -2.806   4.330  0.00  0.00    +0.173 HD
ATOM      3  C   UNL     1      -1.372  -2.384   2.342  0.00  0.00    +0.259 A 
ATOM      4  N   UNL     1      -0.830  -2.948   3.470  0.00  0.00    -0.275 N 
ATOM      5  C   UNL     1       0.286  -3.695   3.389  0.00  0.00    +0.332 A 
ATOM      6  O   UNL     1       0.752  -4.186   4.399  0.00  0.00    -0.246 OA
ATOM      7  N   UNL     1       0.894  -3.907   2.208  0.00  0.00    -0.260 N 
ATOM      8  C   UNL     1       0.391  -3.377   1.075  0.00  0.00    +0.262 A 
ATOM      9  O   UNL     1       0.943  -3.576   0.007  0.00  0.00    -0.267 OA
ATOM     10  O   UNL     1      -2.491  -1.634   2.427  0.00  0.00    -0.267 OA
ENDROOT
BRANCH   1  23
ATOM     11  N   UNL     1      -1.300  -0.510  -0.022  0.00  0.00    +0.386 N 
ATOM     12  C   UNL     1      -1.903  -0.021   1.220  0.00  0.00    -0.073 C 
ATOM     13  C   UNL     1      -3.414  -0.318   1.235  0.00  0.00    +0.015 C 
ATOM     14  C   UNL     1      -3.555  -1.783   0.905  0.00  0.00    -0.041 C 
ATOM     15  C   UNL     1      -4.234  -2.768   1.473  0.00  0.00    -0.001 A 
ATOM     16  C   UNL     1      -5.225  -2.778   2.562  0.00  0.00    +0.010 A 
ATOM     17  C   UNL     1      -5.712  -3.996   2.918  0.00  0.00    +0.001 A 
ATOM     18  C   UNL     1      -5.318  -5.191   2.308  0.00  0.00    +0.002 A 
ATOM     19  C   UNL     1      -4.422  -5.274   1.293  0.00  0.00    +0.026 A 
ATOM     20  C   UNL     1      -3.848  -4.058   0.823  0.00  0.00    +0.043 A 
ATOM     21  N   UNL     1      -3.001  -3.846  -0.142  0.00  0.00    -0.379 N 
ATOM     22  C   UNL     1      -2.807  -2.404  -0.272  0.00  0.00    +0.097 C 
ATOM     23  C   UNL     1      -1.346  -1.978  -0.117  0.00  0.00    -0.000 C 
ATOM     24  H   UNL     1      -2.571  -4.528  -0.682  0.00  0.00    +0.160 HD
ATOM     25  H   UNL     1      -1.798  -0.115  -0.805  0.00  0.00    -0.081 HD
BRANCH  11  27
ATOM     26  C   UNL     1       0.157   1.456  -0.104  0.00  0.00    -0.017 C 
ATOM     27  C   UNL     1       0.102  -0.072  -0.077  0.00  0.00    -0.081 C 
ENDBRANCH  11  27
ENDBRANCH   1  23
BRANCH   7  28
ATOM     28  C   UNL     1       2.108  -4.726   2.151  0.00  0.00    +0.134 C 
BRANCH  28  29
ATOM     29  C   UNL     1       1.725  -6.190   1.929  0.00  0.00    +0.057 C 
BRANCH  29  30
ATOM     30  C   UNL     1       2.974  -7.032   1.871  0.00  0.00    -0.046 A 
ATOM     31  C   UNL     1       3.606  -7.249   0.660  0.00  0.00    +0.004 A 
ATOM     32  C   UNL     1       4.751  -8.021   0.607  0.00  0.00    +0.000 A 
ATOM     33  C   UNL     1       5.265  -8.576   1.764  0.00  0.00    +0.000 A 
ATOM     34  C   UNL     1       4.634  -8.359   2.974  0.00  0.00    +0.000 A 
ATOM     35  C   UNL     1       3.491  -7.583   3.029  0.00  0.00    +0.004 A 
ENDBRANCH  29  30
ENDBRANCH  28  29
ENDBRANCH   7  28
TORSDOF 5
