REMARK  Name = ZINC08790210
REMARK  7 active torsions:
REMARK  status: ('A' for Active; 'I' for Inactive)
REMARK    1  A    between atoms: C_1  and  C_2
REMARK    2  A    between atoms: C_17  and  C_19
REMARK    3  A    between atoms: C_19  and  C_20
REMARK    4  A    between atoms: C_20  and  C_21
REMARK    5  A    between atoms: N_25  and  C_28
REMARK    6  A    between atoms: C_28  and  C_29
REMARK    7  A    between atoms: C_29  and  C_30
REMARK                            x       y       z     vdW  Elec       q    Type
REMARK                         _______ _______ _______ _____ _____    ______ ____
ROOT
ATOM      1  C   UNL     1      -3.028   3.170   3.215  0.00  0.00    +0.044 C 
ATOM      2  C   UNL     1      -1.653   3.645   2.822  0.00  0.00    -0.049 A 
ATOM      3  C   UNL     1      -0.736   2.752   2.295  0.00  0.00    +0.008 A 
ATOM      4  C   UNL     1       0.521   3.187   1.936  0.00  0.00    -0.026 A 
ATOM      5  C   UNL     1       0.882   4.521   2.096  0.00  0.00    +0.054 A 
ATOM      6  C   UNL     1      -0.047   5.413   2.628  0.00  0.00    +0.063 A 
ATOM      7  C   UNL     1      -1.306   4.973   2.987  0.00  0.00    +0.025 A 
ATOM      8 CL   UNL     1       0.378   7.083   2.839  0.00  0.00    -0.082 Cl
ATOM      9  N   UNL     1       2.196   4.721   1.664  0.00  0.00    -0.285 N 
ATOM     10  C   UNL     1       2.760   3.585   1.212  0.00  0.00    +0.211 C 
ATOM     11  O   UNL     1       3.885   3.458   0.776  0.00  0.00    -0.277 OA
ATOM     12  C   UNL     1       1.724   2.503   1.352  0.00  0.00    +0.050 C 
ATOM     13  C   UNL     1       1.403   1.856  -0.001  0.00  0.00    +0.088 C 
ATOM     14  C   UNL     1       2.260   0.560  -0.027  0.00  0.00    +0.073 C 
ATOM     15  C   UNL     1       3.021   0.560   1.316  0.00  0.00    -0.057 C 
ATOM     16  C   UNL     1       1.227  -0.543  -0.016  0.00  0.00    +0.224 C 
ATOM     17  O   UNL     1       1.469  -1.731  -0.022  0.00  0.00    -0.275 OA
ATOM     18  N   UNL     1       0.002  -0.004   0.002  0.00  0.00    -0.241 N 
ATOM     19  C   UNL     1      -0.016   1.334   0.009  0.00  0.00    +0.225 C 
ATOM     20  O   UNL     1      -1.015   2.021   0.018  0.00  0.00    -0.275 OA
ATOM     21  H   UNL     1       2.649   5.579   1.687  0.00  0.00    +0.155 HD
ATOM     22  N   UNL     1       2.208   1.415   2.183  0.00  0.00    +0.394 N 
ATOM     23  H   UNL     1       1.418   0.883   2.567  0.00  0.00    -0.083 HD
ATOM     24  H   UNL     1       2.778   1.784   2.954  0.00  0.00    -0.083 HD
ENDROOT
BRANCH  15  25
ATOM     25  C   UNL     1       3.123  -0.862   1.870  0.00  0.00    -0.004 C 
BRANCH  25  26
ATOM     26  C   UNL     1       3.985  -0.856   3.134  0.00  0.00    +0.123 C 
BRANCH  26  27
ATOM     27  C   UNL     1       4.085  -2.257   3.680  0.00  0.00    +0.356 C 
ATOM     28  O   UNL     1       3.524  -3.167   3.116  0.00  0.00    -0.246 OA
ATOM     29  O   UNL     1       4.797  -2.495   4.793  0.00  0.00    -0.246 OA
ENDBRANCH  26  27
ENDBRANCH  25  26
ENDBRANCH  15  25
BRANCH  18  30
ATOM     30  C   UNL     1      -1.219  -0.813   0.012  0.00  0.00    +0.121 C 
BRANCH  30  31
ATOM     31  C   UNL     1      -1.662  -1.087  -1.426  0.00  0.00    +0.054 C 
BRANCH  31  32
ATOM     32  C   UNL     1      -2.918  -1.919  -1.416  0.00  0.00    -0.046 A 
ATOM     33  C   UNL     1      -2.834  -3.299  -1.430  0.00  0.00    +0.004 A 
ATOM     34  C   UNL     1      -3.986  -4.062  -1.415  0.00  0.00    +0.000 A 
ATOM     35  C   UNL     1      -5.223  -3.446  -1.397  0.00  0.00    +0.000 A 
ATOM     36  C   UNL     1      -5.308  -2.066  -1.388  0.00  0.00    +0.000 A 
ATOM     37  C   UNL     1      -4.155  -1.302  -1.398  0.00  0.00    +0.004 A 
ENDBRANCH  31  32
ENDBRANCH  30  31
ENDBRANCH  18  30
TORSDOF 6
