REMARK  Name = ZINC03880327
REMARK  9 active torsions:
REMARK  status: ('A' for Active; 'I' for Inactive)
REMARK    1  A    between atoms: C_1  and  C_2
REMARK    2  A    between atoms: C_2  and  C_27
REMARK    3  A    between atoms: C_8  and  C_15
REMARK    4  A    between atoms: C_9  and  C_11
REMARK    5  A    between atoms: C_11  and  O_13
REMARK    6  A    between atoms: O_13  and  C_14
REMARK    7  A    between atoms: C_15  and  O_17
REMARK    8  A    between atoms: O_17  and  C_18
REMARK    9  A    between atoms: N_25  and  C_26
REMARK                            x       y       z     vdW  Elec       q    Type
REMARK                         _______ _______ _______ _____ _____    ______ ____
ROOT
ATOM      1  C   UNL     1       0.822   3.438  -0.372  0.00  0.00    +0.037 C 
ATOM      2  C   UNL     1       1.205   1.987  -0.075  0.00  0.00    +0.061 C 
ATOM      3  C   UNL     1       2.004   1.439  -1.229  0.00  0.00    +0.029 C 
ATOM      4  S   UNL     1       2.873   2.490  -2.264  0.00  0.00    -0.054 S 
ATOM      5  C   UNL     1       2.024   0.052  -1.440  0.00  0.00    +0.017 C 
ATOM      6  C   UNL     1       2.786  -0.519  -2.468  0.00  0.00    +0.059 C 
ATOM      7  S   UNL     1       3.958   0.258  -3.555  0.00  0.00    -0.073 S 
ATOM      8  C   UNL     1       4.552  -1.027  -4.602  0.00  0.00    +0.118 C 
ATOM      9  C   UNL     1       3.993  -2.237  -4.345  0.00  0.00    +0.118 C 
ATOM     10  S   UNL     1       2.825  -2.205  -3.027  0.00  0.00    -0.073 S 
ATOM     11  C   UNL     1       1.204  -0.785  -0.530  0.00  0.00    +0.006 A 
ATOM     12  C   UNL     1       1.417  -2.155  -0.434  0.00  0.00    +0.010 A 
ATOM     13  C   UNL     1       0.675  -2.901   0.462  0.00  0.00    +0.001 A 
ATOM     14  C   UNL     1      -0.275  -2.287   1.259  0.00  0.00    +0.002 A 
ATOM     15  C   UNL     1      -0.501  -0.926   1.161  0.00  0.00    +0.024 A 
ATOM     16  C   UNL     1       0.228  -0.165   0.261  0.00  0.00    +0.038 A 
ATOM     17  N   UNL     1      -0.011   1.203   0.139  0.00  0.00    -0.323 N 
ATOM     18  C   UNL     1      -0.767   1.710   1.292  0.00  0.00    +0.130 C 
ATOM     19  C   UNL     1       2.060   1.944   1.194  0.00  0.00    +0.037 C 
ENDROOT
BRANCH   9  20
ATOM     20  C   UNL     1       4.330  -3.459  -5.096  0.00  0.00    +0.347 C 
ATOM     21  O   UNL     1       5.221  -3.438  -5.921  0.00  0.00    -0.244 OA
BRANCH  20  22
ATOM     22  O   UNL     1       3.649  -4.600  -4.867  0.00  0.00    -0.464 OA
ATOM     23  C   UNL     1       4.035  -5.764  -5.643  0.00  0.00    +0.280 C 
ENDBRANCH  20  22
ENDBRANCH   9  20
BRANCH   8  24
ATOM     24  C   UNL     1       5.555  -0.809  -5.659  0.00  0.00    +0.347 C 
ATOM     25  O   UNL     1       5.205  -0.442  -6.762  0.00  0.00    -0.244 OA
BRANCH  24  26
ATOM     26  O   UNL     1       6.862  -1.018  -5.401  0.00  0.00    -0.464 OA
ATOM     27  C   UNL     1       7.794  -0.783  -6.489  0.00  0.00    +0.280 C 
ENDBRANCH  24  26
ENDBRANCH   8  24
TORSDOF 4
