REMARK  Name = ZINC64713911
REMARK  6 active torsions:
REMARK  status: ('A' for Active; 'I' for Inactive)
REMARK    1  A    between atoms: C_1  and  C_2
REMARK    2  A    between atoms: C_2  and  C_3
REMARK    3  A    between atoms: C_6  and  C_9
REMARK    4  A    between atoms: C_17  and  S_21
REMARK    5  A    between atoms: S_21  and  C_22
REMARK    6  A    between atoms: C_22  and  C_23
REMARK                            x       y       z     vdW  Elec       q    Type
REMARK                         _______ _______ _______ _____ _____    ______ ____
ROOT
ATOM      1  C   UNL     1      -5.399  -1.996   0.043  0.00  0.00    +0.047 C 
ATOM      2  C   UNL     1      -6.140  -2.270  -1.056  0.00  0.00    +0.027 C 
ATOM      3  C   UNL     1      -7.460  -2.738  -0.506  0.00  0.00    +0.193 C 
ATOM      4  C   UNL     1      -8.100  -3.901  -1.201  0.00  0.00    +0.276 C 
ATOM      5  O   UNL     1      -7.956  -4.095  -2.385  0.00  0.00    -0.270 OA
ATOM      6  N   UNL     1      -8.850  -4.726  -0.427  0.00  0.00    -0.081 NA
ATOM      7  N   UNL     1      -8.931  -4.626   0.800  0.00  0.00    -0.163 NA
ATOM      8  C   UNL     1      -8.190  -3.621   1.584  0.00  0.00    +0.271 C 
ATOM      9  N   UNL     1      -7.015  -3.254   0.829  0.00  0.00    -0.178 NA
ATOM     10  N   UNL     1      -6.157  -2.281   1.204  0.00  0.00    -0.274 N 
ATOM     11  H   UNL     1      -6.080  -1.867   2.078  0.00  0.00    +0.167 HD
ENDROOT
BRANCH   1  15
ATOM     12  C   UNL     1      -1.412  -0.526   0.013  0.00  0.00    -0.048 A 
ATOM     13  C   UNL     1      -2.049  -0.765   1.217  0.00  0.00    +0.004 A 
ATOM     14  C   UNL     1      -3.343  -1.242   1.233  0.00  0.00    +0.010 A 
ATOM     15  C   UNL     1      -4.010  -1.483   0.032  0.00  0.00    -0.003 A 
ATOM     16  C   UNL     1      -3.362  -1.240  -1.179  0.00  0.00    +0.010 A 
ATOM     17  C   UNL     1      -2.070  -0.758  -1.182  0.00  0.00    +0.004 A 
BRANCH  12  19
ATOM     18  C   UNL     1      -0.019   1.526   0.010  0.00  0.00    +0.009 C 
ATOM     19  C   UNL     1       0.002  -0.004   0.002  0.00  0.00    +0.032 C 
ENDBRANCH  12  19
ENDBRANCH   1  15
BRANCH   8  20
ATOM     20  S   UNL     1      -7.708  -4.320   3.187  0.00  0.00    -0.116 S 
BRANCH  20  21
ATOM     21  C   UNL     1      -6.668  -5.741   2.751  0.00  0.00    +0.069 C 
ATOM     22  C   UNL     1      -6.187  -6.431   4.029  0.00  0.00    +0.015 C 
ENDBRANCH  20  21
ENDBRANCH   8  20
TORSDOF 4
