REMARK  Name = ZINC63067935
REMARK  6 active torsions:
REMARK  status: ('A' for Active; 'I' for Inactive)
REMARK    1  A    between atoms: C_8  and  S_27
REMARK    2  A    between atoms: N_10  and  C_11
REMARK    3  A    between atoms: C_11  and  C_12
REMARK    4  A    between atoms: C_12  and  C_16
REMARK    5  A    between atoms: C_16  and  S_17
REMARK    6  A    between atoms: S_17  and  C_18
REMARK                            x       y       z     vdW  Elec       q    Type
REMARK                         _______ _______ _______ _____ _____    ______ ____
ROOT
ATOM      1  C   UNL     1       5.389  -0.254   1.383  0.00  0.00    +0.042 C 
ATOM      2  C   UNL     1       4.984   1.121   1.947  0.00  0.00    +0.171 C 
ATOM      3  O   UNL     1       6.327   1.175   2.470  0.00  0.00    -0.378 OA
ATOM      4  C   UNL     1       6.838   0.257   1.483  0.00  0.00    +0.171 C 
ENDROOT
BRANCH   1   5
ATOM      5  C   UNL     1       4.916  -0.497  -0.052  0.00  0.00    +0.120 C 
BRANCH   5  14
ATOM      6  C   UNL     1       1.492  -4.505  -0.079  0.00  0.00    +0.002 A 
ATOM      7  C   UNL     1       2.873  -4.558  -0.093  0.00  0.00    +0.002 A 
ATOM      8  C   UNL     1       3.613  -3.392  -0.083  0.00  0.00    +0.025 A 
ATOM      9  C   UNL     1       2.971  -2.159  -0.058  0.00  0.00    +0.053 A 
ATOM     10  C   UNL     1       1.581  -2.105  -0.044  0.00  0.00    +0.050 A 
ATOM     11  C   UNL     1       0.845  -3.284  -0.054  0.00  0.00    +0.025 A 
ATOM     12  N   UNL     1       1.158  -0.769  -0.019  0.00  0.00    -0.316 N 
ATOM     13  C   UNL     1       2.362   0.071  -0.018  0.00  0.00    +0.217 C 
ATOM     14  N   UNL     1       3.497  -0.859  -0.044  0.00  0.00    -0.301 N 
ATOM     15  H   UNL     1       0.240  -0.457  -0.006  0.00  0.00    +0.149 HD
BRANCH  13  16
ATOM     16  S   UNL     1       2.387   1.132  -1.490  0.00  0.00    -0.137 S 
ATOM     17  H   UNL     1       1.282   1.889  -1.363  0.00  0.00    +0.105 HD
ENDBRANCH  13  16
ENDBRANCH   5  14
ENDBRANCH   1   5
BRANCH   1  18
ATOM     18  C   UNL     1       5.081  -1.425   2.320  0.00  0.00    +0.086 C 
BRANCH  18  19
ATOM     19  S   UNL     1       5.551  -0.982   4.015  0.00  0.00    -0.114 S 
BRANCH  19  20
ATOM     20  C   UNL     1       5.128  -2.454   4.986  0.00  0.00    +0.235 C 
ATOM     21  N   UNL     1       5.826  -3.630   4.449  0.00  0.00    -0.355 N 
ATOM     22  C   UNL     1       4.918  -4.484   4.073  0.00  0.00    +0.061 A 
ATOM     23  C   UNL     1       4.994  -5.822   3.469  0.00  0.00    +0.027 A 
ATOM     24  C   UNL     1       3.858  -6.487   3.181  0.00  0.00    +0.002 A 
ATOM     25  C   UNL     1       2.582  -5.953   3.435  0.00  0.00    +0.002 A 
ATOM     26  C   UNL     1       2.399  -4.736   3.986  0.00  0.00    +0.027 A 
ATOM     27  C   UNL     1       3.568  -3.919   4.341  0.00  0.00    +0.061 A 
ATOM     28  N   UNL     1       3.692  -2.737   4.873  0.00  0.00    -0.355 N 
ATOM     29  H   UNL     1       6.786  -3.748   4.386  0.00  0.00    +0.162 HD
ATOM     30  H   UNL     1       2.969  -2.151   5.145  0.00  0.00    +0.162 HD
ENDBRANCH  19  20
ENDBRANCH  18  19
ENDBRANCH   1  18
TORSDOF 6
