REMARK  Name = ZINC36587026
REMARK  18 active torsions:
REMARK  status: ('A' for Active; 'I' for Inactive)
REMARK    1  A    between atoms: C_1  and  C_2
REMARK    2  A    between atoms: C_2  and  C_3
REMARK    3  A    between atoms: C_2  and  C_4
REMARK    4  A    between atoms: C_2  and  C_5
REMARK    5  A    between atoms: C_5  and  C_6
REMARK    6  A    between atoms: C_6  and  C_7
REMARK    7  A    between atoms: C_6  and  C_8
REMARK    8  A    between atoms: C_6  and  N_9
REMARK    9  A    between atoms: C_10  and  C_12
REMARK   10  A    between atoms: C_12  and  C_14
REMARK   11  A    between atoms: C_12  and  N_22
REMARK   12  A    between atoms: N_22  and  C_33
REMARK   13  A    between atoms: C_23  and  C_25
REMARK   14  A    between atoms: C_29  and  O_32
REMARK   15  A    between atoms: C_30  and  O_31
REMARK   16  A    between atoms: C_33  and  C_34
REMARK   17  A    between atoms: C_33  and  C_35
REMARK   18  A    between atoms: C_33  and  C_36
REMARK                            x       y       z     vdW  Elec       q    Type
REMARK                         _______ _______ _______ _____ _____    ______ ____
ROOT
ATOM      1  C   UNL     1       5.875   1.005  -5.083  0.00  0.00    +0.196 C 
ENDROOT
BRANCH   1   2
ATOM      2  C   UNL     1       5.669   1.032  -6.576  0.00  0.00    +0.018 A 
ATOM      3  C   UNL     1       6.754   0.919  -7.426  0.00  0.00    +0.048 A 
ATOM      4  C   UNL     1       6.565   0.944  -8.796  0.00  0.00    +0.020 A 
ATOM      5  C   UNL     1       5.291   1.084  -9.316  0.00  0.00    +0.003 A 
ATOM      6  C   UNL     1       4.207   1.198  -8.467  0.00  0.00    +0.020 A 
ATOM      7  C   UNL     1       4.394   1.166  -7.096  0.00  0.00    +0.048 A 
ATOM      8 CL   UNL     1       3.031   1.301  -6.030  0.00  0.00    -0.083 Cl
ATOM      9 CL   UNL     1       8.354   0.744  -6.774  0.00  0.00    -0.083 Cl
ENDBRANCH   1   2
BRANCH   1  11
ATOM     10  N   UNL     1       6.554  -1.359  -4.820  0.00  0.00    -0.308 N 
ATOM     11  C   UNL     1       6.887  -0.056  -4.735  0.00  0.00    +0.239 C 
ATOM     12  O   UNL     1       8.002   0.263  -4.379  0.00  0.00    -0.273 OA
ATOM     13  H   UNL     1       5.663  -1.614  -5.106  0.00  0.00    +0.149 HD
BRANCH  10  14
ATOM     14  C   UNL     1       7.538  -2.390  -4.482  0.00  0.00    +0.030 C 
ATOM     15  C   UNL     1       8.171  -2.066  -3.127  0.00  0.00    +0.031 C 
ATOM     16  C   UNL     1       8.627  -2.428  -5.557  0.00  0.00    +0.031 C 
BRANCH  14  17
ATOM     17  C   UNL     1       6.846  -3.752  -4.409  0.00  0.00    +0.031 C 
BRANCH  17  19
ATOM     18  C   UNL     1       4.421  -3.167  -4.561  0.00  0.00    +0.010 C 
ATOM     19  C   UNL     1       5.541  -3.619  -3.621  0.00  0.00    -0.036 C 
ATOM     20  C   UNL     1       5.721  -2.585  -2.508  0.00  0.00    +0.010 C 
ATOM     21  C   UNL     1       5.176  -4.972  -3.006  0.00  0.00    +0.010 C 
ENDBRANCH  17  19
ENDBRANCH  14  17
ENDBRANCH  10  14
ENDBRANCH   1  11
BRANCH   1  22
ATOM     22  N   UNL     1       6.362   2.311  -4.633  0.00  0.00    -0.277 N 
ATOM     23  C   UNL     1       6.767   3.227  -5.535  0.00  0.00    +0.252 C 
ATOM     24  O   UNL     1       6.283   3.237  -6.651  0.00  0.00    -0.270 OA
BRANCH  23  25
ATOM     25  C   UNL     1       7.797   4.217  -5.170  0.00  0.00    +0.082 A 
ATOM     26  C   UNL     1       7.872   4.703  -3.861  0.00  0.00    +0.017 A 
ATOM     27  C   UNL     1       8.835   5.628  -3.523  0.00  0.00    +0.005 A 
ATOM     28  C   UNL     1       9.735   6.080  -4.475  0.00  0.00    +0.049 A 
ATOM     29  C   UNL     1       9.674   5.609  -5.775  0.00  0.00    +0.159 A 
ATOM     30  C   UNL     1       8.710   4.671  -6.130  0.00  0.00    +0.171 A 
BRANCH  30  31
ATOM     31  O   UNL     1       8.650   4.201  -7.402  0.00  0.00    -0.503 OA
ATOM     32  H   UNL     1       8.081   4.720  -7.987  0.00  0.00    +0.292 HD
ENDBRANCH  30  31
BRANCH  29  33
ATOM     33  O   UNL     1      10.560   6.058  -6.703  0.00  0.00    -0.503 OA
ATOM     34  H   UNL     1      11.370   5.533  -6.760  0.00  0.00    +0.292 HD
ENDBRANCH  29  33
ENDBRANCH  23  25
BRANCH  22  35
ATOM     35  C   UNL     1       6.408   2.622  -3.202  0.00  0.00    +0.030 C 
ATOM     36  C   UNL     1       5.769   1.480  -2.411  0.00  0.00    +0.031 C 
ATOM     37  C   UNL     1       7.864   2.794  -2.765  0.00  0.00    +0.031 C 
ATOM     38  C   UNL     1       5.640   3.919  -2.937  0.00  0.00    +0.031 C 
ENDBRANCH  22  35
ENDBRANCH   1  22
TORSDOF 10
