REMARK  Name = ZINC08231488
REMARK  6 active torsions:
REMARK  status: ('A' for Active; 'I' for Inactive)
REMARK    1  A    between atoms: C_1  and  C_2
REMARK    2  A    between atoms: C_7  and  C_9
REMARK    3  A    between atoms: C_7  and  C_10
REMARK    4  A    between atoms: N_13  and  C_17
REMARK    5  A    between atoms: C_17  and  C_18
REMARK    6  A    between atoms: N_20  and  C_21
REMARK                            x       y       z     vdW  Elec       q    Type
REMARK                         _______ _______ _______ _____ _____    ______ ____
ROOT
ATOM      1  C   UNL     1       0.918   1.544  -0.765  0.00  0.00    +0.007 C 
ATOM      2  C   UNL     1       0.789   0.022  -0.639  0.00  0.00    -0.011 C 
ATOM      3  C   UNL     1       1.351  -0.638  -1.901  0.00  0.00    +0.038 C 
ATOM      4  C   UNL     1       1.183  -2.148  -1.808  0.00  0.00    +0.113 C 
ATOM      5  C   UNL     1       1.780  -2.731  -0.542  0.00  0.00    +0.041 C 
ATOM      6  C   UNL     1       1.482  -1.966   0.736  0.00  0.00    -0.032 C 
ATOM      7  C   UNL     1       1.602  -0.457   0.561  0.00  0.00    +0.009 C 
ATOM      8  C   UNL     1       2.512  -2.400   1.802  0.00  0.00    +0.011 C 
ATOM      9  C   UNL     1       0.092  -2.324   1.270  0.00  0.00    +0.011 C 
ATOM     10  C   UNL     1      -0.261  -2.543  -1.991  0.00  0.00    +0.247 C 
ATOM     11  O   UNL     1      -1.231  -2.143  -1.382  0.00  0.00    -0.273 OA
ATOM     12  N   UNL     1      -0.273  -3.432  -3.008  0.00  0.00    -0.215 N 
ATOM     13  C   UNL     1       0.935  -3.549  -3.570  0.00  0.00    +0.310 C 
ATOM     14  O   UNL     1       1.174  -4.278  -4.513  0.00  0.00    -0.252 OA
ATOM     15  N   UNL     1       1.853  -2.771  -2.973  0.00  0.00    -0.285 N 
ATOM     16  H   UNL     1       2.774  -2.634  -3.239  0.00  0.00    +0.151 HD
ENDROOT
BRANCH  12  17
ATOM     17  C   UNL     1      -1.460  -4.174  -3.438  0.00  0.00    +0.214 C 
BRANCH  17  18
ATOM     18  C   UNL     1      -2.191  -3.385  -4.494  0.00  0.00    +0.235 C 
ATOM     19  O   UNL     1      -1.762  -2.309  -4.852  0.00  0.00    -0.274 OA
ATOM     20  N   UNL     1      -3.321  -3.876  -5.040  0.00  0.00    -0.284 N 
ATOM     21  H   UNL     1      -3.623  -4.769  -4.811  0.00  0.00    +0.155 HD
BRANCH  20  22
ATOM     22  C   UNL     1      -4.059  -3.097  -5.938  0.00  0.00    +0.034 A 
ATOM     23  C   UNL     1      -4.107  -1.708  -5.773  0.00  0.00    +0.024 A 
ATOM     24  C   UNL     1      -4.816  -0.927  -6.630  0.00  0.00    +0.010 A 
ATOM     25  C   UNL     1      -5.513  -1.515  -7.701  0.00  0.00    -0.018 A 
ATOM     26  C   UNL     1      -6.253  -0.732  -8.603  0.00  0.00    +0.008 A 
ATOM     27  C   UNL     1      -6.917  -1.332  -9.629  0.00  0.00    +0.001 A 
ATOM     28  C   UNL     1      -6.873  -2.715  -9.801  0.00  0.00    +0.001 A 
ATOM     29  C   UNL     1      -6.167  -3.505  -8.947  0.00  0.00    +0.008 A 
ATOM     30  C   UNL     1      -5.469  -2.921  -7.875  0.00  0.00    -0.016 A 
ATOM     31  C   UNL     1      -4.725  -3.705  -6.979  0.00  0.00    +0.031 A 
ENDBRANCH  20  22
ENDBRANCH  17  18
ENDBRANCH  12  17
TORSDOF 3
