REMARK  Name = ZINC34708269
REMARK  10 active torsions:
REMARK  status: ('A' for Active; 'I' for Inactive)
REMARK    1  A    between atoms: C_5  and  O_7
REMARK    2  A    between atoms: O_7  and  C_8
REMARK    3  A    between atoms: C_8  and  C_10
REMARK    4  A    between atoms: C_8  and  C_29
REMARK    5  A    between atoms: C_10  and  N_11
REMARK    6  A    between atoms: N_11  and  C_12
REMARK    7  A    between atoms: N_11  and  C_22
REMARK    8  A    between atoms: C_12  and  C_13
REMARK    9  A    between atoms: C_22  and  C_23
REMARK   10  A    between atoms: N_31  and  C_32
REMARK                            x       y       z     vdW  Elec       q    Type
REMARK                         _______ _______ _______ _____ _____    ______ ____
ROOT
ATOM      1  C   UNL     1       0.373  -2.085   0.091  0.00  0.00    +0.242 C 
ENDROOT
BRANCH   1   2
ATOM      2  C   UNL     1       0.821  -3.345  -0.604  0.00  0.00    +0.252 C 
ATOM      3  O   UNL     1       1.999  -3.529  -0.826  0.00  0.00    -0.272 OA
ATOM      4  N   UNL     1      -0.088  -4.268  -0.979  0.00  0.00    -0.309 N 
ATOM      5  H   UNL     1      -1.030  -4.120  -0.801  0.00  0.00    +0.149 HD
BRANCH   4   6
ATOM      6  C   UNL     1       0.348  -5.492  -1.654  0.00  0.00    +0.073 C 
ATOM      7  C   UNL     1       0.481  -5.227  -3.155  0.00  0.00    +0.022 C 
ATOM      8  C   UNL     1       0.935  -6.506  -3.861  0.00  0.00    +0.002 C 
ATOM      9  C   UNL     1      -0.096  -7.612  -3.628  0.00  0.00    +0.000 C 
ATOM     10  C   UNL     1      -0.230  -7.877  -2.127  0.00  0.00    +0.002 C 
ATOM     11  C   UNL     1      -0.684  -6.598  -1.421  0.00  0.00    +0.022 C 
ENDBRANCH   4   6
ENDBRANCH   1   2
BRANCH   1  12
ATOM     12  O   UNL     1       1.495  -1.221   0.280  0.00  0.00    -0.479 OA
BRANCH  12  17
ATOM     13  C   UNL     1       1.505   0.307  -3.022  0.00  0.00    +0.004 A 
ATOM     14  C   UNL     1       2.533   1.221  -2.881  0.00  0.00    +0.003 A 
ATOM     15  C   UNL     1       3.214   1.319  -1.682  0.00  0.00    +0.042 A 
ATOM     16  C   UNL     1       2.869   0.502  -0.621  0.00  0.00    +0.165 A 
ATOM     17  C   UNL     1       1.837  -0.416  -0.761  0.00  0.00    +0.157 A 
ATOM     18  C   UNL     1       1.156  -0.512  -1.965  0.00  0.00    +0.048 A 
ATOM     19  F   UNL     1       3.535   0.598   0.551  0.00  0.00    -0.202 F 
ENDBRANCH  12  17
ENDBRANCH   1  12
BRANCH   1  20
ATOM     20  C   UNL     1      -0.233  -2.440   1.451  0.00  0.00    -0.023 C 
BRANCH  20  21
ATOM     21  N   UNL     1      -0.713  -1.217   2.107  0.00  0.00    +0.387 N 
ATOM     22  H   UNL     1       0.036  -0.543   2.151  0.00  0.00    -0.081 HD
BRANCH  21  23
ATOM     23  C   UNL     1      -1.833  -0.656   1.340  0.00  0.00    -0.043 C 
BRANCH  23  24
ATOM     24  C   UNL     1      -2.245   0.661   1.943  0.00  0.00    -0.060 A 
ATOM     25  C   UNL     1      -3.205   0.695   2.937  0.00  0.00    +0.005 A 
ATOM     26  C   UNL     1      -3.586   1.901   3.494  0.00  0.00    +0.050 A 
ATOM     27  C   UNL     1      -3.007   3.081   3.056  0.00  0.00    +0.166 A 
ATOM     28  C   UNL     1      -2.040   3.048   2.054  0.00  0.00    +0.166 A 
ATOM     29  C   UNL     1      -1.659   1.834   1.504  0.00  0.00    +0.051 A 
ATOM     30  O   UNL     1      -1.629   4.324   1.802  0.00  0.00    -0.453 OA
ATOM     31  C   UNL     1      -2.644   5.174   2.369  0.00  0.00    +0.466 C 
ATOM     32  O   UNL     1      -3.202   4.379   3.431  0.00  0.00    -0.453 OA
ENDBRANCH  23  24
ENDBRANCH  21  23
BRANCH  21  33
ATOM     33  C   UNL     1      -1.164  -1.537   3.468  0.00  0.00    -0.046 C 
BRANCH  33  34
ATOM     34  C   UNL     1       0.034  -1.980   4.312  0.00  0.00    +0.102 C 
ATOM     35  C   UNL     1      -0.436  -2.349   5.735  0.00  0.00    +0.032 C 
ATOM     36  C   UNL     1       0.710  -1.783   6.617  0.00  0.00    +0.030 C 
ATOM     37  C   UNL     1       1.109  -0.523   5.809  0.00  0.00    +0.160 C 
ATOM     38  O   UNL     1       0.971  -0.903   4.429  0.00  0.00    -0.378 OA
ENDBRANCH  33  34
ENDBRANCH  21  33
ENDBRANCH  20  21
ENDBRANCH   1  20
TORSDOF 10
