REMARK  Name = ZINC58392104
REMARK  6 active torsions:
REMARK  status: ('A' for Active; 'I' for Inactive)
REMARK    1  A    between atoms: C_1  and  C_2
REMARK    2  A    between atoms: C_7  and  C_8
REMARK    3  A    between atoms: C_7  and  C_9
REMARK    4  A    between atoms: N_12  and  N_13
REMARK    5  A    between atoms: C_14  and  C_16
REMARK    6  A    between atoms: C_16  and  N_17
REMARK                            x       y       z     vdW  Elec       q    Type
REMARK                         _______ _______ _______ _____ _____    ______ ____
ROOT
ATOM      1  C   UNL     1      -6.118  -1.250  -0.318  0.00  0.00    +0.215 C 
ENDROOT
BRANCH   1   2
ATOM      2  N   UNL     1      -7.276  -0.445  -0.704  0.00  0.00    -0.215 N 
ATOM      3  C   UNL     1      -8.018   0.284   0.167  0.00  0.00    +0.247 C 
ATOM      4  O   UNL     1      -7.985   0.179   1.363  0.00  0.00    -0.273 OA
ATOM      5  C   UNL     1      -8.825   1.217  -0.730  0.00  0.00    +0.113 C 
ATOM      6  C   UNL     1      -8.055   2.542  -0.854  0.00  0.00    +0.035 C 
ATOM      7  C   UNL     1      -8.791   3.672  -0.121  0.00  0.00    +0.003 C 
ATOM      8  C   UNL     1      -8.233   3.902   1.279  0.00  0.00    +0.000 C 
ATOM      9  C   UNL     1      -8.766   2.805   2.216  0.00  0.00    +0.000 C 
ATOM     10  C   UNL     1     -10.254   2.585   1.943  0.00  0.00    +0.000 C 
ATOM     11  C   UNL     1     -10.470   1.263   1.212  0.00  0.00    +0.003 C 
ATOM     12  C   UNL     1     -10.259   1.374  -0.290  0.00  0.00    +0.035 C 
ATOM     13  N   UNL     1      -8.768   0.532  -2.037  0.00  0.00    -0.285 N 
ATOM     14  C   UNL     1      -7.757  -0.352  -1.950  0.00  0.00    +0.310 C 
ATOM     15  O   UNL     1      -7.332  -0.991  -2.891  0.00  0.00    -0.252 OA
ATOM     16  H   UNL     1      -9.344   0.693  -2.798  0.00  0.00    +0.151 HD
ENDBRANCH   1   2
BRANCH   1  18
ATOM     17  N   UNL     1      -3.670  -0.955  -0.127  0.00  0.00    -0.206 N 
ATOM     18  C   UNL     1      -4.867  -0.418  -0.433  0.00  0.00    +0.250 C 
ATOM     19  O   UNL     1      -4.937   0.736  -0.802  0.00  0.00    -0.272 OA
ATOM     20  H   UNL     1      -3.613  -1.878   0.168  0.00  0.00    +0.177 HD
BRANCH  17  31
ATOM     21  C   UNL     1      -0.019   1.526   0.010  0.00  0.00    +0.018 C 
ATOM     22  C   UNL     1       0.002  -0.004   0.002  0.00  0.00    +0.013 C 
ATOM     23  C   UNL     1       0.746  -0.667  -1.197  0.00  0.00    +0.013 C 
ATOM     24  C   UNL     1       1.065  -2.101  -0.713  0.00  0.00    +0.005 C 
ATOM     25  C   UNL     1       0.474  -2.165   0.729  0.00  0.00    +0.001 C 
ATOM     26  C   UNL     1       0.727  -0.692   1.212  0.00  0.00    -0.021 C 
ATOM     27  C   UNL     1       0.034  -0.396   2.543  0.00  0.00    +0.012 C 
ATOM     28  C   UNL     1       2.218  -0.351   1.258  0.00  0.00    +0.012 C 
ATOM     29  C   UNL     1      -1.071  -2.146   0.514  0.00  0.00    +0.057 C 
ATOM     30  C   UNL     1      -1.369  -0.692   0.058  0.00  0.00    +0.044 C 
ATOM     31  N   UNL     1      -2.506  -0.182  -0.233  0.00  0.00    -0.189 NA
ENDBRANCH  17  31
ENDBRANCH   1  18
TORSDOF 3
