REMARK  Name = ZINC59484468
REMARK  7 active torsions:
REMARK  status: ('A' for Active; 'I' for Inactive)
REMARK    1  A    between atoms: C_1  and  C_2
REMARK    2  A    between atoms: C_5  and  C_8
REMARK    3  A    between atoms: C_11  and  C_12
REMARK    4  A    between atoms: C_14  and  O_21
REMARK    5  A    between atoms: C_15  and  O_19
REMARK    6  A    between atoms: O_19  and  C_20
REMARK    7  A    between atoms: O_21  and  C_22
REMARK                            x       y       z     vdW  Elec       q    Type
REMARK                         _______ _______ _______ _____ _____    ______ ____
ROOT
ATOM      1  C   UNL     1       0.115  -4.252  -0.025  0.00  0.00    +0.232 C 
ATOM      2  N   UNL     1       0.109  -4.989   1.050  0.00  0.00    -0.205 NA
ATOM      3  C   UNL     1       0.108  -6.305   0.688  0.00  0.00    +0.152 C 
ATOM      4  C   UNL     1       0.102  -7.402   1.525  0.00  0.00    +0.043 C 
ATOM      5  C   UNL     1       0.114  -6.307  -0.786  0.00  0.00    +0.364 C 
ATOM      6  O   UNL     1       0.115  -7.275  -1.524  0.00  0.00    -0.243 OA
ATOM      7  O   UNL     1       0.114  -5.004  -1.142  0.00  0.00    -0.402 OA
ENDROOT
BRANCH   1  12
ATOM      8  C   UNL     1       0.123   1.502  -0.001  0.00  0.00    +0.044 C 
ATOM      9  C   UNL     1       0.121  -0.005  -0.008  0.00  0.00    -0.050 A 
ATOM     10  C   UNL     1       0.120  -0.689  -1.211  0.00  0.00    +0.004 A 
ATOM     11  C   UNL     1       0.118  -2.068  -1.224  0.00  0.00    +0.013 A 
ATOM     12  C   UNL     1       0.117  -2.775  -0.019  0.00  0.00    +0.037 A 
ATOM     13  C   UNL     1       0.118  -2.078   1.191  0.00  0.00    +0.013 A 
ATOM     14  C   UNL     1       0.125  -0.699   1.190  0.00  0.00    +0.004 A 
ENDBRANCH   1  12
BRANCH   4  15
ATOM     15  C   UNL     1       0.211  -7.218   2.974  0.00  0.00    -0.018 A 
ATOM     16  C   UNL     1       0.337  -8.332   3.817  0.00  0.00    +0.057 A 
ATOM     17  C   UNL     1       0.439  -8.151   5.181  0.00  0.00    +0.163 A 
ATOM     18  C   UNL     1       0.416  -6.864   5.719  0.00  0.00    +0.175 A 
ATOM     19  C   UNL     1       0.291  -5.759   4.886  0.00  0.00    +0.059 A 
ATOM     20  C   UNL     1       0.195  -5.928   3.522  0.00  0.00    +0.026 A 
ATOM     21  I   UNL     1       0.258  -3.832   5.705  0.00  0.00    -0.040 I 
BRANCH  18  22
ATOM     22  O   UNL     1       0.516  -6.691   7.062  0.00  0.00    -0.490 OA
ATOM     23  C   UNL     1       1.831  -6.543   7.601  0.00  0.00    +0.277 C 
ENDBRANCH  18  22
BRANCH  17  24
ATOM     24  O   UNL     1       0.561  -9.229   6.002  0.00  0.00    -0.491 OA
ATOM     25  C   UNL     1       0.576 -10.517   5.383  0.00  0.00    +0.277 C 
ENDBRANCH  17  24
ENDBRANCH   4  15
TORSDOF 4
