REMARK  Name = ZINC59291986
REMARK  10 active torsions:
REMARK  status: ('A' for Active; 'I' for Inactive)
REMARK    1  A    between atoms: C_1  and  C_2
REMARK    2  A    between atoms: C_2  and  O_3
REMARK    3  A    between atoms: O_3  and  C_4
REMARK    4  A    between atoms: C_7  and  C_10
REMARK    5  A    between atoms: N_18  and  C_19
REMARK    6  A    between atoms: C_19  and  C_21
REMARK    7  A    between atoms: C_19  and  C_22
REMARK    8  A    between atoms: C_22  and  C_23
REMARK    9  A    between atoms: C_23  and  C_24
REMARK   10  A    between atoms: C_27  and  O_30
REMARK                            x       y       z     vdW  Elec       q    Type
REMARK                         _______ _______ _______ _____ _____    ______ ____
ROOT
ATOM      1  C   UNL     1       1.109  -6.040  -1.847  0.00  0.00    +0.108 C 
ATOM      2  C   UNL     1       2.517  -6.510  -1.425  0.00  0.00    +0.029 C 
ATOM      3  C   UNL     1       2.848  -7.603  -2.476  0.00  0.00    +0.021 C 
ATOM      4  C   UNL     1       2.179  -7.024  -3.748  0.00  0.00    +0.110 C 
ATOM      5  N   UNL     1       0.936  -6.387  -3.265  0.00  0.00    -0.279 N 
ATOM      6  C   UNL     1      -0.172  -6.162  -3.999  0.00  0.00    +0.303 C 
ATOM      7  O   UNL     1      -1.139  -5.628  -3.492  0.00  0.00    -0.253 OA
ATOM      8  N   UNL     1      -0.207  -6.529  -5.296  0.00  0.00    -0.297 N 
ATOM      9  H   UNL     1       0.565  -6.955  -5.700  0.00  0.00    +0.151 HD
ENDROOT
BRANCH   1  13
ATOM     10  C   UNL     1       0.777  -1.810  -1.336  0.00  0.00    +0.121 A 
ATOM     11  C   UNL     1       0.243  -2.669  -0.386  0.00  0.00    +0.046 A 
ATOM     12  C   UNL     1       0.351  -4.036  -0.554  0.00  0.00    +0.009 A 
ATOM     13  C   UNL     1       0.992  -4.548  -1.667  0.00  0.00    -0.027 A 
ATOM     14  C   UNL     1       1.525  -3.694  -2.615  0.00  0.00    +0.009 A 
ATOM     15  C   UNL     1       1.414  -2.327  -2.455  0.00  0.00    +0.046 A 
BRANCH  10  16
ATOM     16  O   UNL     1       0.671  -0.465  -1.174  0.00  0.00    -0.492 OA
BRANCH  16  18
ATOM     17  C   UNL     1      -0.019   1.526   0.010  0.00  0.00    +0.048 C 
ATOM     18  C   UNL     1       0.002  -0.004   0.002  0.00  0.00    +0.225 C 
ENDBRANCH  16  18
ENDBRANCH  10  16
ENDBRANCH   1  13
BRANCH   8  19
ATOM     19  C   UNL     1      -1.411  -6.284  -6.094  0.00  0.00    +0.072 C 
ATOM     20  C   UNL     1      -1.373  -4.859  -6.650  0.00  0.00    +0.028 C 
BRANCH  19  21
ATOM     21  C   UNL     1      -1.466  -7.282  -7.252  0.00  0.00    +0.026 C 
BRANCH  21  22
ATOM     22  C   UNL     1      -1.630  -8.699  -6.697  0.00  0.00    +0.037 C 
BRANCH  22  23
ATOM     23  C   UNL     1      -1.685  -9.682  -7.838  0.00  0.00    -0.047 A 
ATOM     24  C   UNL     1      -2.900 -10.008  -8.410  0.00  0.00    +0.007 A 
ATOM     25  C   UNL     1      -2.954 -10.910  -9.456  0.00  0.00    +0.045 A 
ATOM     26  C   UNL     1      -1.786 -11.487  -9.932  0.00  0.00    +0.117 A 
ATOM     27  C   UNL     1      -0.567 -11.158  -9.357  0.00  0.00    +0.045 A 
ATOM     28  C   UNL     1      -0.518 -10.252  -8.315  0.00  0.00    +0.007 A 
BRANCH  26  29
ATOM     29  O   UNL     1      -1.835 -12.374 -10.960  0.00  0.00    -0.507 OA
ATOM     30  H   UNL     1      -1.757 -11.968 -11.834  0.00  0.00    +0.292 HD
ENDBRANCH  26  29
ENDBRANCH  22  23
ENDBRANCH  21  22
ENDBRANCH  19  21
ENDBRANCH   8  19
TORSDOF 8
