REMARK  Name = ZINC35725876
REMARK  5 active torsions:
REMARK  status: ('A' for Active; 'I' for Inactive)
REMARK    1  A    between atoms: C_1  and  N_2
REMARK    2  A    between atoms: C_6  and  C_7
REMARK    3  A    between atoms: C_9  and  C_19
REMARK    4  A    between atoms: N_10  and  C_12
REMARK    5  A    between atoms: C_24  and  N_27
REMARK                            x       y       z     vdW  Elec       q    Type
REMARK                         _______ _______ _______ _____ _____    ______ ____
ROOT
ATOM      1  C   UNL     1       0.302   1.841   5.240  0.00  0.00    +0.265 C 
ATOM      2  O   UNL     1       0.185   3.010   4.925  0.00  0.00    -0.268 OA
ATOM      3  N   UNL     1       0.778   1.516   6.458  0.00  0.00    -0.296 N 
ATOM      4  C   UNL     1       1.062   0.116   6.802  0.00  0.00    +0.110 C 
ATOM      5  C   UNL     1       2.504   0.015   7.308  0.00  0.00    +0.044 C 
ATOM      6  C   UNL     1       2.705   0.999   8.463  0.00  0.00    +0.095 C 
ATOM      7  C   UNL     1       2.467   2.427   7.966  0.00  0.00    +0.044 C 
ATOM      8  C   UNL     1       1.030   2.556   7.465  0.00  0.00    +0.110 C 
ENDROOT
BRANCH   6   9
ATOM      9  N   UNL     1       4.074   0.881   8.972  0.00  0.00    -0.289 N 
ATOM     10  C   UNL     1       4.434   0.528  10.270  0.00  0.00    +0.070 A 
ATOM     11  C   UNL     1       3.705   0.201  11.403  0.00  0.00    +0.028 A 
ATOM     12  C   UNL     1       4.363  -0.113  12.576  0.00  0.00    +0.002 A 
ATOM     13  C   UNL     1       5.746  -0.102  12.626  0.00  0.00    +0.002 A 
ATOM     14  C   UNL     1       6.481   0.222  11.502  0.00  0.00    +0.028 A 
ATOM     15  C   UNL     1       5.829   0.538  10.319  0.00  0.00    +0.067 A 
ATOM     16  N   UNL     1       6.274   0.898   9.049  0.00  0.00    -0.306 N 
ATOM     17  H   UNL     1       7.201   0.989   8.777  0.00  0.00    +0.170 HD
ATOM     18  C   UNL     1       5.199   1.091   8.262  0.00  0.00    +0.328 A 
ATOM     19  O   UNL     1       5.238   1.411   7.089  0.00  0.00    -0.247 OA
ENDBRANCH   6   9
BRANCH   1  22
ATOM     20  C   UNL     1      -0.683  -1.190   3.405  0.00  0.00    +0.110 A 
ATOM     21  C   UNL     1      -0.377  -0.525   4.604  0.00  0.00    +0.064 A 
ATOM     22  C   UNL     1      -0.076   0.782   4.291  0.00  0.00    +0.130 A 
ATOM     23  N   UNL     1      -0.196   0.913   2.932  0.00  0.00    -0.227 N 
ATOM     24  N   UNL     1      -0.569  -0.331   2.410  0.00  0.00    -0.164 NA
BRANCH  23  25
ATOM     25  C   UNL     1       0.021   2.083   2.196  0.00  0.00    +0.068 A 
ATOM     26  C   UNL     1      -0.660   3.249   2.525  0.00  0.00    +0.028 A 
ATOM     27  C   UNL     1      -0.444   4.402   1.797  0.00  0.00    +0.003 A 
ATOM     28  C   UNL     1       0.450   4.399   0.741  0.00  0.00    +0.020 A 
ATOM     29  C   UNL     1       1.130   3.240   0.411  0.00  0.00    +0.043 A 
ATOM     30  C   UNL     1       0.922   2.083   1.139  0.00  0.00    +0.047 A 
ATOM     31 CL   UNL     1       2.251   3.240  -0.914  0.00  0.00    -0.083 Cl
ENDBRANCH  23  25
BRANCH  20  37
ATOM     32  C   UNL     1      -0.681  -3.291   5.680  0.00  0.00    +0.149 C 
ATOM     33  N   UNL     1      -1.061  -3.542   4.288  0.00  0.00    -0.348 N 
ATOM     34  C   UNL     1      -1.479  -4.737   3.781  0.00  0.00    +0.086 A 
ATOM     35  C   UNL     1      -1.738  -4.577   2.465  0.00  0.00    +0.020 A 
ATOM     36  C   UNL     1      -1.475  -3.236   2.139  0.00  0.00    +0.029 A 
ATOM     37  C   UNL     1      -1.063  -2.614   3.279  0.00  0.00    +0.069 A 
ENDBRANCH  20  37
ENDBRANCH   1  22
TORSDOF 4
