REMARK  Name = ZINC39991784
REMARK  10 active torsions:
REMARK  status: ('A' for Active; 'I' for Inactive)
REMARK    1  A    between atoms: C_1  and  C_2
REMARK    2  A    between atoms: C_2  and  C_3
REMARK    3  A    between atoms: C_3  and  C_4
REMARK    4  A    between atoms: C_4  and  O_5
REMARK    5  A    between atoms: O_5  and  C_6
REMARK    6  A    between atoms: C_11  and  C_12
REMARK    7  A    between atoms: C_13  and  C_14
REMARK    8  A    between atoms: C_13  and  C_16
REMARK    9  A    between atoms: N_18  and  C_19
REMARK   10  A    between atoms: C_20  and  C_28
REMARK                            x       y       z     vdW  Elec       q    Type
REMARK                         _______ _______ _______ _____ _____    ______ ____
ROOT
ATOM      1  C   UNL     1       2.721  -3.461  -4.748  0.00  0.00    +0.035 C 
ATOM      2  C   UNL     1       3.442  -3.978  -5.803  0.00  0.00    +0.114 C 
ENDROOT
BRANCH   1   8
ATOM      3  C   UNL     1       1.786  -4.056  -2.519  0.00  0.00    +0.128 A 
ATOM      4  C   UNL     1       1.043  -4.906  -1.715  0.00  0.00    +0.046 A 
ATOM      5  C   UNL     1       0.468  -6.041  -2.251  0.00  0.00    +0.004 A 
ATOM      6  C   UNL     1       0.626  -6.342  -3.595  0.00  0.00    +0.001 A 
ATOM      7  C   UNL     1       1.359  -5.512  -4.412  0.00  0.00    +0.011 A 
ATOM      8  C   UNL     1       1.945  -4.353  -3.885  0.00  0.00    +0.018 A 
BRANCH   3   9
ATOM      9  O   UNL     1       2.351  -2.940  -1.994  0.00  0.00    -0.491 OA
BRANCH   9  10
ATOM     10  C   UNL     1       2.146  -2.705  -0.599  0.00  0.00    +0.229 C 
BRANCH  10  11
ATOM     11  C   UNL     1       2.853  -1.411  -0.191  0.00  0.00    +0.041 C 
BRANCH  11  13
ATOM     12  C   UNL     1       3.340   0.136   1.709  0.00  0.00    +0.004 C 
ATOM     13  C   UNL     1       2.633  -1.158   1.302  0.00  0.00    -0.000 C 
ENDBRANCH  11  13
ENDBRANCH  10  11
ENDBRANCH   9  10
ENDBRANCH   3   9
ENDBRANCH   1   8
BRANCH   2  14
ATOM     14  C   UNL     1       4.100  -3.073  -6.757  0.00  0.00    +0.259 C 
ATOM     15  O   UNL     1       4.008  -1.868  -6.616  0.00  0.00    -0.269 OA
ATOM     16  N   UNL     1       4.804  -3.579  -7.789  0.00  0.00    -0.274 N 
ATOM     17  H   UNL     1       4.878  -4.539  -7.902  0.00  0.00    +0.156 HD
BRANCH  16  18
ATOM     18  C   UNL     1       5.425  -2.726  -8.689  0.00  0.00    +0.090 A 
ATOM     19  C   UNL     1       6.178  -3.063  -9.802  0.00  0.00    +0.084 A 
ATOM     20  C   UNL     1       6.725  -1.973 -10.590  0.00  0.00    -0.018 A 
ATOM     21  C   UNL     1       6.417  -0.744 -10.121  0.00  0.00    -0.004 A 
ATOM     22  S   UNL     1       5.428  -1.046  -8.686  0.00  0.00    -0.077 S 
ATOM     23  C   UNL     1       6.829   0.572 -10.706  0.00  0.00    +0.043 C 
ATOM     24  C   UNL     1       7.968   0.319 -11.704  0.00  0.00    +0.005 C 
ATOM     25  C   UNL     1       7.572  -0.838 -12.626  0.00  0.00    +0.005 C 
ATOM     26  C   UNL     1       7.573  -2.152 -11.841  0.00  0.00    +0.037 C 
BRANCH  19  27
ATOM     27  C   UNL     1       6.410  -4.430 -10.159  0.00  0.00    +0.102 C 
ATOM     28  N   UNL     1       6.594  -5.515 -10.442  0.00  0.00    -0.191 NA
ENDBRANCH  19  27
ENDBRANCH  16  18
ENDBRANCH   2  14
BRANCH   2  29
ATOM     29  C   UNL     1       3.551  -5.396  -5.969  0.00  0.00    +0.104 C 
ATOM     30  N   UNL     1       3.637  -6.521  -6.101  0.00  0.00    -0.191 NA
ENDBRANCH   2  29
TORSDOF 9
