REMARK  Name = ZINC09305105
REMARK  10 active torsions:
REMARK  status: ('A' for Active; 'I' for Inactive)
REMARK    1  A    between atoms: C_1  and  C_2
REMARK    2  A    between atoms: C_2  and  O_3
REMARK    3  A    between atoms: O_3  and  C_4
REMARK    4  A    between atoms: C_6  and  C_16
REMARK    5  A    between atoms: C_9  and  O_10
REMARK    6  A    between atoms: O_10  and  C_11
REMARK    7  A    between atoms: C_11  and  C_12
REMARK    8  A    between atoms: N_20  and  C_31
REMARK    9  A    between atoms: N_22  and  C_23
REMARK   10  A    between atoms: C_26  and  C_29
REMARK                            x       y       z     vdW  Elec       q    Type
REMARK                         _______ _______ _______ _____ _____    ______ ____
ROOT
ATOM      1  C   UNL     1     -10.079   5.280  -1.965  0.00  0.00    +0.164 A 
ATOM      2  C   UNL     1      -9.251   4.299  -2.474  0.00  0.00    +0.057 A 
ATOM      3  C   UNL     1      -7.865   4.498  -2.495  0.00  0.00    -0.019 A 
ATOM      4  C   UNL     1      -7.327   5.695  -2.009  0.00  0.00    +0.027 A 
ATOM      5  C   UNL     1      -8.162   6.672  -1.508  0.00  0.00    +0.064 A 
ATOM      6  C   UNL     1      -9.536   6.470  -1.484  0.00  0.00    +0.177 A 
ATOM      7 BR   UNL     1      -7.433   8.289  -0.853  0.00  0.00    -0.046 Br
ENDROOT
BRANCH   3   8
ATOM      8  C   UNL     1      -6.980   3.455  -3.029  0.00  0.00    +0.028 C 
ATOM      9  C   UNL     1      -5.690   3.382  -2.613  0.00  0.00    +0.078 C 
ATOM     10  C   UNL     1      -4.639   2.417  -2.988  0.00  0.00    +0.259 C 
ATOM     11  O   UNL     1      -4.854   1.516  -3.777  0.00  0.00    -0.269 OA
ATOM     12  N   UNL     1      -3.452   2.575  -2.427  0.00  0.00    -0.249 N 
ATOM     13  C   UNL     1      -3.227   3.601  -1.535  0.00  0.00    +0.168 C 
ATOM     14  N   UNL     1      -2.120   3.898  -0.893  0.00  0.00    -0.226 NA
ATOM     15  S   UNL     1      -4.810   4.425  -1.459  0.00  0.00    -0.049 S 
ATOM     16  C   UNL     1      -2.365   1.650  -2.756  0.00  0.00    +0.140 C 
BRANCH  14  17
ATOM     17  C   UNL     1      -0.963   3.225  -1.177  0.00  0.00    +0.067 A 
ATOM     18  C   UNL     1      -0.365   3.357  -2.433  0.00  0.00    +0.028 A 
ATOM     19  C   UNL     1       0.798   2.672  -2.714  0.00  0.00    +0.005 A 
ATOM     20  C   UNL     1       1.379   1.863  -1.753  0.00  0.00    -0.050 A 
ATOM     21  C   UNL     1       0.795   1.732  -0.505  0.00  0.00    +0.005 A 
ATOM     22  C   UNL     1      -0.371   2.408  -0.211  0.00  0.00    +0.028 A 
ATOM     23  C   UNL     1       2.653   1.122  -2.066  0.00  0.00    +0.044 C 
ENDBRANCH  14  17
ENDBRANCH   3   8
BRANCH   1  24
ATOM     24  O   UNL     1     -11.425   5.088  -1.939  0.00  0.00    -0.489 OA
BRANCH  24  26
ATOM     25  C   UNL     1     -13.438   3.812  -2.336  0.00  0.00    +0.048 C 
ATOM     26  C   UNL     1     -11.913   3.845  -2.448  0.00  0.00    +0.226 C 
ENDBRANCH  24  26
ENDBRANCH   1  24
BRANCH   6  27
ATOM     27  O   UNL     1     -10.353   7.436  -0.989  0.00  0.00    -0.478 OA
BRANCH  27  28
ATOM     28  C   UNL     1     -10.839   8.412  -1.913  0.00  0.00    +0.324 C 
BRANCH  28  29
ATOM     29  C   UNL     1     -11.723   9.394  -1.189  0.00  0.00    +0.248 C 
ATOM     30  O   UNL     1     -11.918   9.271   0.002  0.00  0.00    -0.272 OA
ATOM     31  N   UNL     1     -12.298  10.409  -1.864  0.00  0.00    -0.327 N 
ATOM     32  H   UNL     1     -12.142  10.507  -2.817  0.00  0.00    +0.145 HD
ATOM     33  H   UNL     1     -12.866  11.041  -1.398  0.00  0.00    +0.145 HD
ENDBRANCH  28  29
ENDBRANCH  27  28
ENDBRANCH   6  27
TORSDOF 7
