REMARK  Name = ZINC45913740
REMARK  4 active torsions:
REMARK  status: ('A' for Active; 'I' for Inactive)
REMARK    1  A    between atoms: C_1  and  C_2
REMARK    2  A    between atoms: C_3  and  C_27
REMARK    3  A    between atoms: C_7  and  N_11
REMARK    4  A    between atoms: C_14  and  C_17
REMARK                            x       y       z     vdW  Elec       q    Type
REMARK                         _______ _______ _______ _____ _____    ______ ____
ROOT
ATOM      1  N   UNL     1       0.261   1.093   2.839  0.00  0.00    -0.278 N 
ATOM      2  C   UNL     1       0.484   1.552   4.129  0.00  0.00    +0.164 A 
ATOM      3  N   UNL     1       0.523   2.792   4.580  0.00  0.00    -0.225 NA
ATOM      4  C   UNL     1       0.751   3.052   5.860  0.00  0.00    +0.080 A 
ATOM      5  C   UNL     1       0.950   2.016   6.729  0.00  0.00    +0.076 A 
ATOM      6  S   UNL     1       0.787   0.620   5.624  0.00  0.00    -0.060 S 
ATOM      7  H   UNL     1       0.109   1.726   2.119  0.00  0.00    +0.155 HD
ENDROOT
BRANCH   1  14
ATOM      8  C   UNL     1      -0.557   1.485   0.114  0.00  0.00    +0.045 C 
ATOM      9  C   UNL     1      -0.485  -0.020   0.096  0.00  0.00    -0.028 A 
ATOM     10  C   UNL     1      -0.772  -0.699  -1.024  0.00  0.00    -0.008 A 
ATOM     11  S   UNL     1      -0.546  -2.403  -0.548  0.00  0.00    -0.074 S 
ATOM     12  C   UNL     1      -0.072  -2.156   1.143  0.00  0.00    +0.114 A 
ATOM     13  C   UNL     1      -0.097  -0.751   1.289  0.00  0.00    +0.051 A 
ATOM     14  C   UNL     1       0.255  -0.267   2.579  0.00  0.00    +0.136 A 
ATOM     15  N   UNL     1       0.577  -1.132   3.527  0.00  0.00    -0.220 NA
ATOM     16  C   UNL     1       0.584  -2.436   3.317  0.00  0.00    +0.224 A 
ATOM     17  N   UNL     1       0.258  -2.946   2.145  0.00  0.00    -0.228 NA
ATOM     18  C   UNL     1      -1.187  -0.153  -2.366  0.00  0.00    +0.052 C 
ENDBRANCH   1  14
BRANCH   4  19
ATOM     19  C   UNL     1       0.791   4.453   6.343  0.00  0.00    +0.001 A 
ATOM     20  C   UNL     1       1.038   4.724   7.689  0.00  0.00    +0.012 A 
ATOM     21  C   UNL     1       1.076   6.025   8.138  0.00  0.00    +0.024 A 
ATOM     22  C   UNL     1       0.867   7.082   7.253  0.00  0.00    +0.037 A 
ATOM     23  C   UNL     1       0.622   6.805   5.913  0.00  0.00    -0.017 A 
ATOM     24  C   UNL     1       0.589   5.509   5.454  0.00  0.00    +0.016 A 
ATOM     25  C   UNL     1       0.442   8.140   5.228  0.00  0.00    +0.133 C 
ATOM     26  C   UNL     1       0.616   9.151   6.341  0.00  0.00    +0.222 C 
ATOM     27  O   UNL     1       0.551  10.358   6.235  0.00  0.00    -0.275 OA
ATOM     28  N   UNL     1       0.857   8.461   7.468  0.00  0.00    -0.285 N 
ATOM     29  H   UNL     1       1.007   8.874   8.333  0.00  0.00    +0.155 HD
ENDBRANCH   4  19
TORSDOF 2
