REMARK  Name = ZINC22473050
REMARK  9 active torsions:
REMARK  status: ('A' for Active; 'I' for Inactive)
REMARK    1  A    between atoms: C_1  and  C_2
REMARK    2  A    between atoms: C_6  and  C_8
REMARK    3  A    between atoms: N_10  and  C_11
REMARK    4  A    between atoms: N_10  and  C_26
REMARK    5  A    between atoms: C_11  and  C_12
REMARK    6  A    between atoms: C_12  and  C_13
REMARK    7  A    between atoms: C_13  and  N_14
REMARK    8  A    between atoms: C_17  and  O_18
REMARK    9  A    between atoms: C_26  and  C_27
REMARK                            x       y       z     vdW  Elec       q    Type
REMARK                         _______ _______ _______ _____ _____    ______ ____
ROOT
ATOM      1  C   UNL     1      -2.136   1.197  -0.064  0.00  0.00    +0.247 C 
ATOM      2  O   UNL     1      -3.066   1.965   0.082  0.00  0.00    -0.270 OA
ATOM      3  N   UNL     1      -2.352  -0.134  -0.054  0.00  0.00    -0.293 N 
ENDROOT
BRANCH   1   9
ATOM      4  C   UNL     1       2.728   1.068   1.045  0.00  0.00    +0.044 C 
ATOM      5  C   UNL     1       1.575   1.663   0.278  0.00  0.00    -0.050 A 
ATOM      6  C   UNL     1       1.797   2.708  -0.602  0.00  0.00    +0.003 A 
ATOM      7  C   UNL     1       0.745   3.260  -1.310  0.00  0.00    +0.001 A 
ATOM      8  C   UNL     1      -0.535   2.771  -1.143  0.00  0.00    +0.013 A 
ATOM      9  C   UNL     1      -0.767   1.721  -0.253  0.00  0.00    +0.037 A 
ATOM     10  C   UNL     1       0.301   1.166   0.455  0.00  0.00    +0.016 A 
ENDBRANCH   1   9
BRANCH   3  11
ATOM     11  C   UNL     1      -1.219  -1.061  -0.100  0.00  0.00    +0.110 C 
BRANCH  11  12
ATOM     12  C   UNL     1      -0.892  -1.538   1.316  0.00  0.00    +0.040 C 
BRANCH  12  13
ATOM     13  C   UNL     1       0.371  -2.400   1.286  0.00  0.00    +0.114 C 
BRANCH  13  14
ATOM     14  N   UNL     1       0.684  -2.857   2.642  0.00  0.00    -0.384 N 
ATOM     15  C   UNL     1       1.786  -3.653   2.863  0.00  0.00    +0.053 A 
ATOM     16  C   UNL     1       2.605  -4.030   1.830  0.00  0.00    +0.113 A 
ATOM     17  C   UNL     1       3.719  -4.840   2.087  0.00  0.00    +0.286 A 
ATOM     18  O   UNL     1       4.015  -5.266   3.325  0.00  0.00    -0.425 OA
ATOM     19  C   UNL     1       3.255  -4.935   4.392  0.00  0.00    +0.141 A 
ATOM     20  C   UNL     1       2.125  -4.120   4.218  0.00  0.00    +0.041 A 
ATOM     21  C   UNL     1       1.340  -3.771   5.318  0.00  0.00    +0.013 A 
ATOM     22  C   UNL     1       1.685  -4.224   6.572  0.00  0.00    +0.001 A 
ATOM     23  C   UNL     1       2.805  -5.024   6.744  0.00  0.00    +0.004 A 
ATOM     24  C   UNL     1       3.582  -5.387   5.663  0.00  0.00    +0.047 A 
ATOM     25  H   UNL     1       0.038  -2.565   3.483  0.00  0.00    +0.160 HD
BRANCH  17  26
ATOM     26  O   UNL     1       4.439  -5.168   1.160  0.00  0.00    -0.480 OA
ATOM     27  H   UNL     1       5.317  -5.803   1.344  0.00  0.00    +0.295 HD
ENDBRANCH  17  26
ENDBRANCH  13  14
ENDBRANCH  12  13
ENDBRANCH  11  12
ENDBRANCH   3  11
BRANCH   3  28
ATOM     28  C   UNL     1      -3.721  -0.653   0.004  0.00  0.00    +0.143 C 
BRANCH  28  29
ATOM     29  C   UNL     1      -4.250  -0.832  -1.396  0.00  0.00    -0.030 A 
ATOM     30  C   UNL     1      -4.920   0.204  -2.020  0.00  0.00    +0.005 A 
ATOM     31  C   UNL     1      -5.401   0.041  -3.306  0.00  0.00    +0.000 A 
ATOM     32  C   UNL     1      -5.219  -1.161  -3.964  0.00  0.00    +0.000 A 
ATOM     33  C   UNL     1      -4.553  -2.198  -3.339  0.00  0.00    +0.000 A 
ATOM     34  C   UNL     1      -4.068  -2.034  -2.055  0.00  0.00    +0.005 A 
ENDBRANCH  28  29
ENDBRANCH   3  28
TORSDOF 8
