REMARK  Name = ZINC16608560
REMARK  10 active torsions:
REMARK  status: ('A' for Active; 'I' for Inactive)
REMARK    1  A    between atoms: C_1  and  C_2
REMARK    2  A    between atoms: C_2  and  C_3
REMARK    3  A    between atoms: C_3  and  C_5
REMARK    4  A    between atoms: C_3  and  C_6
REMARK    5  A    between atoms: C_6  and  C_8
REMARK    6  A    between atoms: C_6  and  N_25
REMARK    7  A    between atoms: C_14  and  C_16
REMARK    8  A    between atoms: N_28  and  C_29
REMARK    9  A    between atoms: C_32  and  C_36
REMARK   10  A    between atoms: C_34  and  C_35
REMARK                            x       y       z     vdW  Elec       q    Type
REMARK                         _______ _______ _______ _____ _____    ______ ____
ROOT
ATOM      1  C   UNL     1      -0.220   1.318   0.097  0.00  0.00    +0.163 C 
ENDROOT
BRANCH   1   2
ATOM      2  C   UNL     1      -1.109   1.587  -1.089  0.00  0.00    +0.239 C 
ATOM      3  O   UNL     1      -2.149   2.193  -0.943  0.00  0.00    -0.273 OA
ATOM      4  N   UNL     1      -0.748   1.153  -2.314  0.00  0.00    -0.262 N 
ATOM      5  C   UNL     1      -1.513   1.491  -3.424  0.00  0.00    +0.188 A 
ATOM      6  N   UNL     1      -2.619   2.218  -3.507  0.00  0.00    -0.125 NA
ATOM      7  N   UNL     1      -3.196   2.431  -4.609  0.00  0.00    -0.140 NA
ATOM      8  C   UNL     1      -2.730   1.940  -5.750  0.00  0.00    +0.134 A 
ATOM      9  S   UNL     1      -1.282   1.075  -5.150  0.00  0.00    -0.030 S 
ATOM     10  H   UNL     1       0.046   0.606  -2.420  0.00  0.00    +0.157 HD
BRANCH   8  11
ATOM     11  C   UNL     1      -3.253   2.074  -7.126  0.00  0.00    +0.013 A 
ATOM     12  C   UNL     1      -2.588   1.463  -8.190  0.00  0.00    +0.014 A 
ATOM     13  C   UNL     1      -3.078   1.589  -9.473  0.00  0.00    +0.050 A 
ATOM     14  C   UNL     1      -4.231   2.323  -9.711  0.00  0.00    +0.166 A 
ATOM     15  C   UNL     1      -4.900   2.936  -8.652  0.00  0.00    +0.167 A 
ATOM     16  C   UNL     1      -4.416   2.809  -7.364  0.00  0.00    +0.060 A 
ATOM     17  O   UNL     1      -5.992   3.590  -9.146  0.00  0.00    -0.453 OA
ATOM     18  C   UNL     1      -6.214   3.032 -10.455  0.00  0.00    +0.466 C 
ATOM     19  O   UNL     1      -4.906   2.594 -10.867  0.00  0.00    -0.453 OA
ENDBRANCH   8  11
ENDBRANCH   1   2
BRANCH   1  20
ATOM     20  N   UNL     1      -0.917   1.702   1.327  0.00  0.00    -0.288 N 
ATOM     21  C   UNL     1      -0.585   1.125   2.499  0.00  0.00    +0.304 C 
ATOM     22  O   UNL     1       0.294   0.286   2.535  0.00  0.00    -0.252 OA
ATOM     23  N   UNL     1      -1.226   1.479   3.630  0.00  0.00    -0.269 N 
ATOM     24  H   UNL     1      -1.618   2.372   1.298  0.00  0.00    +0.151 HD
ATOM     25  H   UNL     1      -1.969   2.103   3.592  0.00  0.00    +0.156 HD
BRANCH  23  26
ATOM     26  C   UNL     1      -0.822   0.947   4.859  0.00  0.00    +0.038 A 
ATOM     27  C   UNL     1      -0.206  -0.297   4.911  0.00  0.00    +0.024 A 
ATOM     28  C   UNL     1       0.192  -0.819   6.125  0.00  0.00    +0.005 A 
ATOM     29  C   UNL     1      -0.022  -0.105   7.290  0.00  0.00    -0.050 A 
ATOM     30  C   UNL     1      -0.634   1.134   7.243  0.00  0.00    +0.008 A 
ATOM     31  C   UNL     1      -1.030   1.664   6.030  0.00  0.00    -0.029 A 
ATOM     32  C   UNL     1      -1.693   3.017   5.978  0.00  0.00    +0.045 C 
ATOM     33  C   UNL     1       0.414  -0.677   8.614  0.00  0.00    +0.044 C 
ENDBRANCH  23  26
ENDBRANCH   1  20
BRANCH   1  34
ATOM     34  C   UNL     1       1.068   2.133  -0.035  0.00  0.00    +0.015 C 
ATOM     35  C   UNL     1       0.742   3.624   0.079  0.00  0.00    +0.010 C 
BRANCH  34  37
ATOM     36  C   UNL     1       2.440   0.270   0.909  0.00  0.00    +0.004 C 
ATOM     37  C   UNL     1       2.039   1.737   1.079  0.00  0.00    +0.002 C 
ENDBRANCH  34  37
ENDBRANCH   1  34
TORSDOF 6
