REMARK  Name = ZINC36912245
REMARK  4 active torsions:
REMARK  status: ('A' for Active; 'I' for Inactive)
REMARK    1  A    between atoms: C_3  and  N_21
REMARK    2  A    between atoms: C_6  and  C_7
REMARK    3  A    between atoms: C_9  and  C_12
REMARK    4  A    between atoms: C_15  and  N_18
REMARK                            x       y       z     vdW  Elec       q    Type
REMARK                         _______ _______ _______ _____ _____    ______ ____
ROOT
ATOM      1  C   UNL     1      -1.267  -0.762   0.011  0.00  0.00    +0.109 A 
ATOM      2  N   UNL     1      -1.460  -2.071   0.011  0.00  0.00    -0.239 NA
ATOM      3  C   UNL     1      -2.677  -2.584   0.019  0.00  0.00    +0.079 A 
ATOM      4  C   UNL     1      -3.761  -1.746   0.028  0.00  0.00    +0.075 A 
ATOM      5  S   UNL     1      -2.947  -0.153   0.031  0.00  0.00    -0.075 S 
ENDROOT
BRANCH   1  11
ATOM      6  C   UNL     1      -0.017   1.392   0.010  0.00  0.00    +0.012 A 
ATOM      7  C   UNL     1       1.168   2.096   0.002  0.00  0.00    +0.023 A 
ATOM      8  C   UNL     1       2.381   1.417  -0.013  0.00  0.00    +0.025 A 
ATOM      9  C   UNL     1       2.403   0.026  -0.021  0.00  0.00    +0.023 A 
ATOM     10  C   UNL     1       1.222  -0.683  -0.014  0.00  0.00    +0.012 A 
ATOM     11  C   UNL     1       0.002  -0.004   0.002  0.00  0.00    +0.007 A 
BRANCH   8  12
ATOM     12  N   UNL     1       3.579   2.132  -0.021  0.00  0.00    -0.358 N 
ATOM     13  H   UNL     1       3.564   3.102  -0.015  0.00  0.00    +0.142 HD
ATOM     14  H   UNL     1       4.426   1.659  -0.031  0.00  0.00    +0.142 HD
ENDBRANCH   8  12
ENDBRANCH   1  11
BRANCH   3  15
ATOM     15  C   UNL     1      -2.869  -4.056   0.019  0.00  0.00    +0.001 A 
ATOM     16  C   UNL     1      -4.154  -4.593   0.021  0.00  0.00    +0.012 A 
ATOM     17  C   UNL     1      -4.327  -5.963   0.021  0.00  0.00    +0.033 A 
ATOM     18  C   UNL     1      -3.227  -6.801   0.018  0.00  0.00    +0.126 A 
ATOM     19  C   UNL     1      -1.948  -6.273   0.016  0.00  0.00    +0.033 A 
ATOM     20  C   UNL     1      -1.764  -4.905   0.010  0.00  0.00    +0.012 A 
BRANCH  18  21
ATOM     21  N   UNL     1      -3.418  -8.269   0.017  0.00  0.00    +0.056 N 
ATOM     22  O   UNL     1      -4.534  -8.733   0.020  0.00  0.00    -0.126 OA
ATOM     23  O   UNL     1      -2.458  -9.004   0.015  0.00  0.00    -0.126 OA
ENDBRANCH  18  21
ENDBRANCH   3  15
TORSDOF 4
