REMARK  Name = ZINC35648730
REMARK  5 active torsions:
REMARK  status: ('A' for Active; 'I' for Inactive)
REMARK    1  A    between atoms: C_1  and  C_2
REMARK    2  A    between atoms: C_3  and  C_11
REMARK    3  A    between atoms: C_7  and  N_8
REMARK    4  A    between atoms: C_11  and  N_12
REMARK    5  A    between atoms: N_12  and  C_13
REMARK                            x       y       z     vdW  Elec       q    Type
REMARK                         _______ _______ _______ _____ _____    ______ ____
ROOT
ATOM      1  C   UNL     1      -0.538   1.447   0.089  0.00  0.00    +0.046 C 
ATOM      2  C   UNL     1      -0.247  -0.031   0.040  0.00  0.00    -0.016 A 
ATOM      3  C   UNL     1      -0.347  -0.716  -1.157  0.00  0.00    -0.025 A 
ATOM      4  C   UNL     1      -0.080  -2.071  -1.202  0.00  0.00    +0.005 A 
ATOM      5  C   UNL     1       0.289  -2.742  -0.051  0.00  0.00    +0.003 A 
ATOM      6  C   UNL     1       0.391  -2.057   1.145  0.00  0.00    +0.033 A 
ATOM      7  C   UNL     1       0.127  -0.700   1.190  0.00  0.00    +0.129 A 
ENDROOT
BRANCH   7   8
ATOM      8  N   UNL     1       0.241   0.035   2.470  0.00  0.00    +0.057 N 
ATOM      9  O   UNL     1       0.674   1.163   2.482  0.00  0.00    -0.126 OA
ATOM     10  O   UNL     1      -0.099  -0.494   3.502  0.00  0.00    -0.126 OA
ENDBRANCH   7   8
BRANCH   3  11
ATOM     11  C   UNL     1      -0.750   0.015  -2.412  0.00  0.00    +0.137 C 
BRANCH  11  12
ATOM     12  N   UNL     1       0.411   0.723  -2.958  0.00  0.00    -0.339 N 
ATOM     13  H   UNL     1       1.268   0.669  -2.507  0.00  0.00    +0.146 HD
BRANCH  12  14
ATOM     14  C   UNL     1       0.283   1.477  -4.128  0.00  0.00    +0.042 A 
ATOM     15  C   UNL     1      -0.945   1.560  -4.771  0.00  0.00    +0.024 A 
ATOM     16  C   UNL     1      -1.068   2.306  -5.927  0.00  0.00    +0.002 A 
ATOM     17  C   UNL     1       0.029   2.970  -6.444  0.00  0.00    +0.001 A 
ATOM     18  C   UNL     1       1.253   2.890  -5.806  0.00  0.00    +0.017 A 
ATOM     19  C   UNL     1       1.383   2.150  -4.646  0.00  0.00    +0.039 A 
ATOM     20 BR   UNL     1       3.055   2.046  -3.771  0.00  0.00    -0.048 Br
ENDBRANCH  12  14
ENDBRANCH  11  12
ENDBRANCH   3  11
TORSDOF 4
