REMARK  Name = ZINC35543785
REMARK  6 active torsions:
REMARK  status: ('A' for Active; 'I' for Inactive)
REMARK    1  A    between atoms: C_1  and  C_2
REMARK    2  A    between atoms: C_2  and  C_4
REMARK    3  A    between atoms: C_2  and  N_10
REMARK    4  A    between atoms: C_11  and  C_13
REMARK    5  A    between atoms: C_18  and  N_36
REMARK    6  A    between atoms: N_26  and  C_29
REMARK                            x       y       z     vdW  Elec       q    Type
REMARK                         _______ _______ _______ _____ _____    ______ ____
ROOT
ATOM      1  C   UNL     1       0.782  -1.157   3.560  0.00  0.00    +0.101 C 
ATOM      2  C   UNL     1       1.927  -0.198   3.883  0.00  0.00    +0.051 C 
ATOM      3  C   UNL     1       2.592  -0.650   5.158  0.00  0.00    -0.023 A 
ATOM      4  C   UNL     1       3.934  -0.385   5.359  0.00  0.00    +0.038 A 
ATOM      5  C   UNL     1       4.555  -0.805   6.520  0.00  0.00    +0.127 A 
ATOM      6  C   UNL     1       3.837  -1.492   7.482  0.00  0.00    +0.034 A 
ATOM      7  C   UNL     1       2.495  -1.754   7.287  0.00  0.00    +0.025 A 
ATOM      8  C   UNL     1       1.866  -1.327   6.120  0.00  0.00    +0.033 A 
ATOM      9  N   UNL     1       0.494  -1.588   5.963  0.00  0.00    -0.323 N 
ATOM     10  C   UNL     1      -0.194  -1.218   4.739  0.00  0.00    +0.103 C 
ATOM     11  C   UNL     1      -1.326  -2.164   4.374  0.00  0.00    +0.128 C 
ATOM     12  N   UNL     1      -1.988  -2.730   5.533  0.00  0.00    -0.327 N 
ATOM     13  C   UNL     1      -1.260  -3.176   6.709  0.00  0.00    +0.124 C 
ATOM     14  C   UNL     1      -0.191  -2.186   7.108  0.00  0.00    +0.124 C 
ENDROOT
BRANCH  12  15
ATOM     15  C   UNL     1      -3.379  -2.850   5.519  0.00  0.00    +0.031 A 
ATOM     16  C   UNL     1      -4.112  -2.331   4.459  0.00  0.00    +0.023 A 
ATOM     17  C   UNL     1      -5.488  -2.452   4.447  0.00  0.00    +0.003 A 
ATOM     18  C   UNL     1      -6.137  -3.089   5.489  0.00  0.00    +0.020 A 
ATOM     19  C   UNL     1      -5.410  -3.607   6.546  0.00  0.00    +0.043 A 
ATOM     20  C   UNL     1      -4.033  -3.495   6.561  0.00  0.00    +0.043 A 
ATOM     21 CL   UNL     1      -6.229  -4.406   7.852  0.00  0.00    -0.083 Cl
ENDBRANCH  12  15
BRANCH   1  23
ATOM     22  N   UNL     1       0.715  -0.542   1.165  0.00  0.00    -0.308 N 
ATOM     23  C   UNL     1       0.055  -0.672   2.333  0.00  0.00    +0.219 C 
ATOM     24  O   UNL     1      -1.125  -0.399   2.395  0.00  0.00    -0.275 OA
ATOM     25  H   UNL     1       1.659  -0.760   1.115  0.00  0.00    +0.149 HD
BRANCH  22  27
ATOM     26  C   UNL     1      -0.012   1.459  -0.038  0.00  0.00    +0.033 C 
ATOM     27  C   UNL     1       0.008  -0.071  -0.028  0.00  0.00    +0.100 C 
BRANCH  27  28
ATOM     28  C   UNL     1       0.715  -0.572  -1.262  0.00  0.00    -0.027 A 
ATOM     29  C   UNL     1       2.096  -0.593  -1.306  0.00  0.00    +0.005 A 
ATOM     30  C   UNL     1       2.744  -1.053  -2.437  0.00  0.00    +0.000 A 
ATOM     31  C   UNL     1       2.011  -1.491  -3.524  0.00  0.00    +0.000 A 
ATOM     32  C   UNL     1       0.630  -1.471  -3.479  0.00  0.00    +0.000 A 
ATOM     33  C   UNL     1      -0.018  -1.015  -2.346  0.00  0.00    +0.005 A 
ENDBRANCH  27  28
ENDBRANCH  22  27
ENDBRANCH   1  23
BRANCH   5  34
ATOM     34  N   UNL     1       5.992  -0.520   6.734  0.00  0.00    +0.056 N 
ATOM     35  O   UNL     1       6.621   0.080   5.894  0.00  0.00    -0.126 OA
ATOM     36  O   UNL     1       6.536  -0.887   7.749  0.00  0.00    -0.126 OA
ENDBRANCH   5  34
TORSDOF 5
