REMARK  Name = ZINC65861626
REMARK  7 active torsions:
REMARK  status: ('A' for Active; 'I' for Inactive)
REMARK    1  A    between atoms: C_1  and  C_2
REMARK    2  A    between atoms: C_2  and  C_3
REMARK    3  A    between atoms: C_2  and  C_4
REMARK    4  A    between atoms: C_2  and  C_5
REMARK    5  A    between atoms: C_8  and  N_11
REMARK    6  A    between atoms: N_11  and  C_12
REMARK    7  A    between atoms: C_13  and  C_15
REMARK                            x       y       z     vdW  Elec       q    Type
REMARK                         _______ _______ _______ _____ _____    ______ ____
ROOT
ATOM      1  N   UNL     1       2.685  -1.559  -4.883  0.00  0.00    -0.274 N 
ATOM      2  C   UNL     1       1.876  -2.204  -5.920  0.00  0.00    +0.138 C 
ATOM      3  C   UNL     1       4.023  -1.482  -5.023  0.00  0.00    +0.224 C 
ATOM      4  O   UNL     1       4.700  -1.020  -4.129  0.00  0.00    -0.275 OA
ENDROOT
BRANCH   3   5
ATOM      5  C   UNL     1       4.678  -1.968  -6.290  0.00  0.00    +0.093 C 
ATOM      6  C   UNL     1       6.075  -1.350  -6.417  0.00  0.00    +0.023 C 
ATOM      7  C   UNL     1       6.642  -1.713  -7.792  0.00  0.00    +0.096 C 
ATOM      8  C   UNL     1       6.481  -3.186  -8.038  0.00  0.00    +0.213 C 
ATOM      9  O   UNL     1       7.149  -3.698  -8.912  0.00  0.00    -0.276 OA
ATOM     10  N   UNL     1       5.644  -3.961  -7.348  0.00  0.00    -0.315 N 
ATOM     11  C   UNL     1       4.818  -3.490  -6.243  0.00  0.00    +0.117 C 
ATOM     12  H   UNL     1       5.580  -4.896  -7.597  0.00  0.00    +0.149 HD
ENDBRANCH   3   5
BRANCH   1  16
ATOM     13  C   UNL     1       0.848   0.035  -1.501  0.00  0.00    -0.042 A 
ATOM     14  C   UNL     1       0.076  -0.445  -2.543  0.00  0.00    +0.006 A 
ATOM     15  C   UNL     1       0.682  -0.974  -3.666  0.00  0.00    +0.024 A 
ATOM     16  C   UNL     1       2.068  -1.023  -3.747  0.00  0.00    +0.036 A 
ATOM     17  C   UNL     1       2.840  -0.540  -2.699  0.00  0.00    +0.024 A 
ATOM     18  C   UNL     1       2.228  -0.007  -1.581  0.00  0.00    +0.006 A 
BRANCH  13  20
ATOM     19  C   UNL     1       0.610   2.071  -0.105  0.00  0.00    +0.015 C 
ATOM     20  C   UNL     1       0.183   0.612  -0.277  0.00  0.00    -0.013 C 
ATOM     21  C   UNL     1       0.602  -0.190   0.956  0.00  0.00    +0.015 C 
ATOM     22  C   UNL     1      -1.337   0.540  -0.441  0.00  0.00    +0.015 C 
ENDBRANCH  13  20
ENDBRANCH   1  16
TORSDOF 3
