REMARK  Name = ZINC35190806
REMARK  8 active torsions:
REMARK  status: ('A' for Active; 'I' for Inactive)
REMARK    1  A    between atoms: C_4  and  N_12
REMARK    2  A    between atoms: N_12  and  C_13
REMARK    3  A    between atoms: C_13  and  C_14
REMARK    4  A    between atoms: C_14  and  C_15
REMARK    5  A    between atoms: C_15  and  C_16
REMARK    6  A    between atoms: C_16  and  N_17
REMARK    7  A    between atoms: N_17  and  S_18
REMARK    8  A    between atoms: S_18  and  C_21
REMARK                            x       y       z     vdW  Elec       q    Type
REMARK                         _______ _______ _______ _____ _____    ______ ____
ROOT
ATOM      1  C   UNL     1       4.663   5.735  -0.011  0.00  0.00    +0.020 C 
ENDROOT
BRANCH   1   2
ATOM      2  C   UNL     1       4.912   4.226  -0.021  0.00  0.00    +0.101 C 
BRANCH   2   3
ATOM      3  N   UNL     1       3.628   3.519  -0.013  0.00  0.00    -0.343 N 
ATOM      4  H   UNL     1       2.798   4.022  -0.003  0.00  0.00    +0.146 HD
BRANCH   3   8
ATOM      5  C   UNL     1      -0.017   1.389   0.010  0.00  0.00    +0.021 A 
ATOM      6  C   UNL     1       1.144   2.103   0.002  0.00  0.00    +0.013 A 
ATOM      7  C   UNL     1       2.372   1.428  -0.013  0.00  0.00    +0.019 A 
ATOM      8  C   UNL     1       3.600   2.133  -0.020  0.00  0.00    +0.038 A 
ATOM      9  C   UNL     1       4.772   1.394  -0.035  0.00  0.00    +0.041 A 
ATOM     10  C   UNL     1       4.711   0.007  -0.042  0.00  0.00    +0.085 A 
ATOM     11  N   UNL     1       3.566  -0.636  -0.036  0.00  0.00    -0.361 N 
ATOM     12  C   UNL     1       2.396   0.013  -0.021  0.00  0.00    +0.050 A 
ATOM     13  C   UNL     1       1.180  -0.690  -0.013  0.00  0.00    +0.046 A 
ATOM     14  C   UNL     1       0.002  -0.004   0.002  0.00  0.00    +0.043 A 
ATOM     15 CL   UNL     1      -1.497  -0.879   0.012  0.00  0.00    -0.083 Cl
ATOM     16  H   UNL     1       3.569  -1.606  -0.041  0.00  0.00    +0.165 HD
ENDBRANCH   3   8
ENDBRANCH   2   3
ENDBRANCH   1   2
BRANCH   1  17
ATOM     17  C   UNL     1       6.004   6.473  -0.019  0.00  0.00    +0.018 C 
BRANCH  17  18
ATOM     18  C   UNL     1       5.755   7.983  -0.009  0.00  0.00    +0.106 C 
BRANCH  18  19
ATOM     19  N   UNL     1       7.039   8.689  -0.017  0.00  0.00    -0.190 NA
ATOM     20  H   UNL     1       7.857   8.211   0.191  0.00  0.00    +0.148 HD
BRANCH  19  21
ATOM     21  S   UNL     1       7.093  10.304  -0.380  0.00  0.00    +0.060 S 
ATOM     22  O   UNL     1       8.455  10.697  -0.279  0.00  0.00    -0.153 OA
ATOM     23  O   UNL     1       6.336  10.478  -1.570  0.00  0.00    -0.153 OA
BRANCH  21  24
ATOM     24  C   UNL     1       6.227  11.154   0.896  0.00  0.00    +0.125 A 
ATOM     25  C   UNL     1       6.903  12.028   1.726  0.00  0.00    +0.050 A 
ATOM     26  C   UNL     1       6.223  12.696   2.729  0.00  0.00    +0.043 A 
ATOM     27  C   UNL     1       4.866  12.489   2.901  0.00  0.00    +0.021 A 
ATOM     28  C   UNL     1       4.190  11.615   2.071  0.00  0.00    +0.023 A 
ATOM     29  C   UNL     1       4.869  10.952   1.065  0.00  0.00    +0.067 A 
ATOM     30 CL   UNL     1       4.018   9.859   0.018  0.00  0.00    -0.082 Cl
ATOM     31 CL   UNL     1       7.073  13.794   3.772  0.00  0.00    -0.083 Cl
ENDBRANCH  21  24
ENDBRANCH  19  21
ENDBRANCH  18  19
ENDBRANCH  17  18
ENDBRANCH   1  17
TORSDOF 8
