REMARK  Name = ZINC05245073
REMARK  4 active torsions:
REMARK  status: ('A' for Active; 'I' for Inactive)
REMARK    1  A    between atoms: C_1  and  C_2
REMARK    2  A    between atoms: C_2  and  C_18
REMARK    3  A    between atoms: N_3  and  N_4
REMARK    4  A    between atoms: C_21  and  O_24
REMARK                            x       y       z     vdW  Elec       q    Type
REMARK                         _______ _______ _______ _____ _____    ______ ____
ROOT
ATOM      1  N   UNL     1       0.024   0.035   2.340  0.00  0.00    -0.220 N 
ATOM      2  C   UNL     1       0.044  -0.663   3.533  0.00  0.00    +0.150 A 
ATOM      3  C   UNL     1       0.148   0.030   4.772  0.00  0.00    +0.052 A 
ATOM      4  C   UNL     1       0.246   1.470   5.011  0.00  0.00    -0.025 A 
ATOM      5  C   UNL     1       0.332   1.873   6.296  0.00  0.00    -0.004 A 
ATOM      6  S   UNL     1       0.289   0.381   7.252  0.00  0.00    -0.073 S 
ATOM      7  C   UNL     1       0.157  -0.785   5.922  0.00  0.00    +0.114 A 
ATOM      8  N   UNL     1       0.077  -2.099   5.837  0.00  0.00    -0.228 NA
ATOM      9  C   UNL     1      -0.016  -2.685   4.659  0.00  0.00    +0.224 A 
ATOM     10  N   UNL     1      -0.037  -1.984   3.540  0.00  0.00    -0.219 NA
ATOM     11  C   UNL     1       0.442   3.280   6.801  0.00  0.00    +0.043 C 
ATOM     12  C   UNL     1       0.817   4.189   5.622  0.00  0.00    +0.005 C 
ATOM     13  C   UNL     1      -0.100   3.864   4.440  0.00  0.00    +0.005 C 
ATOM     14  C   UNL     1       0.251   2.488   3.873  0.00  0.00    +0.037 C 
ATOM     15  H   UNL     1       0.313   0.960   2.314  0.00  0.00    +0.176 HD
ENDROOT
BRANCH   1  18
ATOM     16  C   UNL     1       0.015   1.498   0.007  0.00  0.00    +0.068 C 
ATOM     17  C   UNL     1      -0.434   0.060   0.047  0.00  0.00    +0.063 C 
ATOM     18  N   UNL     1      -0.415  -0.595   1.168  0.00  0.00    -0.186 NA
BRANCH  17  19
ATOM     19  C   UNL     1      -0.896  -0.603  -1.186  0.00  0.00    -0.002 A 
ATOM     20  C   UNL     1      -0.912   0.099  -2.395  0.00  0.00    +0.013 A 
ATOM     21  C   UNL     1      -1.344  -0.525  -3.545  0.00  0.00    +0.046 A 
ATOM     22  C   UNL     1      -1.762  -1.849  -3.505  0.00  0.00    +0.117 A 
ATOM     23  C   UNL     1      -1.748  -2.550  -2.306  0.00  0.00    +0.046 A 
ATOM     24  C   UNL     1      -1.313  -1.936  -1.151  0.00  0.00    +0.013 A 
BRANCH  22  25
ATOM     25  O   UNL     1      -2.187  -2.460  -4.642  0.00  0.00    -0.507 OA
ATOM     26  H   UNL     1      -1.484  -2.903  -5.136  0.00  0.00    +0.292 HD
ENDBRANCH  22  25
ENDBRANCH  17  19
ENDBRANCH   1  18
TORSDOF 3
