REMARK  Name = ZINC64143471
REMARK  7 active torsions:
REMARK  status: ('A' for Active; 'I' for Inactive)
REMARK    1  A    between atoms: C_4  and  C_7
REMARK    2  A    between atoms: C_7  and  C_9
REMARK    3  A    between atoms: C_7  and  C_14
REMARK    4  A    between atoms: C_23  and  C_25
REMARK    5  A    between atoms: N_27  and  C_28
REMARK    6  A    between atoms: C_28  and  C_29
REMARK    7  A    between atoms: C_29  and  C_30
REMARK                            x       y       z     vdW  Elec       q    Type
REMARK                         _______ _______ _______ _____ _____    ______ ____
ROOT
ATOM      1  C   UNL     1       3.897  -1.483   0.411  0.00  0.00    +0.223 C 
ATOM      2  O   UNL     1       2.827  -1.594   0.970  0.00  0.00    -0.275 OA
ATOM      3  N   UNL     1       4.987  -2.095   0.914  0.00  0.00    -0.301 N 
ATOM      4  C   UNL     1       6.309  -1.867   0.317  0.00  0.00    +0.108 C 
ATOM      5  C   UNL     1       6.901  -3.216  -0.106  0.00  0.00    +0.026 C 
ATOM      6  C   UNL     1       6.827  -4.181   1.081  0.00  0.00    -0.015 C 
ATOM      7  C   UNL     1       5.429  -4.372   1.677  0.00  0.00    +0.026 C 
ATOM      8  C   UNL     1       4.867  -2.994   2.069  0.00  0.00    +0.108 C 
ATOM      9  C   UNL     1       8.018  -4.220   2.039  0.00  0.00    +0.021 C 
ATOM     10  C   UNL     1       7.769  -5.385   1.079  0.00  0.00    +0.082 C 
ENDROOT
BRANCH  10  11
ATOM     11  C   UNL     1       8.705  -5.533  -0.093  0.00  0.00    +0.217 C 
ATOM     12  O   UNL     1       9.774  -4.959  -0.091  0.00  0.00    -0.275 OA
ATOM     13  N   UNL     1       8.355  -6.304  -1.142  0.00  0.00    -0.315 N 
ATOM     14  H   UNL     1       7.501  -6.763  -1.143  0.00  0.00    +0.149 HD
BRANCH  13  15
ATOM     15  C   UNL     1       9.266  -6.448  -2.280  0.00  0.00    +0.108 C 
BRANCH  15  16
ATOM     16  C   UNL     1       8.633  -7.368  -3.326  0.00  0.00    +0.052 C 
BRANCH  16  17
ATOM     17  C   UNL     1       9.569  -7.517  -4.497  0.00  0.00    -0.040 C 
ATOM     18  C   UNL     1      10.466  -8.509  -4.701  0.00  0.00    -0.001 A 
ATOM     19  C   UNL     1      10.825  -9.700  -3.922  0.00  0.00    +0.010 A 
ATOM     20  C   UNL     1      11.785 -10.527  -4.394  0.00  0.00    +0.001 A 
ATOM     21  C   UNL     1      12.445 -10.275  -5.604  0.00  0.00    +0.002 A 
ATOM     22  C   UNL     1      12.171  -9.202  -6.375  0.00  0.00    +0.026 A 
ATOM     23  C   UNL     1      11.178  -8.266  -5.976  0.00  0.00    +0.043 A 
ATOM     24  N   UNL     1      10.738  -7.166  -6.539  0.00  0.00    -0.380 N 
ATOM     25  C   UNL     1       9.692  -6.590  -5.686  0.00  0.00    +0.144 C 
ATOM     26  H   UNL     1      11.049  -6.798  -7.380  0.00  0.00    +0.160 HD
ENDBRANCH  16  17
ENDBRANCH  15  16
ENDBRANCH  13  15
ENDBRANCH  10  11
BRANCH   1  27
ATOM     27  C   UNL     1       4.008  -0.659  -0.846  0.00  0.00    +0.108 C 
BRANCH  27  31
ATOM     28  C   UNL     1       5.253   3.304   0.150  0.00  0.00    +0.000 A 
ATOM     29  C   UNL     1       6.029   2.526  -0.689  0.00  0.00    +0.000 A 
ATOM     30  C   UNL     1       5.626   1.244  -1.012  0.00  0.00    +0.004 A 
ATOM     31  C   UNL     1       4.448   0.738  -0.494  0.00  0.00    -0.035 A 
ATOM     32  C   UNL     1       3.673   1.516   0.346  0.00  0.00    +0.004 A 
ATOM     33  C   UNL     1       4.074   2.799   0.667  0.00  0.00    +0.000 A 
ENDBRANCH  27  31
BRANCH  27  34
ATOM     34  C   UNL     1       2.647  -0.606  -1.543  0.00  0.00    +0.005 C 
ATOM     35  C   UNL     1       2.269  -2.005  -2.072  0.00  0.00    +0.004 C 
ATOM     36  C   UNL     1       1.558  -1.722  -3.419  0.00  0.00    +0.000 C 
ATOM     37  C   UNL     1       2.381  -0.544  -3.998  0.00  0.00    +0.000 C 
ATOM     38  C   UNL     1       2.718   0.323  -2.768  0.00  0.00    +0.004 C 
ENDBRANCH  27  34
ENDBRANCH   1  27
TORSDOF 7
