REMARK  Name = ZINC20734040
REMARK  5 active torsions:
REMARK  status: ('A' for Active; 'I' for Inactive)
REMARK    1  A    between atoms: C_1  and  O_2
REMARK    2  A    between atoms: O_2  and  C_3
REMARK    3  A    between atoms: C_3  and  C_5
REMARK    4  A    between atoms: C_5  and  N_6
REMARK    5  A    between atoms: C_18  and  C_20
REMARK                            x       y       z     vdW  Elec       q    Type
REMARK                         _______ _______ _______ _____ _____    ______ ____
ROOT
ATOM      1  N   UNL     1       1.166  -4.497   1.794  0.00  0.00    -0.289 N 
ATOM      2  C   UNL     1       1.638  -3.674   2.751  0.00  0.00    +0.303 C 
ATOM      3  O   UNL     1       1.581  -2.469   2.599  0.00  0.00    -0.253 OA
ATOM      4  N   UNL     1       2.174  -4.186   3.876  0.00  0.00    -0.273 N 
ATOM      5  C   UNL     1       2.587  -3.308   4.981  0.00  0.00    +0.116 C 
ATOM      6  C   UNL     1       1.721  -3.608   6.211  0.00  0.00    +0.074 C 
ATOM      7  C   UNL     1       1.620  -5.102   6.381  0.00  0.00    +0.040 A 
ATOM      8  C   UNL     1       1.897  -6.008   5.419  0.00  0.00    +0.062 A 
ATOM      9  N   UNL     1       1.694  -7.226   5.925  0.00  0.00    -0.348 N 
ATOM     10  C   UNL     1       1.303  -7.113   7.168  0.00  0.00    +0.171 A 
ATOM     11  N   UNL     1       1.247  -5.800   7.489  0.00  0.00    -0.349 N 
ATOM     12  H   UNL     1       0.989  -5.427   8.347  0.00  0.00    +0.166 HD
ATOM     13  C   UNL     1       2.354  -5.641   4.032  0.00  0.00    +0.159 C 
ATOM     14  H   UNL     1       1.278  -5.457   1.881  0.00  0.00    +0.151 HD
ATOM     15  H   UNL     1       1.816  -8.062   5.448  0.00  0.00    +0.167 HD
ENDROOT
BRANCH  13  16
ATOM     16  C   UNL     1       3.809  -5.998   3.865  0.00  0.00    +0.017 A 
ATOM     17  C   UNL     1       4.582  -6.285   4.974  0.00  0.00    +0.047 A 
ATOM     18  C   UNL     1       5.918  -6.614   4.821  0.00  0.00    +0.124 A 
ATOM     19  C   UNL     1       6.480  -6.654   3.556  0.00  0.00    +0.041 A 
ATOM     20  C   UNL     1       5.708  -6.367   2.447  0.00  0.00    +0.041 A 
ATOM     21  C   UNL     1       4.370  -6.043   2.600  0.00  0.00    +0.129 A 
ATOM     22  F   UNL     1       3.613  -5.767   1.516  0.00  0.00    -0.205 F 
ATOM     23  F   UNL     1       6.673  -6.894   5.906  0.00  0.00    -0.205 F 
ENDBRANCH  13  16
BRANCH   1  24
ATOM     24  C   UNL     1       0.484  -3.943   0.621  0.00  0.00    +0.226 C 
BRANCH  24  25
ATOM     25  C   UNL     1       0.058  -5.065  -0.289  0.00  0.00    +0.324 C 
ATOM     26  O   UNL     1       0.299  -6.211   0.010  0.00  0.00    -0.249 OA
BRANCH  25  28
ATOM     27  C   UNL     1      -0.964  -5.905  -2.248  0.00  0.00    +0.280 C 
ATOM     28  O   UNL     1      -0.590  -4.792  -1.433  0.00  0.00    -0.467 OA
ENDBRANCH  25  28
ENDBRANCH  24  25
ENDBRANCH   1  24
TORSDOF 4
