REMARK  Name = ZINC63384058
REMARK  12 active torsions:
REMARK  status: ('A' for Active; 'I' for Inactive)
REMARK    1  A    between atoms: C_1  and  C_2
REMARK    2  A    between atoms: C_2  and  C_3
REMARK    3  A    between atoms: C_2  and  C_4
REMARK    4  A    between atoms: C_4  and  C_5
REMARK    5  A    between atoms: C_5  and  N_6
REMARK    6  A    between atoms: C_7  and  C_9
REMARK    7  A    between atoms: C_9  and  C_11
REMARK    8  A    between atoms: C_9  and  N_15
REMARK    9  A    between atoms: C_11  and  C_12
REMARK   10  A    between atoms: C_12  and  S_13
REMARK   11  A    between atoms: S_13  and  C_14
REMARK   12  A    between atoms: C_16  and  C_18
REMARK                            x       y       z     vdW  Elec       q    Type
REMARK                         _______ _______ _______ _____ _____    ______ ____
ROOT
ATOM      1  C   UNL     1      -5.469  -8.014  -0.977  0.00  0.00    +0.167 C 
ATOM      2  C   UNL     1      -5.122  -8.653   0.383  0.00  0.00    +0.065 C 
ATOM      3  C   UNL     1      -3.889  -9.495   0.172  0.00  0.00    -0.034 C 
ATOM      4  C   UNL     1      -2.737  -9.521   0.836  0.00  0.00    -0.001 A 
ATOM      5  C   UNL     1      -2.295  -8.821   2.053  0.00  0.00    +0.010 A 
ATOM      6  C   UNL     1      -1.021  -9.070   2.458  0.00  0.00    +0.001 A 
ATOM      7  C   UNL     1      -0.154  -9.934   1.782  0.00  0.00    +0.002 A 
ATOM      8  C   UNL     1      -0.479 -10.623   0.659  0.00  0.00    +0.026 A 
ATOM      9  C   UNL     1      -1.795 -10.450   0.141  0.00  0.00    +0.043 A 
ATOM     10  N   UNL     1      -2.372 -10.993  -0.889  0.00  0.00    -0.375 N 
ATOM     11  C   UNL     1      -3.757 -10.523  -0.944  0.00  0.00    +0.131 C 
ATOM     12  C   UNL     1      -4.069  -9.810  -2.258  0.00  0.00    +0.134 C 
ATOM     13  N   UNL     1      -4.441  -8.415  -1.945  0.00  0.00    -0.276 N 
ATOM     14  C   UNL     1      -3.669  -7.591  -2.679  0.00  0.00    +0.248 C 
ATOM     15  O   UNL     1      -3.802  -6.385  -2.743  0.00  0.00    -0.270 OA
ATOM     16  C   UNL     1      -2.646  -8.362  -3.389  0.00  0.00    +0.042 A 
ATOM     17  C   UNL     1      -2.870  -9.742  -3.145  0.00  0.00    -0.013 A 
ATOM     18  C   UNL     1      -2.065 -10.723  -3.680  0.00  0.00    +0.006 A 
ATOM     19  C   UNL     1      -1.012 -10.305  -4.488  0.00  0.00    +0.000 A 
ATOM     20  C   UNL     1      -0.779  -8.969  -4.747  0.00  0.00    +0.001 A 
ATOM     21  C   UNL     1      -1.589  -7.945  -4.203  0.00  0.00    +0.013 A 
ATOM     22  H   UNL     1      -1.955 -11.606  -1.516  0.00  0.00    +0.160 HD
ENDROOT
BRANCH   1  24
ATOM     23  N   UNL     1      -4.346  -5.847  -0.575  0.00  0.00    -0.302 N 
ATOM     24  C   UNL     1      -5.487  -6.513  -0.845  0.00  0.00    +0.235 C 
ATOM     25  O   UNL     1      -6.527  -5.905  -0.981  0.00  0.00    -0.274 OA
ATOM     26  H   UNL     1      -3.514  -6.334  -0.466  0.00  0.00    +0.150 HD
BRANCH  23  27
ATOM     27  C   UNL     1      -4.363  -4.388  -0.447  0.00  0.00    +0.160 C 
BRANCH  27  29
ATOM     28  N   UNL     1      -2.771  -2.512  -0.705  0.00  0.00    -0.314 N 
ATOM     29  C   UNL     1      -2.994  -3.840  -0.759  0.00  0.00    +0.233 C 
ATOM     30  O   UNL     1      -2.093  -4.595  -1.059  0.00  0.00    -0.274 OA
ATOM     31  H   UNL     1      -3.492  -1.909  -0.464  0.00  0.00    +0.149 HD
BRANCH  28  32
ATOM     32  C   UNL     1      -1.441  -1.980  -1.008  0.00  0.00    +0.104 C 
BRANCH  32  33
ATOM     33  C   UNL     1      -1.458  -0.456  -0.874  0.00  0.00    +0.022 C 
BRANCH  33  35
ATOM     34  C   UNL     1      -0.116   1.629  -1.179  0.00  0.00    +0.007 C 
ATOM     35  C   UNL     1      -0.069   0.100  -1.191  0.00  0.00    -0.016 C 
ATOM     36  C   UNL     1       0.928  -0.387  -0.137  0.00  0.00    +0.007 C 
ENDBRANCH  33  35
ENDBRANCH  32  33
ENDBRANCH  28  32
ENDBRANCH  27  29
BRANCH  27  37
ATOM     37  C   UNL     1      -4.751  -4.006   0.983  0.00  0.00    +0.042 C 
BRANCH  37  38
ATOM     38  C   UNL     1      -6.188  -4.454   1.258  0.00  0.00    +0.071 C 
BRANCH  38  39
ATOM     39  S   UNL     1      -6.648  -4.001   2.954  0.00  0.00    -0.164 S 
ATOM     40  C   UNL     1      -8.355  -4.592   3.118  0.00  0.00    +0.084 C 
ENDBRANCH  38  39
ENDBRANCH  37  38
ENDBRANCH  27  37
ENDBRANCH  23  27
ENDBRANCH   1  24
TORSDOF 9
