REMARK  Name = ZINC09432349
REMARK  6 active torsions:
REMARK  status: ('A' for Active; 'I' for Inactive)
REMARK    1  A    between atoms: C_1  and  C_2
REMARK    2  A    between atoms: C_2  and  C_4
REMARK    3  A    between atoms: C_2  and  N_10
REMARK    4  A    between atoms: C_11  and  C_13
REMARK    5  A    between atoms: N_16  and  S_19
REMARK    6  A    between atoms: S_19  and  C_22
REMARK                            x       y       z     vdW  Elec       q    Type
REMARK                         _______ _______ _______ _____ _____    ______ ____
ROOT
ATOM      1  C   UNL     1      -3.465  -1.164  -1.134  0.00  0.00    +0.077 C 
ATOM      2  C   UNL     1      -4.344  -0.237  -0.291  0.00  0.00    +0.030 C 
ATOM      3  C   UNL     1      -5.772  -0.789  -0.254  0.00  0.00    +0.110 C 
ATOM      4  N   UNL     1      -6.242  -0.978  -1.633  0.00  0.00    -0.177 NA
ATOM      5  C   UNL     1      -5.425  -1.778  -2.555  0.00  0.00    +0.110 C 
ATOM      6  C   UNL     1      -4.000  -1.215  -2.567  0.00  0.00    +0.030 C 
ENDROOT
BRANCH   1   8
ATOM      7  N   UNL     1      -1.372  -0.511   0.012  0.00  0.00    -0.309 N 
ATOM      8  C   UNL     1      -2.051  -0.643  -1.145  0.00  0.00    +0.217 C 
ATOM      9  O   UNL     1      -1.524  -0.341  -2.194  0.00  0.00    -0.275 OA
ATOM     10  H   UNL     1      -1.794  -0.752   0.852  0.00  0.00    +0.149 HD
BRANCH   7  12
ATOM     11  C   UNL     1      -0.019   1.526   0.010  0.00  0.00    +0.033 C 
ATOM     12  C   UNL     1       0.002  -0.004   0.002  0.00  0.00    +0.100 C 
BRANCH  12  13
ATOM     13  C   UNL     1       0.731  -0.503   1.223  0.00  0.00    -0.027 A 
ATOM     14  C   UNL     1       0.081  -0.558   2.442  0.00  0.00    +0.005 A 
ATOM     15  C   UNL     1       0.749  -1.016   3.562  0.00  0.00    +0.000 A 
ATOM     16  C   UNL     1       2.068  -1.420   3.463  0.00  0.00    +0.000 A 
ATOM     17  C   UNL     1       2.718  -1.365   2.244  0.00  0.00    +0.000 A 
ATOM     18  C   UNL     1       2.048  -0.911   1.123  0.00  0.00    +0.005 A 
ENDBRANCH  12  13
ENDBRANCH   7  12
ENDBRANCH   1   8
BRANCH   4  19
ATOM     19  S   UNL     1      -7.667  -0.301  -2.139  0.00  0.00    +0.061 S 
ATOM     20  O   UNL     1      -8.116  -1.077  -3.242  0.00  0.00    -0.153 OA
ATOM     21  O   UNL     1      -8.458  -0.103  -0.976  0.00  0.00    -0.153 OA
BRANCH  19  22
ATOM     22  C   UNL     1      -7.288   1.300  -2.770  0.00  0.00    +0.107 A 
ATOM     23  C   UNL     1      -7.300   2.394  -1.925  0.00  0.00    +0.032 A 
ATOM     24  C   UNL     1      -7.003   3.654  -2.412  0.00  0.00    +0.049 A 
ATOM     25  C   UNL     1      -6.694   3.821  -3.750  0.00  0.00    +0.142 A 
ATOM     26  C   UNL     1      -6.683   2.718  -4.603  0.00  0.00    +0.078 A 
ATOM     27  C   UNL     1      -6.976   1.457  -4.108  0.00  0.00    +0.055 A 
ATOM     28  N   UNL     1      -6.371   2.901  -5.957  0.00  0.00    -0.280 N 
ATOM     29  C   UNL     1      -5.788   4.056  -6.344  0.00  0.00    +0.255 C 
ATOM     30  O   UNL     1      -5.537   4.250  -7.515  0.00  0.00    -0.272 OA
ATOM     31  C   UNL     1      -5.451   5.105  -5.315  0.00  0.00    +0.325 C 
ATOM     32  O   UNL     1      -6.399   5.052  -4.246  0.00  0.00    -0.481 OA
ATOM     33  H   UNL     1      -6.570   2.208  -6.606  0.00  0.00    +0.155 HD
ENDBRANCH  19  22
ENDBRANCH   4  19
TORSDOF 5
