REMARK  Name = ZINC27384933
REMARK  7 active torsions:
REMARK  status: ('A' for Active; 'I' for Inactive)
REMARK    1  A    between atoms: C_1  and  C_2
REMARK    2  A    between atoms: C_2  and  C_4
REMARK    3  A    between atoms: C_2  and  N_14
REMARK    4  A    between atoms: C_7  and  S_10
REMARK    5  A    between atoms: S_10  and  N_13
REMARK    6  A    between atoms: N_14  and  C_15
REMARK    7  A    between atoms: C_16  and  C_18
REMARK                            x       y       z     vdW  Elec       q    Type
REMARK                         _______ _______ _______ _____ _____    ______ ____
ROOT
ATOM      1  N   UNL     1      -1.172   2.053   0.035  0.00  0.00    -0.291 N 
ATOM      2  C   UNL     1      -2.407   1.285   0.207  0.00  0.00    +0.133 C 
ATOM      3  C   UNL     1       0.015   1.417  -0.024  0.00  0.00    +0.282 C 
ATOM      4  O   UNL     1       1.046   2.057  -0.070  0.00  0.00    -0.267 OA
ENDROOT
BRANCH   3   5
ATOM      5  C   UNL     1       0.061  -0.065  -0.037  0.00  0.00    +0.194 A 
ATOM      6  C   UNL     1       1.258  -0.676  -0.208  0.00  0.00    +0.103 A 
ATOM      7  C   UNL     1       1.306  -2.147  -0.222  0.00  0.00    +0.193 A 
ATOM      8  O   UNL     1       2.353  -2.750  -0.371  0.00  0.00    -0.287 OA
ATOM      9  C   UNL     1       0.024  -2.856  -0.046  0.00  0.00    +0.064 A 
ATOM     10  C   UNL     1      -0.041  -4.249  -0.044  0.00  0.00    +0.015 A 
ATOM     11  C   UNL     1      -1.247  -4.870   0.121  0.00  0.00    +0.001 A 
ATOM     12  C   UNL     1      -2.405  -4.123   0.288  0.00  0.00    +0.004 A 
ATOM     13  C   UNL     1      -2.361  -2.746   0.288  0.00  0.00    +0.047 A 
ATOM     14  C   UNL     1      -1.144  -2.092   0.121  0.00  0.00    +0.139 A 
ATOM     15  O   UNL     1      -1.082  -0.747   0.125  0.00  0.00    -0.450 OA
ENDBRANCH   3   5
BRANCH   1  17
ATOM     16  C   UNL     1      -1.739   4.103   1.243  0.00  0.00    +0.033 C 
ATOM     17  C   UNL     1      -1.226   3.513  -0.072  0.00  0.00    +0.103 C 
BRANCH  17  18
ATOM     18  C   UNL     1      -2.156   3.900  -1.193  0.00  0.00    -0.027 A 
ATOM     19  C   UNL     1      -2.300   3.071  -2.289  0.00  0.00    +0.007 A 
ATOM     20  C   UNL     1      -3.157   3.424  -3.315  0.00  0.00    +0.029 A 
ATOM     21  C   UNL     1      -3.861   4.611  -3.249  0.00  0.00    +0.105 A 
ATOM     22  C   UNL     1      -3.713   5.443  -2.156  0.00  0.00    +0.029 A 
ATOM     23  C   UNL     1      -2.860   5.088  -1.127  0.00  0.00    +0.007 A 
BRANCH  21  24
ATOM     24  S   UNL     1      -4.948   5.064  -4.560  0.00  0.00    +0.056 S 
ATOM     25  O   UNL     1      -5.324   3.859  -5.212  0.00  0.00    -0.153 OA
ATOM     26  O   UNL     1      -5.902   5.960  -4.006  0.00  0.00    -0.153 OA
BRANCH  24  27
ATOM     27  N   UNL     1      -4.060   5.936  -5.653  0.00  0.00    -0.204 NA
ATOM     28  H   UNL     1      -4.705   6.239  -6.491  0.00  0.00    +0.144 HD
ATOM     29  H   UNL     1      -3.234   5.316  -6.032  0.00  0.00    +0.144 HD
ENDBRANCH  24  27
ENDBRANCH  21  24
ENDBRANCH  17  18
ENDBRANCH   1  17
TORSDOF 5
