REMARK  Name = ZINC02151022
REMARK  6 active torsions:
REMARK  status: ('A' for Active; 'I' for Inactive)
REMARK    1  A    between atoms: C_1  and  C_2
REMARK    2  A    between atoms: C_2  and  O_3
REMARK    3  A    between atoms: O_3  and  C_4
REMARK    4  A    between atoms: C_4  and  C_6
REMARK    5  A    between atoms: C_10  and  N_11
REMARK    6  A    between atoms: N_21  and  O_22
REMARK                            x       y       z     vdW  Elec       q    Type
REMARK                         _______ _______ _______ _____ _____    ______ ____
ROOT
ATOM      1  N   UNL     1      -0.634  -2.653  -3.845  0.00  0.00    -0.133 N 
ATOM      2  C   UNL     1      -1.166  -1.585  -4.466  0.00  0.00    +0.331 C 
ATOM      3  O   UNL     1      -0.433  -0.691  -4.841  0.00  0.00    -0.250 OA
ATOM      4  N   UNL     1      -2.490  -1.485  -4.682  0.00  0.00    -0.266 N 
ATOM      5  C   UNL     1      -3.357  -2.502  -4.260  0.00  0.00    +0.064 A 
ATOM      6  C   UNL     1      -4.721  -2.405  -4.479  0.00  0.00    +0.047 A 
ATOM      7  C   UNL     1      -5.560  -3.421  -4.055  0.00  0.00    +0.061 A 
ATOM      8  C   UNL     1      -5.042  -4.532  -3.413  0.00  0.00    +0.061 A 
ATOM      9  C   UNL     1      -3.679  -4.635  -3.190  0.00  0.00    +0.053 A 
ATOM     10  C   UNL     1      -2.835  -3.622  -3.612  0.00  0.00    +0.110 A 
ATOM     11  N   UNL     1      -1.452  -3.704  -3.406  0.00  0.00    -0.157 N 
ATOM     12 CL   UNL     1      -6.103  -5.800  -2.884  0.00  0.00    -0.082 Cl
ATOM     13 CL   UNL     1      -7.270  -3.300  -4.329  0.00  0.00    -0.082 Cl
ATOM     14  H   UNL     1      -2.847  -0.703  -5.133  0.00  0.00    +0.157 HD
ENDROOT
BRANCH   1  19
ATOM     15  C   UNL     1       1.456  -2.276  -2.546  0.00  0.00    +0.093 A 
ATOM     16  C   UNL     1       2.901  -2.467  -2.573  0.00  0.00    -0.021 A 
ATOM     17  C   UNL     1       3.353  -3.056  -3.699  0.00  0.00    -0.004 A 
ATOM     18  S   UNL     1       1.902  -3.349  -4.671  0.00  0.00    -0.075 S 
ATOM     19  C   UNL     1       0.735  -2.719  -3.643  0.00  0.00    +0.114 A 
ATOM     20  C   UNL     1       4.771  -3.378  -4.056  0.00  0.00    +0.043 C 
ATOM     21  C   UNL     1       5.436  -4.098  -2.876  0.00  0.00    +0.005 C 
ATOM     22  C   UNL     1       6.057  -3.052  -1.955  0.00  0.00    +0.001 C 
ATOM     23  C   UNL     1       5.217  -1.776  -1.965  0.00  0.00    +0.005 C 
ATOM     24  C   UNL     1       3.816  -2.055  -1.430  0.00  0.00    +0.037 C 
BRANCH  15  25
ATOM     25  C   UNL     1       0.793  -1.647  -1.402  0.00  0.00    +0.342 C 
ATOM     26  O   UNL     1       0.369  -2.334  -0.492  0.00  0.00    -0.245 OA
BRANCH  25  27
ATOM     27  O   UNL     1       0.653  -0.306  -1.358  0.00  0.00    -0.461 OA
BRANCH  27  29
ATOM     28  C   UNL     1      -0.070   1.763  -0.339  0.00  0.00    +0.048 C 
ATOM     29  C   UNL     1      -0.004   0.240  -0.212  0.00  0.00    +0.229 C 
ENDBRANCH  27  29
ENDBRANCH  25  27
ENDBRANCH  15  25
ENDBRANCH   1  19
BRANCH  11  30
ATOM     30  O   UNL     1      -0.889  -4.830  -2.758  0.00  0.00    -0.268 OA
ATOM     31  H   UNL     1      -1.537  -5.498  -2.495  0.00  0.00    +0.246 HD
ENDBRANCH  11  30
TORSDOF 5
