REMARK  Name = ZINC04313808
REMARK  5 active torsions:
REMARK  status: ('A' for Active; 'I' for Inactive)
REMARK    1  A    between atoms: C_7  and  N_15
REMARK    2  A    between atoms: N_15  and  N_16
REMARK    3  A    between atoms: C_17  and  C_19
REMARK    4  A    between atoms: C_22  and  O_26
REMARK    5  A    between atoms: C_24  and  O_25
REMARK                            x       y       z     vdW  Elec       q    Type
REMARK                         _______ _______ _______ _____ _____    ______ ____
ROOT
ATOM      1  N   UNL     1       0.128  -2.845  -0.014  0.00  0.00    -0.263 N 
ATOM      2  H   UNL     1       0.128  -3.727   0.390  0.00  0.00    +0.170 HD
ENDROOT
BRANCH   1   9
ATOM      3  C   UNL     1      -0.032   1.331   0.440  0.00  0.00    +0.001 A 
ATOM      4  C   UNL     1       1.151   2.071   0.445  0.00  0.00    +0.002 A 
ATOM      5  C   UNL     1       2.359   1.465   0.305  0.00  0.00    +0.028 A 
ATOM      6  C   UNL     1       2.428   0.065   0.152  0.00  0.00    +0.073 A 
ATOM      7  C   UNL     1       1.222  -0.684   0.147  0.00  0.00    +0.023 A 
ATOM      8  C   UNL     1      -0.008  -0.021   0.295  0.00  0.00    +0.012 A 
ATOM      9  C   UNL     1       1.277  -2.084  -0.005  0.00  0.00    +0.063 A 
ATOM     10  C   UNL     1       2.546  -2.679  -0.148  0.00  0.00    +0.023 A 
ATOM     11  C   UNL     1       2.679  -4.069  -0.305  0.00  0.00    +0.012 A 
ATOM     12  C   UNL     1       3.917  -4.617  -0.441  0.00  0.00    +0.001 A 
ATOM     13  C   UNL     1       5.059  -3.817  -0.427  0.00  0.00    +0.002 A 
ATOM     14  C   UNL     1       4.970  -2.469  -0.277  0.00  0.00    +0.028 A 
ATOM     15  C   UNL     1       3.706  -1.861  -0.133  0.00  0.00    +0.073 A 
ATOM     16  N   UNL     1       3.607  -0.541   0.013  0.00  0.00    -0.247 NA
ENDBRANCH   1   9
BRANCH   1  17
ATOM     17  N   UNL     1      -1.039  -2.345  -0.606  0.00  0.00    -0.232 N 
ATOM     18  C   UNL     1      -2.192  -3.037  -0.511  0.00  0.00    +0.264 C 
ATOM     19  O   UNL     1      -2.219  -4.094   0.089  0.00  0.00    -0.269 OA
ATOM     20  H   UNL     1      -1.017  -1.502  -1.084  0.00  0.00    +0.173 HD
BRANCH  18  21
ATOM     21  C   UNL     1      -3.419  -2.511  -1.134  0.00  0.00    +0.080 A 
ATOM     22  C   UNL     1      -3.389  -1.298  -1.829  0.00  0.00    +0.020 A 
ATOM     23  C   UNL     1      -4.537  -0.811  -2.410  0.00  0.00    +0.046 A 
ATOM     24  C   UNL     1      -5.730  -1.521  -2.308  0.00  0.00    +0.120 A 
ATOM     25  C   UNL     1      -5.771  -2.725  -1.621  0.00  0.00    +0.091 A 
ATOM     26  C   UNL     1      -4.621  -3.228  -1.037  0.00  0.00    +0.132 A 
BRANCH  26  27
ATOM     27  O   UNL     1      -4.657  -4.409  -0.369  0.00  0.00    -0.506 OA
ATOM     28  H   UNL     1      -4.863  -4.322   0.572  0.00  0.00    +0.292 HD
ENDBRANCH  26  27
BRANCH  24  29
ATOM     29  O   UNL     1      -6.858  -1.033  -2.884  0.00  0.00    -0.507 OA
ATOM     30  H   UNL     1      -6.991  -1.324  -3.796  0.00  0.00    +0.292 HD
ENDBRANCH  24  29
ENDBRANCH  18  21
ENDBRANCH   1  17
TORSDOF 5
