REMARK  Name = ZINC03192177
REMARK  8 active torsions:
REMARK  status: ('A' for Active; 'I' for Inactive)
REMARK    1  A    between atoms: C_1  and  C_2
REMARK    2  A    between atoms: C_2  and  N_3
REMARK    3  A    between atoms: N_3  and  C_4
REMARK    4  A    between atoms: N_3  and  P_6
REMARK    5  A    between atoms: C_4  and  C_5
REMARK    6  A    between atoms: C_9  and  C_31
REMARK    7  A    between atoms: N_11  and  C_25
REMARK    8  A    between atoms: N_16  and  C_17
REMARK                            x       y       z     vdW  Elec       q    Type
REMARK                         _______ _______ _______ _____ _____    ______ ____
ROOT
ATOM      1  P   UNL     1       2.490  -1.048   0.877  0.00  0.00    +0.117 P 
ATOM      2  S   UNL     1       3.862   0.194   0.658  0.00  0.00    -0.024 S 
ATOM      3  C   UNL     1       2.769  -1.974   2.427  0.00  0.00    +0.071 C 
ATOM      4  C   UNL     1       2.881  -1.679   3.718  0.00  0.00    +0.033 C 
ATOM      5  N   UNL     1       3.091  -2.840   4.412  0.00  0.00    -0.262 N 
ATOM      6  N   UNL     1       3.108  -3.905   3.499  0.00  0.00    -0.206 N 
ATOM      7  C   UNL     1       2.908  -3.381   2.244  0.00  0.00    +0.148 C 
ATOM      8  N   UNL     1       2.830  -3.893   1.036  0.00  0.00    -0.145 NA
ATOM      9  C   UNL     1       2.638  -3.368  -0.149  0.00  0.00    +0.337 C 
ATOM     10  O   UNL     1       2.620  -4.145  -1.088  0.00  0.00    -0.250 OA
ATOM     11  N   UNL     1       2.455  -2.059  -0.450  0.00  0.00    -0.211 N 
ATOM     12  C   UNL     1       2.793  -0.298   4.316  0.00  0.00    +0.063 C 
ATOM     13  H   UNL     1       3.208  -2.913   5.373  0.00  0.00    +0.170 HD
ENDROOT
BRANCH  11  14
ATOM     14  C   UNL     1       2.256  -1.597  -1.756  0.00  0.00    +0.045 A 
ATOM     15  C   UNL     1       1.518  -0.442  -1.980  0.00  0.00    +0.025 A 
ATOM     16  C   UNL     1       1.322   0.013  -3.269  0.00  0.00    +0.023 A 
ATOM     17  C   UNL     1       1.861  -0.682  -4.338  0.00  0.00    +0.059 A 
ATOM     18  C   UNL     1       2.597  -1.834  -4.118  0.00  0.00    +0.061 A 
ATOM     19  C   UNL     1       2.800  -2.290  -2.829  0.00  0.00    +0.045 A 
ATOM     20 CL   UNL     1       3.270  -2.703  -5.462  0.00  0.00    -0.082 Cl
ATOM     21 CL   UNL     1       1.612  -0.109  -5.958  0.00  0.00    -0.082 Cl
ENDBRANCH  11  14
BRANCH   6  22
ATOM     22  C   UNL     1       3.296  -5.255   3.809  0.00  0.00    +0.055 A 
ATOM     23  C   UNL     1       3.296  -6.208   2.799  0.00  0.00    +0.025 A 
ATOM     24  C   UNL     1       3.481  -7.541   3.109  0.00  0.00    +0.002 A 
ATOM     25  C   UNL     1       3.666  -7.927   4.424  0.00  0.00    +0.000 A 
ATOM     26  C   UNL     1       3.666  -6.981   5.432  0.00  0.00    +0.002 A 
ATOM     27  C   UNL     1       3.487  -5.646   5.128  0.00  0.00    +0.025 A 
ENDBRANCH   6  22
BRANCH   1  28
ATOM     28  N   UNL     1       1.060  -0.251   0.980  0.00  0.00    -0.260 NA
BRANCH  28  30
ATOM     29  C   UNL     1      -0.971  -1.116  -0.074  0.00  0.00    +0.021 C 
ATOM     30  C   UNL     1      -0.177  -0.996   1.229  0.00  0.00    +0.087 C 
ENDBRANCH  28  30
BRANCH  28  31
ATOM     31  C   UNL     1       1.019   1.205   0.822  0.00  0.00    +0.087 C 
ATOM     32  C   UNL     1       0.850   1.861   2.194  0.00  0.00    +0.021 C 
ENDBRANCH  28  31
ENDBRANCH   1  28
TORSDOF 5
