REMARK  Name = ZINC10334165
REMARK  8 active torsions:
REMARK  status: ('A' for Active; 'I' for Inactive)
REMARK    1  A    between atoms: C_1  and  C_2
REMARK    2  A    between atoms: C_6  and  N_9
REMARK    3  A    between atoms: C_7  and  C_8
REMARK    4  A    between atoms: C_10  and  C_12
REMARK    5  A    between atoms: N_14  and  C_15
REMARK    6  A    between atoms: C_15  and  C_16
REMARK    7  A    between atoms: C_16  and  C_18
REMARK    8  A    between atoms: C_16  and  N_60
REMARK                            x       y       z     vdW  Elec       q    Type
REMARK                         _______ _______ _______ _____ _____    ______ ____
ROOT
ATOM      1  C   UNL     1      -1.322   7.379   0.200  0.00  0.00    +0.094 C 
ENDROOT
BRANCH   1   4
ATOM      2  C   UNL     1       0.600   7.402   1.698  0.00  0.00    +0.299 C 
ATOM      3  O   UNL     1       1.265   6.921   0.804  0.00  0.00    -0.265 OA
ATOM      4  N   UNL     1      -0.706   7.669   1.497  0.00  0.00    -0.309 N 
ATOM      5  H   UNL     1      -1.238   8.054   2.211  0.00  0.00    +0.149 HD
BRANCH   2   7
ATOM      6  N   UNL     1       2.534   7.431   3.220  0.00  0.00    -0.278 N 
ATOM      7  C   UNL     1       1.228   7.698   3.020  0.00  0.00    +0.303 C 
ATOM      8  O   UNL     1       0.563   8.180   3.914  0.00  0.00    -0.265 OA
ATOM      9  H   UNL     1       3.084   7.120   2.485  0.00  0.00    +0.155 HD
BRANCH   6  15
ATOM     10  C   UNL     1       6.491   8.242   6.020  0.00  0.00    +0.044 C 
ATOM     11  C   UNL     1       5.011   7.997   5.875  0.00  0.00    -0.046 A 
ATOM     12  C   UNL     1       4.207   7.942   6.999  0.00  0.00    +0.004 A 
ATOM     13  C   UNL     1       2.849   7.718   6.871  0.00  0.00    +0.002 A 
ATOM     14  C   UNL     1       2.291   7.548   5.619  0.00  0.00    +0.023 A 
ATOM     15  C   UNL     1       3.095   7.603   4.488  0.00  0.00    +0.037 A 
ATOM     16  C   UNL     1       4.460   7.829   4.621  0.00  0.00    -0.026 A 
ATOM     17  C   UNL     1       5.337   7.891   3.397  0.00  0.00    +0.046 C 
ENDBRANCH   6  15
ENDBRANCH   2   7
ENDBRANCH   1   4
BRANCH   1  18
ATOM     18  C   UNL     1      -2.765   7.888   0.195  0.00  0.00    -0.020 C 
BRANCH  18  19
ATOM     19  C   UNL     1      -2.768   9.390   0.321  0.00  0.00    -0.052 A 
ATOM     20  C   UNL     1      -2.916   9.973   1.542  0.00  0.00    +0.003 A 
ATOM     21  C   UNL     1      -2.916  11.360   1.679  0.00  0.00    +0.001 A 
ATOM     22  C   UNL     1      -2.779  12.171   0.595  0.00  0.00    +0.008 A 
ATOM     23  C   UNL     1      -2.629  11.605  -0.683  0.00  0.00    -0.018 A 
ATOM     24  C   UNL     1      -2.624  10.194  -0.821  0.00  0.00    -0.016 A 
ATOM     25  C   UNL     1      -2.474   9.628  -2.099  0.00  0.00    +0.009 A 
ATOM     26  C   UNL     1      -2.335  10.440  -3.183  0.00  0.00    +0.001 A 
ATOM     27  C   UNL     1      -2.341  11.827  -3.046  0.00  0.00    +0.001 A 
ATOM     28  C   UNL     1      -2.484  12.410  -1.825  0.00  0.00    +0.008 A 
ENDBRANCH  18  19
BRANCH  18  33
ATOM     29  C   UNL     1      -4.918   7.726   1.320  0.00  0.00    -0.078 C 
ATOM     30  C   UNL     1      -5.614   6.652   2.193  0.00  0.00    -0.020 C 
ATOM     31  C   UNL     1      -4.867   5.355   1.806  0.00  0.00    -0.020 C 
ATOM     32  C   UNL     1      -3.516   5.824   1.234  0.00  0.00    -0.078 C 
ATOM     33  N   UNL     1      -3.515   7.284   1.338  0.00  0.00    +0.385 N 
ATOM     34  H   UNL     1      -3.072   7.569   2.219  0.00  0.00    -0.081 HD
ENDBRANCH  18  33
ENDBRANCH   1  18
TORSDOF 6
