REMARK  Name = ZINC39850574
REMARK  7 active torsions:
REMARK  status: ('A' for Active; 'I' for Inactive)
REMARK    1  A    between atoms: C_1  and  C_2
REMARK    2  A    between atoms: C_5  and  C_13
REMARK    3  A    between atoms: C_6  and  C_7
REMARK    4  A    between atoms: C_6  and  C_8
REMARK    5  A    between atoms: N_11  and  O_12
REMARK    6  A    between atoms: C_13  and  O_15
REMARK    7  A    between atoms: O_15  and  C_16
REMARK                            x       y       z     vdW  Elec       q    Type
REMARK                         _______ _______ _______ _____ _____    ______ ____
ROOT
ATOM      1  C   UNL     1       1.007  -3.261   1.615  0.00  0.00    +0.320 C 
ATOM      2  O   UNL     1       1.580  -2.984   2.642  0.00  0.00    -0.250 OA
ENDROOT
BRANCH   1   7
ATOM      3  C   UNL     1      -0.019   1.526   0.010  0.00  0.00    +0.018 C 
ATOM      4  C   UNL     1       0.002  -0.004   0.002  0.00  0.00    +0.016 C 
ATOM      5  C   UNL     1       0.746  -0.667  -1.197  0.00  0.00    +0.014 C 
ATOM      6  C   UNL     1       1.065  -2.101  -0.713  0.00  0.00    +0.020 C 
ATOM      7  C   UNL     1       0.474  -2.165   0.729  0.00  0.00    +0.079 C 
ATOM      8  C   UNL     1       0.727  -0.692   1.212  0.00  0.00    -0.008 C 
ATOM      9  C   UNL     1       0.034  -0.396   2.543  0.00  0.00    +0.013 C 
ATOM     10  C   UNL     1       2.218  -0.351   1.258  0.00  0.00    +0.013 C 
ATOM     11  C   UNL     1      -1.070  -2.124   0.515  0.00  0.00    +0.073 C 
ATOM     12  C   UNL     1      -1.369  -0.692   0.058  0.00  0.00    +0.065 C 
ATOM     13  N   UNL     1      -2.506  -0.182  -0.233  0.00  0.00    -0.096 NA
BRANCH  13  14
ATOM     14  O   UNL     1      -3.681  -0.964  -0.125  0.00  0.00    -0.409 OA
ATOM     15  H   UNL     1      -4.491  -0.493  -0.366  0.00  0.00    +0.328 HD
ENDBRANCH  13  14
ENDBRANCH   1   7
BRANCH   1  16
ATOM     16  O   UNL     1       0.845  -4.547   1.263  0.00  0.00    -0.422 OA
BRANCH  16  17
ATOM     17  C   UNL     1       1.342  -5.503   2.092  0.00  0.00    +0.171 A 
ATOM     18  C   UNL     1       2.632  -5.956   1.933  0.00  0.00    +0.063 A 
ATOM     19  C   UNL     1       3.154  -6.935   2.775  0.00  0.00    +0.035 A 
ATOM     20  C   UNL     1       2.402  -7.469   3.778  0.00  0.00    +0.028 A 
ATOM     21  C   UNL     1       1.082  -7.031   3.972  0.00  0.00    +0.018 A 
ATOM     22  C   UNL     1       0.541  -6.032   3.125  0.00  0.00    +0.115 A 
ATOM     23  N   UNL     1      -0.714  -5.611   3.309  0.00  0.00    -0.251 NA
ATOM     24  C   UNL     1      -1.463  -6.100   4.267  0.00  0.00    +0.111 A 
ATOM     25  C   UNL     1      -0.992  -7.080   5.138  0.00  0.00    +0.020 A 
ATOM     26  C   UNL     1       0.278  -7.562   4.998  0.00  0.00    +0.013 A 
ATOM     27 BR   UNL     1       3.135  -8.797   4.907  0.00  0.00    -0.050 Br
ATOM     28 BR   UNL     1       3.709  -5.240   0.553  0.00  0.00    -0.046 Br
ENDBRANCH  16  17
ENDBRANCH   1  16
TORSDOF 4
