REMARK  Name = ZINC36110663
REMARK  9 active torsions:
REMARK  status: ('A' for Active; 'I' for Inactive)
REMARK    1  A    between atoms: C_1  and  C_2
REMARK    2  A    between atoms: C_7  and  S_8
REMARK    3  A    between atoms: S_8  and  N_11
REMARK    4  A    between atoms: N_11  and  C_12
REMARK    5  A    between atoms: C_12  and  C_13
REMARK    6  A    between atoms: C_13  and  C_15
REMARK    7  A    between atoms: C_13  and  N_24
REMARK    8  A    between atoms: N_24  and  C_25
REMARK    9  A    between atoms: N_24  and  C_26
REMARK                            x       y       z     vdW  Elec       q    Type
REMARK                         _______ _______ _______ _____ _____    ______ ____
ROOT
ATOM      1  C   UNL     1       2.031   1.415   1.895  0.00  0.00    +0.095 C 
ENDROOT
BRANCH   1   2
ATOM      2  N   UNL     1       2.369   1.240   0.481  0.00  0.00    -0.191 NA
ATOM      3  H   UNL     1       3.097   1.749   0.090  0.00  0.00    +0.148 HD
BRANCH   2   4
ATOM      4  S   UNL     1       1.510   0.175  -0.451  0.00  0.00    +0.059 S 
ATOM      5  O   UNL     1       1.475  -1.053   0.264  0.00  0.00    -0.153 OA
ATOM      6  O   UNL     1       2.033   0.274  -1.769  0.00  0.00    -0.153 OA
BRANCH   4  13
ATOM      7  C   UNL     1       0.683   2.766  -1.772  0.00  0.00    +0.046 C 
ATOM      8  C   UNL     1      -0.429   1.964  -1.148  0.00  0.00    -0.021 A 
ATOM      9  C   UNL     1      -1.731   2.425  -1.208  0.00  0.00    +0.043 A 
ATOM     10  C   UNL     1      -2.753   1.687  -0.636  0.00  0.00    +0.124 A 
ATOM     11  C   UNL     1      -2.470   0.488  -0.003  0.00  0.00    +0.040 A 
ATOM     12  C   UNL     1      -1.168   0.029   0.056  0.00  0.00    +0.031 A 
ATOM     13  C   UNL     1      -0.149   0.764  -0.521  0.00  0.00    +0.108 A 
ATOM     14  F   UNL     1      -4.026   2.137  -0.694  0.00  0.00    -0.205 F 
ENDBRANCH   4  13
ENDBRANCH   2   4
ENDBRANCH   1   2
BRANCH   1  15
ATOM     15  C   UNL     1       3.161   2.167   2.601  0.00  0.00    -0.023 C 
BRANCH  15  16
ATOM     16  C   UNL     1       3.276   3.555   2.026  0.00  0.00    -0.056 A 
ATOM     17  C   UNL     1       2.408   4.548   2.441  0.00  0.00    +0.006 A 
ATOM     18  C   UNL     1       2.510   5.823   1.917  0.00  0.00    +0.050 A 
ATOM     19  C   UNL     1       3.482   6.109   0.973  0.00  0.00    +0.166 A 
ATOM     20  C   UNL     1       4.357   5.109   0.554  0.00  0.00    +0.166 A 
ATOM     21  C   UNL     1       4.252   3.835   1.088  0.00  0.00    +0.051 A 
ATOM     22  O   UNL     1       5.212   5.636  -0.370  0.00  0.00    -0.453 OA
ATOM     23  C   UNL     1       4.593   6.857  -0.814  0.00  0.00    +0.466 C 
ATOM     24  O   UNL     1       3.790   7.262   0.310  0.00  0.00    -0.453 OA
ENDBRANCH  15  16
BRANCH  15  25
ATOM     25  N   UNL     1       2.868   2.255   4.038  0.00  0.00    +0.381 N 
ATOM     26  C   UNL     1       2.796   0.903   4.607  0.00  0.00    -0.096 C 
ATOM     27  C   UNL     1       3.932   3.013   4.709  0.00  0.00    -0.096 C 
ATOM     28  H   UNL     1       1.985   2.724   4.173  0.00  0.00    -0.082 HD
ENDBRANCH  15  25
ENDBRANCH   1  15
TORSDOF 6
