REMARK  Name = ZINC09211471
REMARK  8 active torsions:
REMARK  status: ('A' for Active; 'I' for Inactive)
REMARK    1  A    between atoms: C_1  and  C_2
REMARK    2  A    between atoms: C_4  and  C_32
REMARK    3  A    between atoms: C_6  and  N_8
REMARK    4  A    between atoms: C_9  and  C_11
REMARK    5  A    between atoms: C_11  and  N_12
REMARK    6  A    between atoms: C_15  and  S_23
REMARK    7  A    between atoms: S_23  and  N_26
REMARK    8  A    between atoms: N_26  and  C_27
REMARK                            x       y       z     vdW  Elec       q    Type
REMARK                         _______ _______ _______ _____ _____    ______ ____
ROOT
ATOM      1  N   UNL     1      -1.372  -0.485   0.378  0.00  0.00    -0.256 N 
ATOM      2  C   UNL     1      -1.842  -0.742   1.674  0.00  0.00    +0.081 A 
ATOM      3  C   UNL     1      -1.171  -0.249   2.780  0.00  0.00    +0.055 A 
ATOM      4  C   UNL     1      -1.650  -0.515   4.050  0.00  0.00    +0.107 A 
ATOM      5  C   UNL     1      -2.796  -1.271   4.217  0.00  0.00    +0.032 A 
ATOM      6  C   UNL     1      -3.474  -1.755   3.117  0.00  0.00    +0.049 A 
ATOM      7  C   UNL     1      -2.999  -1.498   1.843  0.00  0.00    +0.143 A 
ATOM      8  O   UNL     1      -3.648  -1.981   0.750  0.00  0.00    -0.481 OA
ATOM      9  C   UNL     1      -3.606  -1.176  -0.430  0.00  0.00    +0.325 C 
ATOM     10  C   UNL     1      -2.194  -0.704  -0.672  0.00  0.00    +0.258 C 
ATOM     11  O   UNL     1      -1.798  -0.522  -1.804  0.00  0.00    -0.271 OA
ENDROOT
BRANCH   4  12
ATOM     12  S   UNL     1      -0.798   0.111   5.460  0.00  0.00    +0.059 S 
ATOM     13  O   UNL     1      -1.141  -0.734   6.550  0.00  0.00    -0.153 OA
ATOM     14  O   UNL     1       0.547   0.327   5.058  0.00  0.00    -0.153 OA
BRANCH  12  15
ATOM     15  N   UNL     1      -1.437   1.601   5.796  0.00  0.00    -0.187 NA
ATOM     16  H   UNL     1      -0.886   2.395   5.714  0.00  0.00    +0.148 HD
BRANCH  15  17
ATOM     17  C   UNL     1      -2.835   1.720   6.219  0.00  0.00    +0.077 C 
ATOM     18  C   UNL     1      -3.721   2.096   5.013  0.00  0.00    +0.020 C 
ATOM     19  C   UNL     1      -4.776   3.065   5.605  0.00  0.00    +0.002 C 
ATOM     20  C   UNL     1      -3.950   3.887   6.625  0.00  0.00    +0.002 C 
ATOM     21  C   UNL     1      -2.981   2.858   7.244  0.00  0.00    +0.020 C 
ENDBRANCH  15  17
ENDBRANCH  12  15
ENDBRANCH   4  12
BRANCH   1  22
ATOM     22  C   UNL     1      -0.009   0.008   0.165  0.00  0.00    +0.209 C 
BRANCH  22  24
ATOM     23  N   UNL     1       1.139   2.192   0.003  0.00  0.00    -0.284 N 
ATOM     24  C   UNL     1      -0.012   1.515   0.180  0.00  0.00    +0.235 C 
ATOM     25  O   UNL     1      -1.051   2.118   0.347  0.00  0.00    -0.274 OA
ATOM     26  H   UNL     1       1.980   1.713  -0.057  0.00  0.00    +0.155 HD
BRANCH  23  32
ATOM     27  C   UNL     1       3.315   6.521   0.839  0.00  0.00    +0.044 C 
ATOM     28  C   UNL     1       2.163   5.711   0.302  0.00  0.00    -0.048 A 
ATOM     29  C   UNL     1       1.087   6.348  -0.288  0.00  0.00    +0.006 A 
ATOM     30  C   UNL     1       0.028   5.608  -0.782  0.00  0.00    -0.048 A 
ATOM     31  C   UNL     1       0.043   4.231  -0.687  0.00  0.00    +0.026 A 
ATOM     32  C   UNL     1       1.122   3.588  -0.095  0.00  0.00    +0.034 A 
ATOM     33  C   UNL     1       2.181   4.334   0.405  0.00  0.00    +0.026 A 
ATOM     34  C   UNL     1      -1.143   6.306  -1.425  0.00  0.00    +0.044 C 
ENDBRANCH  23  32
ENDBRANCH  22  24
ENDBRANCH   1  22
TORSDOF 6
