REMARK  Name = ZINC12563379
REMARK  6 active torsions:
REMARK  status: ('A' for Active; 'I' for Inactive)
REMARK    1  A    between atoms: C_1  and  C_2
REMARK    2  A    between atoms: C_2  and  C_4
REMARK    3  A    between atoms: C_2  and  N_15
REMARK    4  A    between atoms: N_6  and  C_7
REMARK    5  A    between atoms: N_15  and  C_16
REMARK    6  A    between atoms: C_25  and  C_27
REMARK                            x       y       z     vdW  Elec       q    Type
REMARK                         _______ _______ _______ _____ _____    ______ ____
ROOT
ATOM      1  C   UNL     1      -1.333   4.009   1.455  0.00  0.00    +0.038 C 
ATOM      2  C   UNL     1      -1.458   3.496   0.019  0.00  0.00    +0.154 C 
ENDROOT
BRANCH   2   3
ATOM      3  C   UNL     1      -2.776   3.942  -0.560  0.00  0.00    +0.237 C 
ATOM      4  O   UNL     1      -3.582   3.118  -0.939  0.00  0.00    -0.273 OA
ATOM      5  N   UNL     1      -3.059   5.256  -0.658  0.00  0.00    -0.284 N 
ATOM      6  H   UNL     1      -2.389   5.915  -0.419  0.00  0.00    +0.155 HD
BRANCH   5   7
ATOM      7  C   UNL     1      -4.320   5.669  -1.105  0.00  0.00    +0.036 A 
ATOM      8  C   UNL     1      -4.985   4.939  -2.081  0.00  0.00    +0.026 A 
ATOM      9  C   UNL     1      -6.232   5.344  -2.517  0.00  0.00    +0.043 A 
ATOM     10  C   UNL     1      -6.814   6.484  -1.991  0.00  0.00    +0.159 A 
ATOM     11  C   UNL     1      -6.150   7.219  -1.021  0.00  0.00    +0.160 A 
ATOM     12  C   UNL     1      -4.904   6.813  -0.577  0.00  0.00    +0.064 A 
ATOM     13  F   UNL     1      -6.719   8.332  -0.508  0.00  0.00    -0.202 F 
ATOM     14  F   UNL     1      -8.030   6.882  -2.424  0.00  0.00    -0.202 F 
ENDBRANCH   5   7
ENDBRANCH   2   3
BRANCH   2  15
ATOM     15  N   UNL     1      -1.394   2.032   0.015  0.00  0.00    -0.333 N 
ATOM     16  H   UNL     1      -2.211   1.511   0.028  0.00  0.00    +0.147 HD
BRANCH  15  17
ATOM     17  C   UNL     1      -0.153   1.387  -0.005  0.00  0.00    +0.028 A 
ATOM     18  C   UNL     1       1.020   2.131  -0.028  0.00  0.00    +0.025 A 
ATOM     19  C   UNL     1       2.242   1.495  -0.053  0.00  0.00    +0.025 A 
ATOM     20  C   UNL     1       2.313   0.100  -0.057  0.00  0.00    +0.040 A 
ATOM     21  C   UNL     1       1.139  -0.635  -0.034  0.00  0.00    -0.023 A 
ATOM     22  C   UNL     1      -0.087   0.000  -0.008  0.00  0.00    +0.028 A 
ATOM     23  C   UNL     1       1.492  -2.106  -0.043  0.00  0.00    +0.056 C 
ATOM     24  C   UNL     1       3.028  -2.136  -0.075  0.00  0.00    +0.118 C 
ATOM     25  N   UNL     1       3.441  -0.730  -0.081  0.00  0.00    -0.271 N 
ATOM     26  C   UNL     1       4.718  -0.300  -0.106  0.00  0.00    +0.217 C 
ATOM     27  O   UNL     1       4.956   0.886  -0.202  0.00  0.00    -0.276 OA
ATOM     28  C   UNL     1       5.849  -1.291  -0.015  0.00  0.00    +0.109 C 
ENDBRANCH  15  17
ENDBRANCH   2  15
TORSDOF 4
