REMARK  Name = ZINC39464139
REMARK  5 active torsions:
REMARK  status: ('A' for Active; 'I' for Inactive)
REMARK    1  A    between atoms: C_4  and  C_7
REMARK    2  A    between atoms: C_7  and  P_8
REMARK    3  A    between atoms: C_17  and  S_24
REMARK    4  A    between atoms: S_24  and  O_27
REMARK    5  A    between atoms: O_27  and  C_28
REMARK                            x       y       z     vdW  Elec       q    Type
REMARK                         _______ _______ _______ _____ _____    ______ ____
ROOT
ATOM      1  P   UNL     1       6.187  -1.835   1.282  0.00  0.00    +0.289 P 
ATOM      2  O   UNL     1       6.667  -0.591   1.925  0.00  0.00    -0.271 OA
ATOM      3  N   UNL     1       7.328  -3.025   1.412  0.00  0.00    -0.179 NA
ATOM      4  N   UNL     1       6.882  -4.322   1.284  0.00  0.00    -0.226 NA
ATOM      5  C   UNL     1       8.009  -5.254   1.442  0.00  0.00    +0.108 C 
ATOM      6  C   UNL     1       7.570  -6.641   0.974  0.00  0.00    +0.052 C 
ATOM      7  C   UNL     1       6.285  -7.025   1.660  0.00  0.00    -0.040 A 
ATOM      8  C   UNL     1       5.923  -8.363   1.689  0.00  0.00    +0.026 A 
ATOM      9  C   UNL     1       4.751  -8.755   2.307  0.00  0.00    +0.069 A 
ATOM     10  C   UNL     1       3.937  -7.806   2.900  0.00  0.00    +0.147 A 
ATOM     11  C   UNL     1       4.298  -6.475   2.871  0.00  0.00    +0.037 A 
ATOM     12  C   UNL     1       5.475  -6.079   2.250  0.00  0.00    -0.022 A 
ATOM     13  C   UNL     1       5.822  -4.614   2.249  0.00  0.00    +0.129 C 
ATOM     14  C   UNL     1       4.561  -3.801   1.943  0.00  0.00    +0.194 C 
ATOM     15  O   UNL     1       4.876  -2.399   2.061  0.00  0.00    -0.314 OA
ATOM     16 CL   UNL     1       4.302 -10.431   2.341  0.00  0.00    -0.081 Cl
ATOM     17  H   UNL     1       8.263  -2.820   1.569  0.00  0.00    +0.151 HD
ENDROOT
BRANCH  10  18
ATOM     18  S   UNL     1       2.440  -8.297   3.689  0.00  0.00    +0.152 S 
ATOM     19  O   UNL     1       2.795  -8.742   4.992  0.00  0.00    -0.131 OA
ATOM     20  O   UNL     1       1.503  -7.251   3.471  0.00  0.00    -0.131 OA
BRANCH  18  21
ATOM     21  O   UNL     1       1.915  -9.514   2.942  0.00  0.00    -0.342 OA
BRANCH  21  22
ATOM     22  C   UNL     1       1.306  -9.219   1.763  0.00  0.00    +0.157 A 
ATOM     23  C   UNL     1      -0.070  -9.044   1.717  0.00  0.00    +0.048 A 
ATOM     24  C   UNL     1      -0.686  -8.744   0.518  0.00  0.00    +0.004 A 
ATOM     25  C   UNL     1       0.066  -8.617  -0.635  0.00  0.00    +0.000 A 
ATOM     26  C   UNL     1       1.437  -8.791  -0.592  0.00  0.00    +0.004 A 
ATOM     27  C   UNL     1       2.059  -9.086   0.606  0.00  0.00    +0.048 A 
ENDBRANCH  21  22
ENDBRANCH  18  21
ENDBRANCH  10  18
BRANCH   1  28
ATOM     28  C   UNL     1       5.795  -1.526  -0.471  0.00  0.00    +0.150 C 
BRANCH  28  32
ATOM     29  C   UNL     1       2.659   1.361  -0.743  0.00  0.00    +0.000 A 
ATOM     30  C   UNL     1       3.978   1.774  -0.725  0.00  0.00    +0.000 A 
ATOM     31  C   UNL     1       4.993   0.839  -0.637  0.00  0.00    +0.004 A 
ATOM     32  C   UNL     1       4.688  -0.507  -0.566  0.00  0.00    -0.037 A 
ATOM     33  C   UNL     1       3.369  -0.919  -0.583  0.00  0.00    +0.004 A 
ATOM     34  C   UNL     1       2.354   0.015  -0.673  0.00  0.00    +0.000 A 
ENDBRANCH  28  32
ENDBRANCH   1  28
TORSDOF 5
