REMARK  Name = ZINC07790708
REMARK  8 active torsions:
REMARK  status: ('A' for Active; 'I' for Inactive)
REMARK    1  A    between atoms: C_1  and  C_2
REMARK    2  A    between atoms: C_2  and  O_3
REMARK    3  A    between atoms: O_3  and  C_4
REMARK    4  A    between atoms: C_9  and  C_10
REMARK    5  A    between atoms: C_10  and  S_11
REMARK    6  A    between atoms: S_11  and  C_12
REMARK    7  A    between atoms: C_15  and  C_20
REMARK    8  A    between atoms: N_16  and  C_17
REMARK                            x       y       z     vdW  Elec       q    Type
REMARK                         _______ _______ _______ _____ _____    ______ ____
ROOT
ATOM      1  C   UNL     1       4.294   0.105  -4.308  0.00  0.00    +0.192 A 
ATOM      2  N   UNL     1       3.498   0.486  -5.279  0.00  0.00    -0.122 NA
ATOM      3  N   UNL     1       4.137   1.233  -6.107  0.00  0.00    -0.128 NA
ATOM      4  C   UNL     1       5.383   1.374  -5.715  0.00  0.00    +0.167 A 
ATOM      5  N   UNL     1       5.521   0.661  -4.547  0.00  0.00    -0.299 N 
ENDROOT
BRANCH   4   6
ATOM      6  C   UNL     1       6.434   2.156  -6.396  0.00  0.00    +0.044 A 
ATOM      7  C   UNL     1       7.686   2.406  -5.935  0.00  0.00    +0.095 A 
ATOM      8  N   UNL     1       8.369   3.163  -6.843  0.00  0.00    -0.360 N 
ATOM      9  H   UNL     1       9.284   3.468  -6.735  0.00  0.00    +0.165 HD
ATOM     10  C   UNL     1       7.572   3.430  -7.935  0.00  0.00    +0.047 A 
ATOM     11  C   UNL     1       6.331   2.810  -7.712  0.00  0.00    +0.010 A 
ATOM     12  C   UNL     1       5.320   2.910  -8.665  0.00  0.00    +0.011 A 
ATOM     13  C   UNL     1       5.545   3.615  -9.827  0.00  0.00    +0.001 A 
ATOM     14  C   UNL     1       6.772   4.224 -10.050  0.00  0.00    +0.002 A 
ATOM     15  C   UNL     1       7.778   4.141  -9.113  0.00  0.00    +0.026 A 
ENDBRANCH   4   6
BRANCH   5  16
ATOM     16  C   UNL     1       6.730   0.523  -3.731  0.00  0.00    +0.091 C 
ATOM     17  C   UNL     1       6.756  -0.598  -2.690  0.00  0.00    +0.027 C 
ATOM     18  C   UNL     1       6.619   0.859  -2.242  0.00  0.00    +0.027 C 
ENDBRANCH   5  16
BRANCH   1  19
ATOM     19  S   UNL     1       3.861  -0.926  -2.946  0.00  0.00    -0.081 S 
BRANCH  19  20
ATOM     20  C   UNL     1       2.112  -1.313  -3.227  0.00  0.00    +0.116 C 
BRANCH  20  26
ATOM     21  C   UNL     1       1.061  -1.640  -0.974  0.00  0.00    +0.124 A 
ATOM     22  C   UNL     1       0.595  -2.460   0.043  0.00  0.00    +0.046 A 
ATOM     23  C   UNL     1       0.681  -3.833  -0.083  0.00  0.00    +0.004 A 
ATOM     24  C   UNL     1       1.233  -4.390  -1.222  0.00  0.00    +0.001 A 
ATOM     25  C   UNL     1       1.699  -3.575  -2.237  0.00  0.00    +0.008 A 
ATOM     26  C   UNL     1       1.609  -2.201  -2.118  0.00  0.00    +0.004 A 
BRANCH  21  27
ATOM     27  O   UNL     1       0.976  -0.289  -0.852  0.00  0.00    -0.492 OA
BRANCH  27  29
ATOM     28  C   UNL     1       0.390   1.748   0.310  0.00  0.00    +0.048 C 
ATOM     29  C   UNL     1       0.401   0.219   0.354  0.00  0.00    +0.225 C 
ENDBRANCH  27  29
ENDBRANCH  21  27
ENDBRANCH  20  26
ENDBRANCH  19  20
ENDBRANCH   1  19
TORSDOF 7
