REMARK  Name = ZINC45866036
REMARK  5 active torsions:
REMARK  status: ('A' for Active; 'I' for Inactive)
REMARK    1  A    between atoms: C_1  and  C_2
REMARK    2  A    between atoms: C_7  and  S_8
REMARK    3  A    between atoms: S_8  and  N_11
REMARK    4  A    between atoms: N_11  and  N_12
REMARK    5  A    between atoms: C_13  and  C_15
REMARK                            x       y       z     vdW  Elec       q    Type
REMARK                         _______ _______ _______ _____ _____    ______ ____
ROOT
ATOM      1  N   UNL     1       1.257   2.136   2.059  0.00  0.00    -0.231 N 
ATOM      2  C   UNL     1       1.313   3.382   2.569  0.00  0.00    +0.234 C 
ATOM      3  O   UNL     1       1.377   3.544   3.769  0.00  0.00    -0.274 OA
ATOM      4  H   UNL     1       1.280   2.003   1.098  0.00  0.00    +0.171 HD
ENDROOT
BRANCH   2   5
ATOM      5  C   UNL     1       1.295   4.575   1.647  0.00  0.00    +0.049 C 
ATOM      6  C   UNL     1      -0.046   4.632   0.913  0.00  0.00    +0.019 C 
ATOM      7  C   UNL     1      -0.064   5.843  -0.022  0.00  0.00    -0.009 C 
ATOM      8  C   UNL     1       0.124   7.122   0.795  0.00  0.00    +0.007 C 
ATOM      9  C   UNL     1       1.465   7.065   1.530  0.00  0.00    -0.009 C 
ATOM     10  C   UNL     1       1.483   5.854   2.465  0.00  0.00    +0.019 C 
ATOM     11  C   UNL     1       2.600   6.939   0.511  0.00  0.00    +0.007 C 
ATOM     12  C   UNL     1       2.412   5.660  -0.307  0.00  0.00    -0.009 C 
ATOM     13  C   UNL     1       1.071   5.717  -1.041  0.00  0.00    +0.007 C 
ATOM     14  C   UNL     1       2.429   4.449   0.628  0.00  0.00    +0.019 C 
ENDBRANCH   2   5
BRANCH   1  15
ATOM     15  N   UNL     1       1.167   1.032   2.916  0.00  0.00    -0.108 NA
ATOM     16  H   UNL     1       1.829   0.904   3.614  0.00  0.00    +0.172 HD
BRANCH  15  17
ATOM     17  S   UNL     1      -0.069  -0.056   2.739  0.00  0.00    +0.074 S 
ATOM     18  O   UNL     1      -1.277   0.691   2.786  0.00  0.00    -0.152 OA
ATOM     19  O   UNL     1       0.201  -1.127   3.633  0.00  0.00    -0.152 OA
BRANCH  17  26
ATOM     20  C   UNL     1       2.236  -1.750   1.759  0.00  0.00    +0.046 C 
ATOM     21  C   UNL     1       1.145  -1.483   0.754  0.00  0.00    -0.021 A 
ATOM     22  C   UNL     1       1.237  -2.007  -0.521  0.00  0.00    +0.043 A 
ATOM     23  C   UNL     1       0.234  -1.762  -1.444  0.00  0.00    +0.124 A 
ATOM     24  C   UNL     1      -0.860  -0.992  -1.087  0.00  0.00    +0.040 A 
ATOM     25  C   UNL     1      -0.949  -0.469   0.188  0.00  0.00    +0.031 A 
ATOM     26  C   UNL     1       0.050  -0.718   1.110  0.00  0.00    +0.110 A 
ATOM     27  F   UNL     1       0.323  -2.274  -2.691  0.00  0.00    -0.205 F 
ENDBRANCH  17  26
ENDBRANCH  15  17
ENDBRANCH   1  15
TORSDOF 4
