REMARK  Name = ZINC39526031
REMARK  5 active torsions:
REMARK  status: ('A' for Active; 'I' for Inactive)
REMARK    1  A    between atoms: C_1  and  C_2
REMARK    2  A    between atoms: C_2  and  C_3
REMARK    3  A    between atoms: C_2  and  S_4
REMARK    4  A    between atoms: S_4  and  C_7
REMARK    5  A    between atoms: C_17  and  O_21
REMARK                            x       y       z     vdW  Elec       q    Type
REMARK                         _______ _______ _______ _____ _____    ______ ____
ROOT
ATOM      1  C   UNL     1      -0.293  -0.141   2.818  0.00  0.00    +0.132 C 
ATOM      2  C   UNL     1      -0.506   1.368   2.688  0.00  0.00    +0.026 C 
ATOM      3  C   UNL     1      -1.412   1.855   3.820  0.00  0.00    +0.004 C 
ATOM      4  C   UNL     1      -0.755   1.547   5.167  0.00  0.00    +0.023 C 
ATOM      5  C   UNL     1      -0.544   0.037   5.297  0.00  0.00    +0.036 C 
ATOM      6  C   UNL     1       0.363  -0.450   4.165  0.00  0.00    +0.049 C 
ATOM      7  C   UNL     1      -1.896  -0.675   5.208  0.00  0.00    +0.023 C 
ATOM      8  C   UNL     1      -1.683  -2.184   5.360  0.00  0.00    +0.006 C 
ATOM      9  C   UNL     1      -0.986  -2.462   6.694  0.00  0.00    +0.048 C 
ATOM     10  C   UNL     1       0.340  -1.698   6.739  0.00  0.00    +0.195 C 
ATOM     11  N   UNL     1       0.083  -0.260   6.591  0.00  0.00    -0.214 NA
ATOM     12  I   UNL     1       1.806   0.823   6.838  0.00  0.00    +0.024 I 
ENDROOT
BRANCH   1  13
ATOM     13  S   UNL     1       0.782  -0.718   1.476  0.00  0.00    -0.026 S 
ATOM     14  O   UNL     1       0.883  -2.133   1.557  0.00  0.00    -0.174 OA
ATOM     15  O   UNL     1       1.971   0.061   1.486  0.00  0.00    -0.174 OA
BRANCH  13  17
ATOM     16  C   UNL     1       0.629  -0.687  -1.255  0.00  0.00    +0.031 C 
ATOM     17  C   UNL     1      -0.169  -0.295  -0.010  0.00  0.00    +0.125 C 
ATOM     18  C   UNL     1      -1.499  -1.051   0.003  0.00  0.00    +0.031 C 
ENDBRANCH  13  17
ENDBRANCH   1  13
BRANCH  10  19
ATOM     19  O   UNL     1       0.986  -1.940   7.991  0.00  0.00    -0.376 OA
ATOM     20  H   UNL     1       1.187  -2.871   8.156  0.00  0.00    +0.211 HD
ENDBRANCH  10  19
TORSDOF 3
