REMARK  Name = ZINC03593463
REMARK  5 active torsions:
REMARK  status: ('A' for Active; 'I' for Inactive)
REMARK    1  A    between atoms: C_1  and  C_2
REMARK    2  A    between atoms: C_2  and  C_24
REMARK    3  A    between atoms: N_5  and  C_9
REMARK    4  A    between atoms: C_9  and  C_10
REMARK    5  A    between atoms: N_12  and  C_13
REMARK                            x       y       z     vdW  Elec       q    Type
REMARK                         _______ _______ _______ _____ _____    ______ ____
ROOT
ATOM      1  C   UNL     1      -5.450  -0.013   1.144  0.00  0.00    +0.047 C 
ATOM      2  C   UNL     1      -4.076  -0.474   0.653  0.00  0.00    +0.136 C 
ATOM      3  C   UNL     1      -2.994   0.471   1.134  0.00  0.00    +0.251 C 
ATOM      4  O   UNL     1      -2.696   0.721   2.282  0.00  0.00    -0.272 OA
ATOM      5  N   UNL     1      -2.430   0.977   0.019  0.00  0.00    -0.215 N 
ATOM      6  C   UNL     1      -3.004   0.491  -1.088  0.00  0.00    +0.310 C 
ATOM      7  O   UNL     1      -2.670   0.803  -2.214  0.00  0.00    -0.252 OA
ATOM      8  N   UNL     1      -3.989  -0.383  -0.815  0.00  0.00    -0.281 N 
ATOM      9  H   UNL     1      -4.538  -0.857  -1.459  0.00  0.00    +0.152 HD
ENDROOT
BRANCH   2  10
ATOM     10  C   UNL     1      -3.795  -1.881   1.114  0.00  0.00    +0.003 A 
ATOM     11  C   UNL     1      -3.631  -2.893   0.187  0.00  0.00    +0.007 A 
ATOM     12  C   UNL     1      -3.368  -4.182   0.610  0.00  0.00    +0.000 A 
ATOM     13  C   UNL     1      -3.279  -4.463   1.961  0.00  0.00    +0.001 A 
ATOM     14  C   UNL     1      -3.448  -3.453   2.889  0.00  0.00    +0.020 A 
ATOM     15  C   UNL     1      -3.706  -2.161   2.466  0.00  0.00    +0.047 A 
ATOM     16 CL   UNL     1      -3.919  -0.892   3.631  0.00  0.00    -0.083 Cl
ENDBRANCH   2  10
BRANCH   5  17
ATOM     17  C   UNL     1      -1.330   1.944   0.019  0.00  0.00    +0.213 C 
BRANCH  17  18
ATOM     18  C   UNL     1      -0.014   1.209   0.009  0.00  0.00    +0.231 C 
ATOM     19  O   UNL     1       0.002  -0.004   0.002  0.00  0.00    -0.274 OA
ATOM     20  N   UNL     1       1.143   1.898   0.001  0.00  0.00    -0.307 N 
ATOM     21  H   UNL     1       1.130   2.868   0.007  0.00  0.00    +0.149 HD
BRANCH  20  22
ATOM     22  C   UNL     1       2.422   1.183  -0.015  0.00  0.00    +0.103 C 
ATOM     23  C   UNL     1       3.505   2.075   0.589  0.00  0.00    +0.027 C 
ATOM     24  C   UNL     1       4.865   1.401   0.367  0.00  0.00    +0.007 C 
ATOM     25  C   UNL     1       5.194   1.462  -1.123  0.00  0.00    +0.035 C 
ATOM     26  C   UNL     1       4.042   0.941  -1.942  0.00  0.00    -0.042 A 
ATOM     27  C   UNL     1       2.768   0.817  -1.434  0.00  0.00    -0.024 A 
ATOM     28  C   UNL     1       1.749   0.335  -2.245  0.00  0.00    +0.006 A 
ATOM     29  C   UNL     1       2.002  -0.022  -3.553  0.00  0.00    +0.000 A 
ATOM     30  C   UNL     1       3.282   0.099  -4.062  0.00  0.00    +0.000 A 
ATOM     31  C   UNL     1       4.296   0.579  -3.259  0.00  0.00    +0.004 A 
ENDBRANCH  20  22
ENDBRANCH  17  18
ENDBRANCH   5  17
TORSDOF 4
