REMARK  Name = ZINC02790433
REMARK  7 active torsions:
REMARK  status: ('A' for Active; 'I' for Inactive)
REMARK    1  A    between atoms: C_1  and  N_2
REMARK    2  A    between atoms: N_2  and  C_3
REMARK    3  A    between atoms: N_2  and  C_4
REMARK    4  A    between atoms: C_7  and  C_10
REMARK    5  A    between atoms: N_12  and  N_13
REMARK    6  A    between atoms: C_14  and  C_15
REMARK    7  A    between atoms: C_24  and  O_25
REMARK                            x       y       z     vdW  Elec       q    Type
REMARK                         _______ _______ _______ _____ _____    ______ ____
ROOT
ATOM      1  N   UNL     1      -0.023  -2.810  -7.275  0.00  0.00    -0.187 NA
ATOM      2  C   UNL     1      -0.038  -2.154  -8.397  0.00  0.00    +0.142 C 
ENDROOT
BRANCH   2   3
ATOM      3  C   UNL     1      -0.039  -2.882  -9.674  0.00  0.00    +0.044 A 
ATOM      4  C   UNL     1      -0.049  -2.160 -10.945  0.00  0.00    -0.006 A 
ATOM      5  C   UNL     1      -0.058  -0.760 -10.991  0.00  0.00    +0.009 A 
ATOM      6  C   UNL     1      -0.067  -0.126 -12.197  0.00  0.00    +0.001 A 
ATOM      7  C   UNL     1      -0.068  -0.850 -13.387  0.00  0.00    +0.001 A 
ATOM      8  C   UNL     1      -0.061  -2.212 -13.378  0.00  0.00    +0.008 A 
ATOM      9  C   UNL     1      -0.050  -2.900 -12.153  0.00  0.00    -0.017 A 
ATOM     10  C   UNL     1      -0.041  -4.305 -12.105  0.00  0.00    +0.012 A 
ATOM     11  C   UNL     1      -0.032  -4.960 -10.914  0.00  0.00    +0.046 A 
ATOM     12  C   UNL     1      -0.025  -4.276  -9.699  0.00  0.00    +0.126 A 
BRANCH  12  13
ATOM     13  O   UNL     1      -0.010  -4.972  -8.534  0.00  0.00    -0.506 OA
ATOM     14  H   UNL     1      -0.889  -5.182  -8.189  0.00  0.00    +0.292 HD
ENDBRANCH  12  13
ENDBRANCH   2   3
BRANCH   1  17
ATOM     15  C   UNL     1      -0.006  -2.796  -4.895  0.00  0.00    +0.263 C 
ATOM     16  O   UNL     1       0.006  -4.012  -4.901  0.00  0.00    -0.268 OA
ATOM     17  N   UNL     1      -0.021  -2.116  -6.058  0.00  0.00    -0.203 N 
ATOM     18  H   UNL     1      -0.031  -1.146  -6.053  0.00  0.00    +0.178 HD
BRANCH  15  22
ATOM     19  C   UNL     1       0.000  -0.693  -1.206  0.00  0.00    +0.029 A 
ATOM     20  C   UNL     1       0.013  -2.085  -1.212  0.00  0.00    +0.024 A 
ATOM     21  C   UNL     1       0.011  -2.769  -2.406  0.00  0.00    +0.015 A 
ATOM     22  C   UNL     1      -0.005  -2.066  -3.614  0.00  0.00    +0.038 A 
ATOM     23  C   UNL     1      -0.018  -0.667  -3.604  0.00  0.00    +0.015 A 
ATOM     24  C   UNL     1      -0.021   0.011  -2.407  0.00  0.00    +0.024 A 
BRANCH  19  26
ATOM     25  C   UNL     1      -0.018   1.461   0.010  0.00  0.00    +0.129 C 
ATOM     26  N   UNL     1       0.002  -0.004   0.002  0.00  0.00    -0.336 N 
ATOM     27  C   UNL     1       0.024  -0.743   1.267  0.00  0.00    +0.129 C 
ENDBRANCH  19  26
ENDBRANCH  15  22
ENDBRANCH   1  17
TORSDOF 5
