REMARK  Name = ZINC14888966
REMARK  11 active torsions:
REMARK  status: ('A' for Active; 'I' for Inactive)
REMARK    1  A    between atoms: C_1  and  C_2
REMARK    2  A    between atoms: C_2  and  O_3
REMARK    3  A    between atoms: O_3  and  C_4
REMARK    4  A    between atoms: C_9  and  N_12
REMARK    5  A    between atoms: C_13  and  C_15
REMARK    6  A    between atoms: C_23  and  C_24
REMARK    7  A    between atoms: C_23  and  N_71
REMARK    8  A    between atoms: C_24  and  C_25
REMARK    9  A    between atoms: C_25  and  C_27
REMARK   10  A    between atoms: C_25  and  C_28
REMARK   11  A    between atoms: C_31  and  C_33
REMARK                            x       y       z     vdW  Elec       q    Type
REMARK                         _______ _______ _______ _____ _____    ______ ____
ROOT
ATOM      1  C   UNL     1       1.282  -0.869  10.422  0.00  0.00    +0.082 C 
ATOM      2  C   UNL     1       1.860  -2.253  10.122  0.00  0.00    +0.020 C 
ATOM      3  C   UNL     1       0.786  -1.660   9.213  0.00  0.00    -0.021 C 
ATOM      4  C   UNL     1      -0.622  -2.261   9.281  0.00  0.00    -0.011 C 
ATOM      5  C   UNL     1      -1.606  -1.278   8.639  0.00  0.00    -0.078 C 
ATOM      6  C   UNL     1       0.118  -0.260   7.266  0.00  0.00    -0.078 C 
ATOM      7  C   UNL     1       1.211  -1.179   7.822  0.00  0.00    -0.011 C 
ATOM      8  N   UNL     1      -1.165  -0.996   7.256  0.00  0.00    +0.380 N 
ATOM      9  H   UNL     1      -1.033  -1.886   6.762  0.00  0.00    -0.082 HD
ENDROOT
BRANCH   1  11
ATOM     10  N   UNL     1      -0.572   0.237  11.629  0.00  0.00    -0.312 N 
ATOM     11  C   UNL     1       0.352  -0.744  11.601  0.00  0.00    +0.217 C 
ATOM     12  O   UNL     1       0.435  -1.525  12.524  0.00  0.00    -0.275 OA
ATOM     13  H   UNL     1      -0.638   0.863  10.891  0.00  0.00    +0.149 HD
BRANCH  10  19
ATOM     14  C   UNL     1      -5.248   1.326  14.083  0.00  0.00    +0.403 C 
ATOM     15  O   UNL     1      -5.528   2.497  14.253  0.00  0.00    -0.226 OA
ATOM     16  N   UNL     1      -3.958   0.947  13.999  0.00  0.00    -0.267 N 
ATOM     17  C   UNL     1      -2.878   1.937  14.111  0.00  0.00    +0.113 C 
ATOM     18  C   UNL     1      -1.960   1.806  12.892  0.00  0.00    +0.041 C 
ATOM     19  C   UNL     1      -1.476   0.359  12.775  0.00  0.00    +0.076 C 
ATOM     20  C   UNL     1      -2.678  -0.568  12.577  0.00  0.00    +0.041 C 
ATOM     21  C   UNL     1      -3.604  -0.464  13.793  0.00  0.00    +0.113 C 
BRANCH  14  22
ATOM     22  O   UNL     1      -6.228   0.409  13.978  0.00  0.00    -0.451 OA
BRANCH  22  24
ATOM     23  C   UNL     1      -8.560  -0.289  13.936  0.00  0.00    +0.048 C 
ATOM     24  C   UNL     1      -7.595   0.889  14.078  0.00  0.00    +0.230 C 
ENDBRANCH  22  24
ENDBRANCH  14  22
ENDBRANCH  10  19
ENDBRANCH   1  11
BRANCH   8  25
ATOM     25  C   UNL     1      -2.193  -0.205   6.551  0.00  0.00    -0.078 C 
BRANCH  25  26
ATOM     26  C   UNL     1      -2.359   1.170   7.202  0.00  0.00    -0.008 C 
BRANCH  26  27
ATOM     27  C   UNL     1      -3.517   1.915   6.534  0.00  0.00    +0.050 C 
ATOM     28  C   UNL     1      -3.164   2.199   5.073  0.00  0.00    +0.015 C 
BRANCH  27  29
ATOM     29  C   UNL     1      -3.760   3.215   7.255  0.00  0.00    +0.108 A 
ATOM     30  C   UNL     1      -4.905   3.576   7.862  0.00  0.00    +0.045 A 
ATOM     31  C   UNL     1      -4.691   4.862   8.408  0.00  0.00    +0.044 A 
ATOM     32  C   UNL     1      -3.430   5.214   8.096  0.00  0.00    +0.102 A 
ATOM     33  O   UNL     1      -2.870   4.211   7.400  0.00  0.00    -0.465 OA
ATOM     34  C   UNL     1      -2.759   6.510   8.469  0.00  0.00    +0.086 C 
ENDBRANCH  27  29
ENDBRANCH  26  27
ENDBRANCH  25  26
ENDBRANCH   8  25
TORSDOF 8
