REMARK  Name = ZINC50286431
REMARK  3 active torsions:
REMARK  status: ('A' for Active; 'I' for Inactive)
REMARK    1  A    between atoms: C_1  and  N_2
REMARK    2  A    between atoms: C_9  and  C_11
REMARK    3  A    between atoms: N_13  and  C_16
REMARK                            x       y       z     vdW  Elec       q    Type
REMARK                         _______ _______ _______ _____ _____    ______ ____
ROOT
ATOM      1  C   UNL     1       0.094  -3.793   4.218  0.00  0.00    +0.172 C 
ATOM      2  C   UNL     1       1.491  -3.933   4.792  0.00  0.00    +0.101 C 
ATOM      3  N   UNL     1       1.353  -3.599   6.123  0.00  0.00    -0.278 N 
ATOM      4  C   UNL     1       0.052  -3.282   6.395  0.00  0.00    +0.160 C 
ATOM      5  N   UNL     1      -0.722  -3.370   5.367  0.00  0.00    -0.366 N 
ATOM      6  N   UNL     1       2.569  -4.286   4.173  0.00  0.00    -0.388 N 
ATOM      7  H   UNL     1       2.537  -4.498   3.227  0.00  0.00    +0.157 HD
ATOM      8  H   UNL     1       3.409  -4.339   4.654  0.00  0.00    +0.157 HD
ATOM      9  H   UNL     1      -1.675  -3.189   5.353  0.00  0.00    +0.161 HD
ENDROOT
BRANCH   1  18
ATOM     10  C   UNL     1      -0.018   1.461   0.010  0.00  0.00    +0.129 C 
ATOM     11  N   UNL     1       0.002  -0.004   0.002  0.00  0.00    -0.332 N 
ATOM     12  C   UNL     1       0.008  -0.837  -1.204  0.00  0.00    +0.109 C 
ATOM     13  C   UNL     1       0.030  -2.287  -0.692  0.00  0.00    +0.056 C 
ATOM     14  C   UNL     1       0.035  -2.157   0.815  0.00  0.00    -0.025 A 
ATOM     15  C   UNL     1       0.024  -0.810   1.141  0.00  0.00    +0.033 A 
ATOM     16  C   UNL     1       0.031  -0.439   2.488  0.00  0.00    +0.024 A 
ATOM     17  C   UNL     1       0.054  -1.402   3.474  0.00  0.00    +0.008 A 
ATOM     18  C   UNL     1       0.069  -2.743   3.138  0.00  0.00    -0.018 A 
ATOM     19  C   UNL     1       0.052  -3.118   1.807  0.00  0.00    +0.011 A 
ENDBRANCH   1  18
BRANCH   3  20
ATOM     20  C   UNL     1       2.442  -3.585   7.102  0.00  0.00    +0.081 C 
ATOM     21  C   UNL     1       2.068  -3.386   8.572  0.00  0.00    +0.025 C 
ATOM     22  C   UNL     1       2.752  -2.258   7.796  0.00  0.00    +0.025 C 
ENDBRANCH   3  20
TORSDOF 2
