REMARK  Name = ZINC12532494
REMARK  8 active torsions:
REMARK  status: ('A' for Active; 'I' for Inactive)
REMARK    1  A    between atoms: C_1  and  C_2
REMARK    2  A    between atoms: C_2  and  C_4
REMARK    3  A    between atoms: C_7  and  S_10
REMARK    4  A    between atoms: S_10  and  N_13
REMARK    5  A    between atoms: N_13  and  C_14
REMARK    6  A    between atoms: C_16  and  S_26
REMARK    7  A    between atoms: C_19  and  N_20
REMARK    8  A    between atoms: S_26  and  N_29
REMARK                            x       y       z     vdW  Elec       q    Type
REMARK                         _______ _______ _______ _____ _____    ______ ____
ROOT
ATOM      1  C   UNL     1       5.446  -0.818  -2.068  0.00  0.00    +0.071 A 
ATOM      2  C   UNL     1       5.000  -0.639  -0.767  0.00  0.00    +0.055 A 
ATOM      3  C   UNL     1       4.238  -1.618  -0.157  0.00  0.00    +0.107 A 
ATOM      4  C   UNL     1       3.921  -2.778  -0.839  0.00  0.00    +0.030 A 
ATOM      5  C   UNL     1       4.356  -2.962  -2.138  0.00  0.00    +0.027 A 
ATOM      6  C   UNL     1       5.122  -1.986  -2.758  0.00  0.00    +0.052 A 
ENDROOT
BRANCH   6   7
ATOM      7  N   UNL     1       5.567  -2.172  -4.072  0.00  0.00    -0.328 N 
ATOM      8  C   UNL     1       4.437  -2.238  -5.007  0.00  0.00    +0.105 C 
ATOM      9  C   UNL     1       4.963  -2.295  -6.443  0.00  0.00    +0.019 C 
ATOM     10  C   UNL     1       5.857  -3.528  -6.605  0.00  0.00    +0.003 C 
ATOM     11  C   UNL     1       6.999  -3.459  -5.588  0.00  0.00    +0.019 C 
ATOM     12  C   UNL     1       6.413  -3.368  -4.176  0.00  0.00    +0.105 C 
ENDBRANCH   6   7
BRANCH   3  13
ATOM     13  S   UNL     1       3.674  -1.389   1.496  0.00  0.00    +0.061 S 
ATOM     14  O   UNL     1       4.566  -0.466   2.105  0.00  0.00    -0.153 OA
ATOM     15  O   UNL     1       3.440  -2.686   2.029  0.00  0.00    -0.153 OA
BRANCH  13  16
ATOM     16  N   UNL     1       2.200  -0.638   1.412  0.00  0.00    -0.177 NA
ATOM     17  C   UNL     1       0.963  -1.426   1.335  0.00  0.00    +0.109 C 
ATOM     18  C   UNL     1       0.156  -0.960   0.119  0.00  0.00    +0.017 C 
ATOM     19  C   UNL     1      -0.065   0.552   0.208  0.00  0.00    +0.003 C 
ATOM     20  C   UNL     1       1.287   1.269   0.195  0.00  0.00    +0.017 C 
ATOM     21  C   UNL     1       2.106   0.828   1.412  0.00  0.00    +0.109 C 
ENDBRANCH  13  16
ENDBRANCH   3  13
BRANCH   1  22
ATOM     22  N   UNL     1       6.218   0.172  -2.688  0.00  0.00    -0.214 N 
ATOM     23  H   UNL     1       6.114   0.345  -3.637  0.00  0.00    +0.174 HD
BRANCH  22  24
ATOM     24  S   UNL     1       7.308   1.049  -1.802  0.00  0.00    +0.072 S 
ATOM     25  O   UNL     1       8.017   1.865  -2.723  0.00  0.00    -0.150 OA
ATOM     26  O   UNL     1       6.593   1.588  -0.698  0.00  0.00    -0.150 OA
BRANCH  24  30
ATOM     27  C   UNL     1      10.310  -1.884  -0.091  0.00  0.00    +0.017 A 
ATOM     28  C   UNL     1      10.535  -1.295  -1.339  0.00  0.00    +0.013 A 
ATOM     29  C   UNL     1       9.617  -0.404  -1.853  0.00  0.00    +0.029 A 
ATOM     30  C   UNL     1       8.475  -0.092  -1.137  0.00  0.00    +0.109 A 
ATOM     31  C   UNL     1       8.247  -0.666   0.102  0.00  0.00    +0.029 A 
ATOM     32  C   UNL     1       9.153  -1.563   0.626  0.00  0.00    +0.013 A 
BRANCH  27  34
ATOM     33  C   UNL     1      11.038  -3.469   1.809  0.00  0.00    +0.091 C 
ATOM     34  C   UNL     1      11.284  -2.837   0.464  0.00  0.00    +0.160 C 
ATOM     35  O   UNL     1      12.286  -3.113  -0.161  0.00  0.00    -0.292 OA
ENDBRANCH  27  34
ENDBRANCH  24  30
ENDBRANCH  22  24
ENDBRANCH   1  22
TORSDOF 7
