REMARK  Name = ZINC62038519
REMARK  7 active torsions:
REMARK  status: ('A' for Active; 'I' for Inactive)
REMARK    1  A    between atoms: C_1  and  C_2
REMARK    2  A    between atoms: C_5  and  O_33
REMARK    3  A    between atoms: C_6  and  N_8
REMARK    4  A    between atoms: C_9  and  C_11
REMARK    5  A    between atoms: C_11  and  S_12
REMARK    6  A    between atoms: S_12  and  C_13
REMARK    7  A    between atoms: C_18  and  C_23
REMARK                            x       y       z     vdW  Elec       q    Type
REMARK                         _______ _______ _______ _____ _____    ______ ____
ROOT
ATOM      1  C   UNL     1       0.535  -2.760   7.663  0.00  0.00    +0.171 A 
ATOM      2  N   UNL     1       0.544  -4.067   7.510  0.00  0.00    -0.185 NA
ATOM      3  C   UNL     1       0.652  -4.908   8.543  0.00  0.00    +0.283 A 
ATOM      4  O   UNL     1       0.657  -6.115   8.358  0.00  0.00    -0.265 OA
ATOM      5  C   UNL     1       0.765  -4.362   9.915  0.00  0.00    +0.080 A 
ATOM      6  C   UNL     1       0.892  -5.066  11.186  0.00  0.00    +0.004 A 
ATOM      7  C   UNL     1       0.982  -4.340  12.326  0.00  0.00    +0.056 A 
ATOM      8  S   UNL     1       0.900  -2.656  11.745  0.00  0.00    -0.078 S 
ATOM      9  C   UNL     1       0.749  -2.969  10.007  0.00  0.00    +0.093 A 
ATOM     10  N   UNL     1       0.641  -2.189   8.897  0.00  0.00    -0.328 N 
ATOM     11  H   UNL     1       0.636  -1.223   8.984  0.00  0.00    +0.168 HD
ENDROOT
BRANCH   6  12
ATOM     12  C   UNL     1       0.922  -6.547  11.230  0.00  0.00    -0.016 A 
ATOM     13  C   UNL     1      -0.049  -7.289  10.558  0.00  0.00    +0.009 A 
ATOM     14  C   UNL     1      -0.011  -8.664  10.609  0.00  0.00    +0.004 A 
ATOM     15  C   UNL     1       0.985  -9.322  11.322  0.00  0.00    -0.044 A 
ATOM     16  C   UNL     1       1.950  -8.594  11.984  0.00  0.00    -0.044 A 
ATOM     17  C   UNL     1       1.921  -7.208  11.936  0.00  0.00    +0.012 A 
ATOM     18  C   UNL     1       3.066  -9.243  12.761  0.00  0.00    +0.035 C 
ATOM     19  C   UNL     1       2.727 -10.700  13.070  0.00  0.00    +0.005 C 
ATOM     20  C   UNL     1       2.310 -11.388  11.765  0.00  0.00    +0.005 C 
ATOM     21  C   UNL     1       0.955 -10.828  11.338  0.00  0.00    +0.035 C 
ENDBRANCH   6  12
BRANCH   1  22
ATOM     22  S   UNL     1       0.390  -1.726   6.244  0.00  0.00    -0.078 S 
BRANCH  22  23
ATOM     23  C   UNL     1       0.279  -2.894   4.860  0.00  0.00    +0.173 C 
BRANCH  23  25
ATOM     24  N   UNL     1       0.050  -2.795   2.399  0.00  0.00    -0.282 N 
ATOM     25  C   UNL     1       0.149  -2.130   3.568  0.00  0.00    +0.228 C 
ATOM     26  O   UNL     1       0.134  -0.917   3.579  0.00  0.00    -0.275 OA
ATOM     27  H   UNL     1      -0.002  -3.763   2.395  0.00  0.00    +0.155 HD
BRANCH  24  33
ATOM     28  C   UNL     1      -1.307   1.189  -0.143  0.00  0.00    +0.044 C 
ATOM     29  C   UNL     1      -0.627  -0.153  -0.071  0.00  0.00    -0.048 A 
ATOM     30  C   UNL     1      -0.029  -0.685  -1.199  0.00  0.00    +0.007 A 
ATOM     31  C   UNL     1       0.596  -1.917  -1.139  0.00  0.00    +0.047 A 
ATOM     32  C   UNL     1       0.625  -2.622   0.054  0.00  0.00    +0.138 A 
ATOM     33  C   UNL     1       0.024  -2.086   1.191  0.00  0.00    +0.076 A 
ATOM     34  C   UNL     1      -0.597  -0.847   1.124  0.00  0.00    +0.030 A 
BRANCH  32  35
ATOM     35  O   UNL     1       1.239  -3.834   0.115  0.00  0.00    -0.505 OA
ATOM     36  H   UNL     1       2.177  -3.788   0.347  0.00  0.00    +0.292 HD
ENDBRANCH  32  35
ENDBRANCH  24  33
ENDBRANCH  23  25
ENDBRANCH  22  23
ENDBRANCH   1  22
TORSDOF 6
