REMARK  Name = ZINC41511615
REMARK  7 active torsions:
REMARK  status: ('A' for Active; 'I' for Inactive)
REMARK    1  A    between atoms: C_1  and  C_2
REMARK    2  A    between atoms: N_8  and  C_9
REMARK    3  A    between atoms: C_9  and  C_10
REMARK    4  A    between atoms: C_11  and  O_30
REMARK    5  A    between atoms: C_18  and  C_19
REMARK    6  A    between atoms: C_24  and  O_25
REMARK    7  A    between atoms: O_25  and  C_26
REMARK                            x       y       z     vdW  Elec       q    Type
REMARK                         _______ _______ _______ _____ _____    ______ ____
ROOT
ATOM      1  C   UNL     1       1.994  -0.947   2.860  0.00  0.00    +0.020 A 
ATOM      2  C   UNL     1       1.772  -0.258   4.041  0.00  0.00    +0.122 A 
ATOM      3  C   UNL     1       2.522  -0.542   5.179  0.00  0.00    +0.046 A 
ATOM      4  C   UNL     1       3.488  -1.508   5.140  0.00  0.00    +0.019 A 
ATOM      5  C   UNL     1       3.722  -2.210   3.958  0.00  0.00    +0.068 A 
ATOM      6  C   UNL     1       2.968  -1.936   2.805  0.00  0.00    +0.144 A 
ATOM      7  O   UNL     1       3.369  -2.740   1.797  0.00  0.00    -0.451 OA
ATOM      8  C   UNL     1       4.365  -3.572   2.182  0.00  0.00    +0.176 C 
ATOM      9  C   UNL     1       4.982  -4.498   1.405  0.00  0.00    +0.061 C 
ATOM     10  C   UNL     1       4.665  -3.283   3.592  0.00  0.00    +0.231 C 
ATOM     11  O   UNL     1       5.497  -3.819   4.303  0.00  0.00    -0.283 OA
ENDROOT
BRANCH   9  12
ATOM     12  C   UNL     1       4.519  -4.730   0.032  0.00  0.00    +0.021 A 
ATOM     13  C   UNL     1       3.709  -3.784  -0.608  0.00  0.00    +0.027 A 
ATOM     14  C   UNL     1       3.279  -4.009  -1.897  0.00  0.00    +0.019 A 
ATOM     15  C   UNL     1       3.643  -5.168  -2.565  0.00  0.00    +0.019 A 
ATOM     16  C   UNL     1       4.442  -6.110  -1.946  0.00  0.00    +0.047 A 
ATOM     17  C   UNL     1       4.890  -5.900  -0.652  0.00  0.00    +0.127 A 
ATOM     18 BR   UNL     1       2.185  -2.731  -2.761  0.00  0.00    -0.050 Br
BRANCH  17  19
ATOM     19  O   UNL     1       5.679  -6.823  -0.045  0.00  0.00    -0.495 OA
ATOM     20  C   UNL     1       6.015  -7.987  -0.802  0.00  0.00    +0.277 C 
ENDBRANCH  17  19
ENDBRANCH   9  12
BRANCH   2  21
ATOM     21  O   UNL     1       0.815   0.704   4.090  0.00  0.00    -0.506 OA
ATOM     22  H   UNL     1      -0.059   0.377   4.345  0.00  0.00    +0.292 HD
ENDBRANCH   2  21
BRANCH   1  23
ATOM     23  C   UNL     1       1.173  -0.629   1.636  0.00  0.00    -0.035 C 
BRANCH  23  30
ATOM     24  C   UNL     1      -1.223   0.411   0.608  0.00  0.00    -0.013 C 
ATOM     25  C   UNL     1      -0.886  -1.077   0.496  0.00  0.00    -0.071 C 
ATOM     26  C   UNL     1      -2.179  -1.896   0.523  0.00  0.00    -0.016 C 
ATOM     27  C   UNL     1      -1.837  -3.385   0.411  0.00  0.00    -0.003 C 
ATOM     28  C   UNL     1      -0.883  -3.766   1.547  0.00  0.00    -0.019 C 
ATOM     29  C   UNL     1       0.361  -2.878   1.481  0.00  0.00    -0.078 C 
ATOM     30  N   UNL     1      -0.030  -1.471   1.621  0.00  0.00    +0.384 N 
ATOM     31  H   UNL     1      -0.535  -1.347   2.486  0.00  0.00    -0.081 HD
ENDBRANCH  23  30
ENDBRANCH   1  23
TORSDOF 5
