REMARK  Name = ZINC03239963
REMARK  11 active torsions:
REMARK  status: ('A' for Active; 'I' for Inactive)
REMARK    1  A    between atoms: C_1  and  C_2
REMARK    2  A    between atoms: C_2  and  C_3
REMARK    3  A    between atoms: C_6  and  N_9
REMARK    4  A    between atoms: C_10  and  C_12
REMARK    5  A    between atoms: C_12  and  C_14
REMARK    6  A    between atoms: C_12  and  O_15
REMARK    7  A    between atoms: O_15  and  C_16
REMARK    8  A    between atoms: C_16  and  C_18
REMARK    9  A    between atoms: C_21  and  N_24
REMARK   10  A    between atoms: N_24  and  S_25
REMARK   11  A    between atoms: S_25  and  C_28
REMARK                            x       y       z     vdW  Elec       q    Type
REMARK                         _______ _______ _______ _____ _____    ______ ____
ROOT
ATOM      1  C   UNL     1       4.913   1.950  -4.268  0.00  0.00    +0.059 A 
ATOM      2  C   UNL     1       5.652   0.765  -4.353  0.00  0.00    +0.017 A 
ATOM      3  C   UNL     1       5.415  -0.254  -3.467  0.00  0.00    +0.025 A 
ATOM      4  C   UNL     1       4.440  -0.111  -2.483  0.00  0.00    +0.048 A 
ATOM      5  C   UNL     1       3.698   1.065  -2.400  0.00  0.00    +0.025 A 
ATOM      6  C   UNL     1       3.934   2.090  -3.280  0.00  0.00    +0.017 A 
ENDROOT
BRANCH   1   7
ATOM      7  C   UNL     1       5.165   3.048  -5.218  0.00  0.00    +0.340 C 
ATOM      8  O   UNL     1       6.017   2.925  -6.077  0.00  0.00    -0.245 OA
BRANCH   7   9
ATOM      9  O   UNL     1       4.452   4.188  -5.136  0.00  0.00    -0.449 OA
BRANCH   9  10
ATOM     10  C   UNL     1       4.755   5.226  -6.104  0.00  0.00    +0.259 C 
ATOM     11  C   UNL     1       3.876   5.040  -7.343  0.00  0.00    +0.062 C 
BRANCH  10  13
ATOM     12  N   UNL     1       4.694   7.697  -6.214  0.00  0.00    -0.282 N 
ATOM     13  C   UNL     1       4.483   6.577  -5.494  0.00  0.00    +0.258 C 
ATOM     14  O   UNL     1       4.075   6.657  -4.354  0.00  0.00    -0.271 OA
ATOM     15  H   UNL     1       5.084   7.637  -7.100  0.00  0.00    +0.155 HD
BRANCH  12  19
ATOM     16  C   UNL     1       3.671  11.414  -4.634  0.00  0.00    -0.048 A 
ATOM     17  C   UNL     1       4.158  10.421  -3.803  0.00  0.00    +0.005 A 
ATOM     18  C   UNL     1       4.498   9.188  -4.324  0.00  0.00    +0.023 A 
ATOM     19  C   UNL     1       4.350   8.945  -5.683  0.00  0.00    +0.034 A 
ATOM     20  C   UNL     1       3.866   9.946  -6.515  0.00  0.00    +0.023 A 
ATOM     21  C   UNL     1       3.523  11.175  -5.988  0.00  0.00    +0.005 A 
BRANCH  16  23
ATOM     22  C   UNL     1       4.520  13.681  -4.098  0.00  0.00    +0.009 C 
ATOM     23  C   UNL     1       3.300  12.758  -4.062  0.00  0.00    +0.032 C 
ENDBRANCH  16  23
ENDBRANCH  12  19
ENDBRANCH  10  13
ENDBRANCH   9  10
ENDBRANCH   7   9
ENDBRANCH   1   7
BRANCH   4  24
ATOM     24  N   UNL     1       4.202  -1.146  -1.587  0.00  0.00    -0.216 N 
ATOM     25  H   UNL     1       3.404  -1.690  -1.675  0.00  0.00    +0.174 HD
BRANCH  24  26
ATOM     26  S   UNL     1       5.282  -1.450  -0.368  0.00  0.00    +0.072 S 
ATOM     27  O   UNL     1       6.565  -1.528  -0.973  0.00  0.00    -0.150 OA
ATOM     28  O   UNL     1       4.736  -2.512   0.402  0.00  0.00    -0.150 OA
BRANCH  26  29
ATOM     29  C   UNL     1       5.302  -0.030   0.676  0.00  0.00    +0.112 A 
ATOM     30  C   UNL     1       4.362   0.101   1.680  0.00  0.00    +0.032 A 
ATOM     31  C   UNL     1       4.374   1.214   2.500  0.00  0.00    +0.051 A 
ATOM     32  C   UNL     1       5.330   2.202   2.316  0.00  0.00    +0.162 A 
ATOM     33  C   UNL     1       6.276   2.069   1.308  0.00  0.00    +0.164 A 
ATOM     34  C   UNL     1       6.258   0.950   0.488  0.00  0.00    +0.078 A 
ATOM     35  O   UNL     1       7.228   3.023   1.115  0.00  0.00    -0.485 OA
ATOM     36  C   UNL     1       6.987   4.302   1.711  0.00  0.00    +0.270 C 
ATOM     37  C   UNL     1       6.522   4.080   3.157  0.00  0.00    +0.270 C 
ATOM     38  O   UNL     1       5.324   3.296   3.126  0.00  0.00    -0.485 OA
ENDBRANCH  26  29
ENDBRANCH  24  26
ENDBRANCH   4  24
TORSDOF 9
