REMARK  Name = ZINC50323429
REMARK  5 active torsions:
REMARK  status: ('A' for Active; 'I' for Inactive)
REMARK    1  A    between atoms: C_1  and  C_2
REMARK    2  A    between atoms: C_5  and  C_22
REMARK    3  A    between atoms: C_10  and  C_12
REMARK    4  A    between atoms: C_13  and  N_21
REMARK    5  A    between atoms: C_14  and  C_18
REMARK                            x       y       z     vdW  Elec       q    Type
REMARK                         _______ _______ _______ _____ _____    ______ ____
ROOT
ATOM      1  C   UNL     1       3.070  -2.116   1.357  0.00  0.00    +0.141 A 
ATOM      2  C   UNL     1       3.725  -1.474   2.405  0.00  0.00    +0.078 A 
ATOM      3  C   UNL     1       4.953  -1.054   1.869  0.00  0.00    +0.087 A 
ATOM      4  N   UNL     1       4.994  -1.427   0.617  0.00  0.00    -0.176 NA
ATOM      5  N   UNL     1       3.923  -2.052   0.282  0.00  0.00    -0.271 N 
ATOM      6  H   UNL     1       3.742  -2.419  -0.597  0.00  0.00    +0.189 HD
ENDROOT
BRANCH   1  14
ATOM      7  C   UNL     1      -0.046   1.602   0.316  0.00  0.00    +0.009 C 
ATOM      8  C   UNL     1      -0.030   0.075   0.216  0.00  0.00    +0.004 C 
ATOM      9  C   UNL     1      -1.466  -0.454   0.238  0.00  0.00    +0.009 C 
ATOM     10  C   UNL     1      -1.451  -1.978   0.105  0.00  0.00    +0.004 C 
ATOM     11  C   UNL     1      -0.695  -2.583   1.293  0.00  0.00    +0.111 C 
ATOM     12  N   UNL     1       0.638  -1.971   1.365  0.00  0.00    -0.296 N 
ATOM     13  C   UNL     1       0.743  -0.506   1.404  0.00  0.00    +0.111 C 
ATOM     14  C   UNL     1       1.746  -2.740   1.395  0.00  0.00    +0.266 C 
ATOM     15  O   UNL     1       1.644  -3.951   1.454  0.00  0.00    -0.268 OA
ATOM     16  C   UNL     1      -0.754  -2.371  -1.198  0.00  0.00    +0.009 C 
ENDBRANCH   1  14
BRANCH   3  17
ATOM     17  C   UNL     1       6.033  -0.305   2.607  0.00  0.00    +0.041 C 
ATOM     18  C   UNL     1       7.206   0.233   1.786  0.00  0.00    +0.010 C 
ATOM     19  C   UNL     1       7.407  -0.969   2.711  0.00  0.00    +0.010 C 
ENDBRANCH   3  17
BRANCH   2  20
ATOM     20  N   UNL     1       3.260  -1.288   3.706  0.00  0.00    -0.355 N 
ATOM     21  H   UNL     1       2.388  -1.626   3.962  0.00  0.00    +0.142 HD
ATOM     22  H   UNL     1       3.810  -0.822   4.355  0.00  0.00    +0.142 HD
ENDBRANCH   2  20
TORSDOF 3
