REMARK  Name = ZINC13973043
REMARK  7 active torsions:
REMARK  status: ('A' for Active; 'I' for Inactive)
REMARK    1  A    between atoms: C_1  and  C_2
REMARK    2  A    between atoms: C_2  and  O_3
REMARK    3  A    between atoms: O_3  and  C_4
REMARK    4  A    between atoms: C_12  and  N_17
REMARK    5  A    between atoms: C_13  and  C_14
REMARK    6  A    between atoms: C_18  and  C_20
REMARK    7  A    between atoms: C_20  and  C_21
REMARK                            x       y       z     vdW  Elec       q    Type
REMARK                         _______ _______ _______ _____ _____    ______ ____
ROOT
ATOM      1  C   UNL     1       2.122  11.625   8.700  0.00  0.00    +0.403 C 
ATOM      2  O   UNL     1       2.284  12.758   9.107  0.00  0.00    -0.226 OA
ATOM      3  N   UNL     1       1.288  11.392   7.668  0.00  0.00    -0.262 N 
ATOM      4  C   UNL     1       0.560  12.489   7.012  0.00  0.00    +0.116 C 
ATOM      5  C   UNL     1       1.028  12.620   5.562  0.00  0.00    +0.056 C 
ATOM      6  C   UNL     1       1.038  11.243   4.911  0.00  0.00    -0.020 A 
ATOM      7  C   UNL     1       1.060  10.115   5.655  0.00  0.00    +0.013 A 
ATOM      8  S   UNL     1       1.067   8.793   4.479  0.00  0.00    -0.076 S 
ATOM      9  C   UNL     1       1.040   9.722   3.016  0.00  0.00    +0.084 A 
ATOM     10  C   UNL     1       1.032  11.031   3.473  0.00  0.00    +0.068 A 
ATOM     11  C   UNL     1       1.071  10.026   7.151  0.00  0.00    +0.153 C 
ENDROOT
BRANCH  10  12
ATOM     12  C   UNL     1       1.015  12.162   2.539  0.00  0.00    +0.244 C 
ATOM     13  O   UNL     1      -0.046  12.622   2.160  0.00  0.00    -0.270 OA
ATOM     14  N   UNL     1       2.174  12.691   2.101  0.00  0.00    -0.325 N 
ATOM     15  H   UNL     1       3.020  12.325   2.403  0.00  0.00    +0.145 HD
ATOM     16  H   UNL     1       2.163  13.439   1.483  0.00  0.00    +0.145 HD
ENDBRANCH  10  12
BRANCH   9  17
ATOM     17  N   UNL     1       1.034   9.266   1.706  0.00  0.00    -0.279 N 
ATOM     18  C   UNL     1       1.050   7.942   1.453  0.00  0.00    +0.222 C 
ATOM     19  O   UNL     1       1.069   7.149   2.371  0.00  0.00    -0.275 OA
ATOM     20  H   UNL     1       1.019   9.900   0.972  0.00  0.00    +0.155 HD
BRANCH  18  21
ATOM     21  C   UNL     1       1.044   7.447   0.030  0.00  0.00    +0.131 C 
BRANCH  21  22
ATOM     22  C   UNL     1       1.064   5.940   0.022  0.00  0.00    -0.038 A 
ATOM     23  C   UNL     1       2.286   5.270   0.008  0.00  0.00    +0.005 A 
ATOM     24  C   UNL     1       2.340   3.910  -0.000  0.00  0.00    +0.009 A 
ATOM     25  C   UNL     1       1.147   3.167   0.008  0.00  0.00    -0.018 A 
ATOM     26  C   UNL     1       1.163   1.762   0.000  0.00  0.00    +0.008 A 
ATOM     27  C   UNL     1      -0.013   1.076   0.008  0.00  0.00    +0.001 A 
ATOM     28  C   UNL     1      -1.235   1.746   0.017  0.00  0.00    +0.001 A 
ATOM     29  C   UNL     1      -1.288   3.106   0.030  0.00  0.00    +0.008 A 
ATOM     30  C   UNL     1      -0.096   3.849   0.023  0.00  0.00    -0.018 A 
ATOM     31  C   UNL     1      -0.111   5.254   0.030  0.00  0.00    +0.012 A 
ENDBRANCH  21  22
ENDBRANCH  18  21
ENDBRANCH   9  17
BRANCH   1  32
ATOM     32  O   UNL     1       2.777  10.602   9.281  0.00  0.00    -0.451 OA
BRANCH  32  34
ATOM     33  C   UNL     1       4.309   9.646  10.915  0.00  0.00    +0.048 C 
ATOM     34  C   UNL     1       3.659  10.927  10.388  0.00  0.00    +0.230 C 
ENDBRANCH  32  34
ENDBRANCH   1  32
TORSDOF 6
