REMARK  Name = ZINC36692010
REMARK  12 active torsions:
REMARK  status: ('A' for Active; 'I' for Inactive)
REMARK    1  A    between atoms: C_1  and  C_2
REMARK    2  A    between atoms: C_2  and  C_3
REMARK    3  A    between atoms: C_3  and  C_4
REMARK    4  A    between atoms: C_4  and  C_5
REMARK    5  A    between atoms: C_5  and  C_6
REMARK    6  A    between atoms: C_6  and  C_8
REMARK    7  A    between atoms: C_6  and  N_9
REMARK    8  A    between atoms: C_10  and  C_12
REMARK    9  A    between atoms: C_12  and  N_13
REMARK   10  A    between atoms: C_18  and  C_25
REMARK   11  A    between atoms: C_21  and  C_23
REMARK   12  A    between atoms: C_21  and  C_24
REMARK                            x       y       z     vdW  Elec       q    Type
REMARK                         _______ _______ _______ _____ _____    ______ ____
ROOT
ATOM      1  N   UNL     1      -1.117  -7.824  -1.508  0.00  0.00    -0.215 N 
ATOM      2  C   UNL     1      -1.007  -8.955  -2.235  0.00  0.00    +0.247 C 
ATOM      3  O   UNL     1      -0.682  -9.051  -3.399  0.00  0.00    -0.273 OA
ATOM      4  C   UNL     1      -1.374 -10.078  -1.292  0.00  0.00    +0.113 C 
ATOM      5  C   UNL     1      -0.197 -11.031  -1.117  0.00  0.00    +0.038 C 
ATOM      6  C   UNL     1      -0.579 -12.143  -0.136  0.00  0.00    -0.011 C 
ATOM      7  C   UNL     1      -1.795 -12.900  -0.674  0.00  0.00    +0.009 C 
ATOM      8  C   UNL     1      -2.974 -11.936  -0.822  0.00  0.00    -0.032 C 
ATOM      9  C   UNL     1      -2.601 -10.824  -1.806  0.00  0.00    +0.041 C 
ATOM     10  C   UNL     1      -3.305 -11.322   0.540  0.00  0.00    +0.011 C 
ATOM     11  C   UNL     1      -4.192 -12.696  -1.349  0.00  0.00    +0.011 C 
ATOM     12  C   UNL     1       0.596 -13.110   0.022  0.00  0.00    +0.007 C 
ATOM     13  N   UNL     1      -1.678  -9.397  -0.027  0.00  0.00    -0.285 N 
ATOM     14  C   UNL     1      -1.495  -8.081  -0.250  0.00  0.00    +0.310 C 
ATOM     15  O   UNL     1      -1.657  -7.224   0.596  0.00  0.00    -0.252 OA
ATOM     16  H   UNL     1      -1.952  -9.812   0.805  0.00  0.00    +0.151 HD
ENDROOT
BRANCH   1  17
ATOM     17  C   UNL     1      -0.852  -6.481  -2.030  0.00  0.00    +0.213 C 
BRANCH  17  19
ATOM     18  N   UNL     1       1.079  -4.947  -2.230  0.00  0.00    -0.311 N 
ATOM     19  C   UNL     1       0.602  -6.141  -1.825  0.00  0.00    +0.231 C 
ATOM     20  O   UNL     1       1.343  -6.942  -1.295  0.00  0.00    -0.274 OA
ATOM     21  H   UNL     1       0.486  -4.307  -2.654  0.00  0.00    +0.149 HD
BRANCH  18  22
ATOM     22  C   UNL     1       2.492  -4.617  -2.030  0.00  0.00    +0.070 C 
ATOM     23  C   UNL     1       3.315  -5.175  -3.192  0.00  0.00    +0.028 C 
BRANCH  22  24
ATOM     24  C   UNL     1       2.657  -3.097  -1.972  0.00  0.00    +0.022 C 
BRANCH  24  25
ATOM     25  C   UNL     1       1.935  -2.552  -0.738  0.00  0.00    +0.002 C 
BRANCH  25  26
ATOM     26  C   UNL     1       2.100  -1.032  -0.679  0.00  0.00    -0.000 C 
BRANCH  26  28
ATOM     27  C   UNL     1       1.544   1.032   0.613  0.00  0.00    +0.004 C 
ATOM     28  C   UNL     1       1.379  -0.488   0.555  0.00  0.00    -0.003 C 
ENDBRANCH  26  28
ENDBRANCH  25  26
ENDBRANCH  24  25
ENDBRANCH  22  24
ENDBRANCH  18  22
ENDBRANCH  17  19
ENDBRANCH   1  17
TORSDOF 7
