REMARK  Name = ZINC13237220
REMARK  10 active torsions:
REMARK  status: ('A' for Active; 'I' for Inactive)
REMARK    1  A    between atoms: C_1  and  C_2
REMARK    2  A    between atoms: C_2  and  C_4
REMARK    3  A    between atoms: C_2  and  C_28
REMARK    4  A    between atoms: C_4  and  N_5
REMARK    5  A    between atoms: C_6  and  C_8
REMARK    6  A    between atoms: C_8  and  N_9
REMARK    7  A    between atoms: N_12  and  CA_13
REMARK    8  A    between atoms: CA_13  and  CB_15
REMARK    9  A    between atoms: CA_13  and  C_26
REMARK   10  A    between atoms: CB_15  and  CG_16
REMARK                            x       y       z     vdW  Elec       q    Type
REMARK                         _______ _______ _______ _____ _____    ______ ____
ROOT
ATOM      1  N   UNK A   0       3.583   1.399  -0.694  0.00  0.00    -0.291 N 
ATOM      2  C   UNK A   0       2.318   0.933  -0.685  0.00  0.00    +0.301 C 
ATOM      3  O   UNK A   0       2.041  -0.084  -1.291  0.00  0.00    -0.253 OA
ATOM      4  N   TRP A   1       1.362   1.593  -0.002  0.00  0.00    -0.286 N 
ATOM      5  H   UNK A   0       3.804   2.210  -0.210  0.00  0.00    +0.151 HD
ATOM      6  H   TRP A   1       1.583   2.404   0.482  0.00  0.00    +0.151 HD
ENDROOT
BRANCH   1   7
ATOM      7  C   UNK A   0       4.623   0.682  -1.436  0.00  0.00    +0.201 C 
BRANCH   7   9
ATOM      8  N   UNK A   0       7.043   0.924  -1.887  0.00  0.00    -0.313 N 
ATOM      9  C   UNK A   0       5.936   1.405  -1.286  0.00  0.00    +0.230 C 
ATOM     10  O   UNK A   0       5.998   2.420  -0.626  0.00  0.00    -0.274 OA
ATOM     11  H   UNK A   0       6.994   0.112  -2.416  0.00  0.00    +0.149 HD
BRANCH   8  12
ATOM     12  C   UNK A   0       8.319   1.628  -1.742  0.00  0.00    +0.112 C 
BRANCH  12  14
ATOM     13  C   UNK A   0       9.087   0.922  -4.012  0.00  0.00    +0.014 C 
ATOM     14  C   UNK A   0       9.405   0.878  -2.516  0.00  0.00    +0.033 C 
BRANCH  14  15
ATOM     15  C   UNK A   0      10.741   1.531  -2.268  0.00  0.00    -0.043 A 
ATOM     16  C   UNK A   0      10.940   2.853  -2.618  0.00  0.00    +0.004 A 
ATOM     17  C   UNK A   0      12.163   3.454  -2.386  0.00  0.00    +0.000 A 
ATOM     18  C   UNK A   0      13.191   2.728  -1.812  0.00  0.00    +0.000 A 
ATOM     19  C   UNK A   0      12.994   1.405  -1.467  0.00  0.00    +0.000 A 
ATOM     20  C   UNK A   0      11.769   0.806  -1.695  0.00  0.00    +0.004 A 
ENDBRANCH  14  15
ENDBRANCH  12  14
ENDBRANCH   8  12
ENDBRANCH   7   9
ENDBRANCH   1   7
BRANCH   4  21
ATOM     21  CA  TRP A   1      -0.013   1.086   0.008  0.00  0.00    +0.192 C 
BRANCH  21  22
ATOM     22  C   TRP A   1      -0.742   1.585  -1.213  0.00  0.00    +0.376 C 
ATOM     23  O   TRP A   1      -0.172   2.292  -2.010  0.00  0.00    -0.244 OA
ATOM     24  OXT TRP A   1      -2.024   1.244  -1.415  0.00  0.00    -0.244 OA
ENDBRANCH  21  22
BRANCH  21  25
ATOM     25  CB  TRP A   1      -0.729   1.579   1.267  0.00  0.00    +0.071 C 
BRANCH  25  26
ATOM     26  CG  TRP A   1      -0.074   0.981   2.485  0.00  0.00    -0.020 A 
ATOM     27  CD1 TRP A   1      -0.457  -0.131   3.133  0.00  0.00    +0.087 A 
ATOM     28  NE1 TRP A   1       0.377  -0.365   4.191  0.00  0.00    -0.360 N 
ATOM     29  HE1 TRP A   1       0.300  -1.110   4.808  0.00  0.00    +0.165 HD
ATOM     30  CE2 TRP A   1       1.343   0.615   4.252  0.00  0.00    +0.047 A 
ATOM     31  CD2 TRP A   1       1.106   1.497   3.182  0.00  0.00    +0.003 A 
ATOM     32  CE3 TRP A   1       1.943   2.598   2.989  0.00  0.00    +0.010 A 
ATOM     33  CZ3 TRP A   1       2.991   2.810   3.840  0.00  0.00    +0.001 A 
ATOM     34  CH2 TRP A   1       3.231   1.941   4.894  0.00  0.00    +0.002 A 
ATOM     35  CZ2 TRP A   1       2.413   0.852   5.108  0.00  0.00    +0.026 A 
ENDBRANCH  25  26
ENDBRANCH  21  25
ENDBRANCH   4  21
TORSDOF 9
