REMARK  Name = ZINC45522676
REMARK  6 active torsions:
REMARK  status: ('A' for Active; 'I' for Inactive)
REMARK    1  A    between atoms: C_1  and  C_2
REMARK    2  A    between atoms: N_5  and  C_11
REMARK    3  A    between atoms: C_7  and  C_10
REMARK    4  A    between atoms: C_11  and  C_12
REMARK    5  A    between atoms: C_12  and  N_13
REMARK    6  A    between atoms: C_19  and  C_22
REMARK                            x       y       z     vdW  Elec       q    Type
REMARK                         _______ _______ _______ _____ _____    ______ ____
ROOT
ATOM      1  N   UNL     1      -4.051  -4.627  -0.178  0.00  0.00    -0.298 N 
ATOM      2  C   UNL     1      -4.234  -5.954  -0.327  0.00  0.00    +0.303 C 
ATOM      3  O   UNL     1      -3.279  -6.681  -0.518  0.00  0.00    -0.253 OA
ATOM      4  N   UNL     1      -5.476  -6.474  -0.266  0.00  0.00    -0.282 N 
ATOM      5  C   UNL     1      -5.700  -7.929  -0.311  0.00  0.00    +0.114 C 
ATOM      6  C   UNL     1      -6.352  -8.348   1.009  0.00  0.00    +0.054 C 
ATOM      7  C   UNL     1      -7.464  -7.405   1.365  0.00  0.00    -0.039 C 
ATOM      8  C   UNL     1      -7.601  -6.199   0.866  0.00  0.00    -0.004 C 
ATOM      9  C   UNL     1      -6.661  -5.612  -0.144  0.00  0.00    +0.137 C 
ATOM     10  H   UNL     1      -4.818  -4.037  -0.101  0.00  0.00    +0.150 HD
ENDROOT
BRANCH   7  11
ATOM     11  C   UNL     1      -8.470  -7.865   2.343  0.00  0.00    +0.005 A 
ATOM     12  C   UNL     1      -9.467  -8.759   2.122  0.00  0.00    +0.093 A 
ATOM     13  N   UNL     1     -10.194  -8.931   3.265  0.00  0.00    -0.345 N 
ATOM     14  H   UNL     1     -10.958  -9.521   3.353  0.00  0.00    +0.167 HD
ATOM     15  C   UNL     1      -9.687  -8.146   4.276  0.00  0.00    +0.139 A 
ATOM     16  C   UNL     1      -8.585  -7.449   3.750  0.00  0.00    +0.026 A 
ATOM     17  C   UNL     1      -7.870  -6.575   4.567  0.00  0.00    +0.013 A 
ATOM     18  C   UNL     1      -8.280  -6.431   5.881  0.00  0.00    +0.020 A 
ATOM     19  C   UNL     1      -9.373  -7.151   6.334  0.00  0.00    +0.113 A 
ATOM     20  N   UNL     1     -10.038  -7.966   5.543  0.00  0.00    -0.237 NA
ENDBRANCH   7  11
BRANCH   1  21
ATOM     21  C   UNL     1      -2.695  -4.075  -0.134  0.00  0.00    +0.121 C 
BRANCH  21  22
ATOM     22  C   UNL     1      -2.768  -2.556   0.040  0.00  0.00    +0.103 C 
BRANCH  22  26
ATOM     23  C   UNL     1      -0.018   1.526   0.009  0.00  0.00    +0.039 C 
ATOM     24  C   UNL     1       0.002  -0.004   0.002  0.00  0.00    +0.130 C 
ATOM     25  C   UNL     1      -1.434  -0.535   0.013  0.00  0.00    +0.115 C 
ATOM     26  N   UNL     1      -1.408  -2.003   0.085  0.00  0.00    -0.296 NA
ATOM     27  C   UNL     1      -0.695  -2.453   1.290  0.00  0.00    +0.115 C 
ATOM     28  C   UNL     1       0.733  -1.903   1.266  0.00  0.00    +0.130 C 
ATOM     29  O   UNL     1       0.689  -0.477   1.164  0.00  0.00    -0.371 OA
ATOM     30  C   UNL     1       1.456  -2.302   2.554  0.00  0.00    +0.039 C 
ENDBRANCH  22  26
ENDBRANCH  21  22
ENDBRANCH   1  21
TORSDOF 4
