REMARK  Name = ZINC04737007
REMARK  5 active torsions:
REMARK  status: ('A' for Active; 'I' for Inactive)
REMARK    1  A    between atoms: C_1  and  C_2
REMARK    2  A    between atoms: C_6  and  N_9
REMARK    3  A    between atoms: C_7  and  C_8
REMARK    4  A    between atoms: C_11  and  C_22
REMARK    5  A    between atoms: C_17  and  C_21
REMARK                            x       y       z     vdW  Elec       q    Type
REMARK                         _______ _______ _______ _____ _____    ______ ____
ROOT
ATOM      1  N   UNL     1      -5.959   1.523   3.458  0.00  0.00    -0.288 N 
ATOM      2  C   UNL     1      -4.700   2.079   3.474  0.00  0.00    +0.166 C 
ATOM      3  C   UNL     1      -2.772   2.977   4.591  0.00  0.00    +0.220 C 
ATOM      4  N   UNL     1      -2.004   2.439   3.464  0.00  0.00    -0.255 N 
ATOM      5  C   UNL     1      -0.679   2.227   3.553  0.00  0.00    +0.257 A 
ATOM      6  O   UNL     1      -0.080   2.445   4.593  0.00  0.00    -0.267 OA
ATOM      7  C   UNL     1       0.001   1.748   2.416  0.00  0.00    +0.093 A 
ATOM      8  C   UNL     1      -0.707   1.508   1.275  0.00  0.00    +0.047 A 
ATOM      9  N   UNL     1      -2.022   1.726   1.241  0.00  0.00    -0.221 NA
ATOM     10  C   UNL     1      -2.662   2.163   2.299  0.00  0.00    +0.207 A 
ATOM     11  N   UNL     1      -4.030   2.363   2.288  0.00  0.00    -0.259 N 
ATOM     12  C   UNL     1       0.002   1.002   0.045  0.00  0.00    +0.066 C 
ATOM     13  H   UNL     1      -6.426   1.405   2.616  0.00  0.00    +0.155 HD
ATOM     14  H   UNL     1      -4.495   2.683   1.500  0.00  0.00    +0.158 HD
ATOM     15  N   UNL     1      -4.134   2.338   4.663  0.00  0.00    -0.336 N 
ATOM     16  H   UNL     1      -4.595   2.118   5.554  0.00  0.00    +0.164 HD
ENDROOT
BRANCH   1  22
ATOM     17  C   UNL     1     -10.046   0.585   6.024  0.00  0.00    +0.044 C 
ATOM     18  C   UNL     1      -8.544   0.665   5.927  0.00  0.00    -0.046 A 
ATOM     19  C   UNL     1      -7.763   0.348   7.024  0.00  0.00    +0.004 A 
ATOM     20  C   UNL     1      -6.385   0.420   6.939  0.00  0.00    +0.002 A 
ATOM     21  C   UNL     1      -5.783   0.809   5.758  0.00  0.00    +0.023 A 
ATOM     22  C   UNL     1      -6.564   1.129   4.655  0.00  0.00    +0.036 A 
ATOM     23  C   UNL     1      -7.949   1.061   4.745  0.00  0.00    -0.026 A 
ATOM     24  C   UNL     1      -8.801   1.414   3.553  0.00  0.00    +0.046 C 
ENDBRANCH   1  22
BRANCH   3  25
ATOM     25  C   UNL     1      -2.916   4.469   4.436  0.00  0.00    -0.004 A 
ATOM     26  C   UNL     1      -1.931   5.196   3.794  0.00  0.00    +0.009 A 
ATOM     27  C   UNL     1      -2.065   6.563   3.646  0.00  0.00    +0.020 A 
ATOM     28  C   UNL     1      -3.180   7.207   4.152  0.00  0.00    +0.041 A 
ATOM     29  C   UNL     1      -4.163   6.480   4.800  0.00  0.00    +0.020 A 
ATOM     30  C   UNL     1      -4.031   5.112   4.941  0.00  0.00    +0.009 A 
ATOM     31 CL   UNL     1      -3.347   8.926   3.973  0.00  0.00    -0.084 Cl
ENDBRANCH   3  25
TORSDOF 2
