REMARK  Name = ZINC34749996
REMARK  10 active torsions:
REMARK  status: ('A' for Active; 'I' for Inactive)
REMARK    1  A    between atoms: C_1  and  C_2
REMARK    2  A    between atoms: C_2  and  C_34
REMARK    3  A    between atoms: C_9  and  N_17
REMARK    4  A    between atoms: C_11  and  S_13
REMARK    5  A    between atoms: S_13  and  C_14
REMARK    6  A    between atoms: C_14  and  C_15
REMARK    7  A    between atoms: N_20  and  C_23
REMARK    8  A    between atoms: C_23  and  C_24
REMARK    9  A    between atoms: C_24  and  C_25
REMARK   10  A    between atoms: C_25  and  C_26
REMARK                            x       y       z     vdW  Elec       q    Type
REMARK                         _______ _______ _______ _____ _____    ______ ____
ROOT
ATOM      1  C   UNL     1      -6.383   3.459  -1.716  0.00  0.00    +0.041 C 
ATOM      2  C   UNL     1      -4.856   3.384  -1.766  0.00  0.00    +0.068 C 
ATOM      3  C   UNL     1      -4.395   2.038  -1.199  0.00  0.00    +0.071 C 
ATOM      4  C   UNL     1      -4.667   2.037   0.304  0.00  0.00    -0.020 A 
ATOM      5  C   UNL     1      -4.878   3.213   0.941  0.00  0.00    +0.021 A 
ATOM      6  S   UNL     1      -5.149   2.781   2.639  0.00  0.00    -0.071 S 
ATOM      7  C   UNL     1      -4.981   1.030   2.496  0.00  0.00    +0.115 A 
ATOM      8  C   UNL     1      -4.716   0.835   1.116  0.00  0.00    +0.051 A 
ATOM      9  C   UNL     1      -4.528  -0.508   0.679  0.00  0.00    +0.134 A 
ATOM     10  N   UNL     1      -4.622  -1.446   1.619  0.00  0.00    -0.206 NA
ATOM     11  C   UNL     1      -4.874  -1.191   2.894  0.00  0.00    +0.191 A 
ATOM     12  N   UNL     1      -5.059   0.044   3.367  0.00  0.00    -0.215 NA
ATOM     13  C   UNL     1      -4.874   4.572   0.315  0.00  0.00    +0.203 C 
ATOM     14  O   UNL     1      -4.303   4.456  -0.997  0.00  0.00    -0.368 OA
ATOM     15  C   UNL     1      -4.389   3.507  -3.217  0.00  0.00    +0.041 C 
ENDROOT
BRANCH   9  16
ATOM     16  N   UNL     1      -4.264  -0.820  -0.642  0.00  0.00    -0.318 N 
ATOM     17  C   UNL     1      -2.891  -0.778  -1.169  0.00  0.00    +0.088 C 
ATOM     18  C   UNL     1      -2.609  -2.098  -1.895  0.00  0.00    -0.060 C 
ATOM     19  N   UNL     1      -3.643  -2.326  -2.913  0.00  0.00    +0.382 N 
ATOM     20  C   UNL     1      -4.950  -2.502  -2.267  0.00  0.00    -0.060 C 
ATOM     21  C   UNL     1      -5.347  -1.208  -1.559  0.00  0.00    +0.088 C 
ATOM     22  H   UNL     1      -3.680  -1.534  -3.536  0.00  0.00    -0.082 HD
BRANCH  19  23
ATOM     23  C   UNL     1      -3.312  -3.534  -3.681  0.00  0.00    -0.078 C 
BRANCH  23  24
ATOM     24  C   UNL     1      -4.318  -3.705  -4.821  0.00  0.00    -0.014 C 
BRANCH  24  25
ATOM     25  C   UNL     1      -3.973  -4.963  -5.621  0.00  0.00    +0.033 C 
BRANCH  25  26
ATOM     26  C   UNL     1      -4.964  -5.131  -6.743  0.00  0.00    -0.047 A 
ATOM     27  C   UNL     1      -6.125  -5.853  -6.538  0.00  0.00    +0.003 A 
ATOM     28  C   UNL     1      -7.034  -6.008  -7.568  0.00  0.00    +0.000 A 
ATOM     29  C   UNL     1      -6.783  -5.440  -8.803  0.00  0.00    +0.000 A 
ATOM     30  C   UNL     1      -5.623  -4.716  -9.008  0.00  0.00    +0.000 A 
ATOM     31  C   UNL     1      -4.716  -4.558  -7.977  0.00  0.00    +0.003 A 
ENDBRANCH  25  26
ENDBRANCH  24  25
ENDBRANCH  23  24
ENDBRANCH  19  23
ENDBRANCH   9  16
BRANCH  11  32
ATOM     32  S   UNL     1      -4.968  -2.544   4.019  0.00  0.00    -0.082 S 
BRANCH  32  33
ATOM     33  C   UNL     1      -5.320  -1.762   5.618  0.00  0.00    +0.104 C 
BRANCH  33  34
ATOM     34  C   UNL     1      -5.427  -2.822   6.683  0.00  0.00    -0.023 C 
ATOM     35  C   UNL     1      -4.552  -2.863   7.657  0.00  0.00    +0.005 C 
ENDBRANCH  33  34
ENDBRANCH  32  33
ENDBRANCH  11  32
TORSDOF 8
