REMARK  Name = ZINC13499458
REMARK  15 active torsions:
REMARK  status: ('A' for Active; 'I' for Inactive)
REMARK    1  A    between atoms: C_1  and  C_2
REMARK    2  A    between atoms: C_2  and  C_3
REMARK    3  A    between atoms: C_3  and  C_4
REMARK    4  A    between atoms: C_4  and  C_6
REMARK    5  A    between atoms: C_4  and  N_74
REMARK    6  A    between atoms: N_10  and  C_11
REMARK    7  A    between atoms: C_11  and  C_12
REMARK    8  A    between atoms: C_11  and  C_13
REMARK    9  A    between atoms: C_11  and  C_14
REMARK   10  A    between atoms: C_14  and  C_15
REMARK   11  A    between atoms: C_16  and  C_17
REMARK   12  A    between atoms: C_16  and  N_74
REMARK   13  A    between atoms: C_21  and  C_30
REMARK   14  A    between atoms: C_22  and  C_29
REMARK   15  A    between atoms: C_31  and  N_74
REMARK                            x       y       z     vdW  Elec       q    Type
REMARK                         _______ _______ _______ _____ _____    ______ ____
ROOT
ATOM      1  N   UNL     1      -5.793   3.982  -0.542  0.00  0.00    +0.391 N 
ATOM      2  H   UNL     1      -5.582   3.011  -0.801  0.00  0.00    -0.080 HD
ENDROOT
BRANCH   1   3
ATOM      3  C   UNL     1      -4.676   4.848  -0.973  0.00  0.00    -0.067 C 
ATOM      4  C   UNL     1      -4.700   5.004  -2.507  0.00  0.00    -0.015 C 
ATOM      5  C   UNL     1      -3.205   4.987  -2.914  0.00  0.00    -0.002 C 
ATOM      6  C   UNL     1      -2.600   3.933  -1.953  0.00  0.00    -0.002 C 
ATOM      7  C   UNL     1      -3.341   4.168  -0.621  0.00  0.00    -0.015 C 
ENDBRANCH   1   3
BRANCH   1   8
ATOM      8  C   UNL     1      -7.042   4.397  -1.214  0.00  0.00    +0.003 C 
BRANCH   8   9
ATOM      9  C   UNL     1      -7.494   5.742  -0.705  0.00  0.00    +0.139 A 
ATOM     10  N   UNL     1      -7.303   6.229   0.497  0.00  0.00    -0.115 NA
ATOM     11  N   UNL     1      -7.835   7.402   0.540  0.00  0.00    -0.023 NA
ATOM     12  N   UNL     1      -8.360   7.676  -0.602  0.00  0.00    -0.043 NA
ATOM     13  N   UNL     1      -8.166   6.679  -1.399  0.00  0.00    -0.225 N 
BRANCH  13  14
ATOM     14  C   UNL     1      -8.599   6.585  -2.795  0.00  0.00    +0.061 C 
ATOM     15  C   UNL     1      -7.373   6.591  -3.711  0.00  0.00    +0.036 C 
ATOM     16  C   UNL     1      -9.382   5.286  -2.999  0.00  0.00    +0.036 C 
BRANCH  14  17
ATOM     17  C   UNL     1      -9.495   7.778  -3.134  0.00  0.00    +0.026 C 
ATOM     18  C   UNL     1      -9.947   7.679  -4.592  0.00  0.00    +0.006 C 
ENDBRANCH  14  17
ENDBRANCH  13  14
ENDBRANCH   8   9
BRANCH   8  19
ATOM     19  C   UNL     1      -8.126   3.355  -0.929  0.00  0.00    -0.008 C 
BRANCH  19  21
ATOM     20  C   UNL     1      -8.871   1.016  -1.395  0.00  0.00    +0.004 C 
ATOM     21  C   UNL     1      -7.734   2.023  -1.573  0.00  0.00    -0.005 C 
ENDBRANCH  19  21
ENDBRANCH   8  19
ENDBRANCH   1   8
BRANCH   1  22
ATOM     22  C   UNL     1      -5.957   4.062   0.925  0.00  0.00    -0.036 C 
BRANCH  22  23
ATOM     23  C   UNL     1      -4.881   3.234   1.578  0.00  0.00    +0.001 A 
ATOM     24  C   UNL     1      -3.770   3.836   2.070  0.00  0.00    +0.017 A 
ATOM     25  C   UNL     1      -2.743   3.003   2.698  0.00  0.00    -0.001 A 
ATOM     26  C   UNL     1      -1.575   3.567   3.223  0.00  0.00    +0.013 A 
ATOM     27  C   UNL     1      -0.636   2.762   3.803  0.00  0.00    -0.047 A 
ATOM     28  C   UNL     1      -0.831   1.389   3.877  0.00  0.00    -0.046 A 
ATOM     29  C   UNL     1      -1.973   0.812   3.366  0.00  0.00    +0.030 A 
ATOM     30  C   UNL     1      -2.941   1.611   2.765  0.00  0.00    +0.049 A 
ATOM     31  N   UNL     1      -4.096   1.061   2.251  0.00  0.00    -0.322 N 
ATOM     32  H   UNL     1      -4.232   0.102   2.302  0.00  0.00    +0.169 HD
ATOM     33  C   UNL     1      -5.033   1.834   1.676  0.00  0.00    +0.251 A 
ATOM     34  O   UNL     1      -6.040   1.313   1.227  0.00  0.00    -0.268 OA
ATOM     35  C   UNL     1       0.219   0.521   4.521  0.00  0.00    +0.044 C 
ATOM     36  C   UNL     1       0.622   3.370   4.368  0.00  0.00    +0.044 C 
ENDBRANCH  22  23
ENDBRANCH   1  22
TORSDOF 9
