REMARK  Name = ZINC38671542
REMARK  9 active torsions:
REMARK  status: ('A' for Active; 'I' for Inactive)
REMARK    1  A    between atoms: C_1  and  C_2
REMARK    2  A    between atoms: C_2  and  N_3
REMARK    3  A    between atoms: C_5  and  C_15
REMARK    4  A    between atoms: C_11  and  C_14
REMARK    5  A    between atoms: N_17  and  C_18
REMARK    6  A    between atoms: C_18  and  C_19
REMARK    7  A    between atoms: C_19  and  C_21
REMARK    8  A    between atoms: C_19  and  N_31
REMARK    9  A    between atoms: N_29  and  C_30
REMARK                            x       y       z     vdW  Elec       q    Type
REMARK                         _______ _______ _______ _____ _____    ______ ____
ROOT
ATOM      1  C   UNL     1      -0.825  -2.187  -7.131  0.00  0.00    +0.094 C 
ENDROOT
BRANCH   1   4
ATOM      2  C   UNL     1      -2.378  -0.361  -6.692  0.00  0.00    +0.249 C 
ATOM      3  O   UNL     1      -2.518  -0.788  -5.562  0.00  0.00    -0.270 OA
ATOM      4  N   UNL     1      -1.519  -0.963  -7.538  0.00  0.00    -0.312 N 
ATOM      5  H   UNL     1      -1.359  -0.585  -8.417  0.00  0.00    +0.149 HD
BRANCH   2   8
ATOM      6  N   UNL     1      -4.837   2.432  -6.694  0.00  0.00    -0.331 N 
ATOM      7  C   UNL     1      -4.117   1.363  -6.325  0.00  0.00    +0.104 A 
ATOM      8  C   UNL     1      -3.146   0.813  -7.135  0.00  0.00    +0.100 A 
ATOM      9  C   UNL     1      -2.893   1.422  -8.451  0.00  0.00    +0.203 A 
ATOM     10  O   UNL     1      -2.047   0.976  -9.206  0.00  0.00    -0.286 OA
ATOM     11  C   UNL     1      -3.707   2.595  -8.816  0.00  0.00    +0.065 A 
ATOM     12  C   UNL     1      -4.672   3.062  -7.906  0.00  0.00    +0.145 A 
ATOM     13  N   UNL     1      -5.416   4.114  -8.222  0.00  0.00    -0.234 NA
ATOM     14  C   UNL     1      -5.281   4.737  -9.374  0.00  0.00    +0.041 A 
ATOM     15  C   UNL     1      -4.354   4.327 -10.318  0.00  0.00    +0.024 A 
ATOM     16  C   UNL     1      -3.540   3.243 -10.042  0.00  0.00    +0.017 A 
ATOM     17  C   UNL     1      -6.157   5.927  -9.673  0.00  0.00    +0.065 C 
BRANCH   6  19
ATOM     18  C   UNL     1      -7.185   2.255  -6.035  0.00  0.00    +0.027 C 
ATOM     19  C   UNL     1      -5.848   2.949  -5.769  0.00  0.00    +0.120 C 
ENDBRANCH   6  19
ENDBRANCH   2   8
ENDBRANCH   1   4
BRANCH   1  20
ATOM     20  C   UNL     1       0.167  -2.598  -8.220  0.00  0.00    -0.020 C 
BRANCH  20  21
ATOM     21  C   UNL     1      -0.582  -2.916  -9.488  0.00  0.00    -0.059 A 
ATOM     22  C   UNL     1      -1.205  -4.142  -9.636  0.00  0.00    +0.004 A 
ATOM     23  C   UNL     1      -1.891  -4.437 -10.795  0.00  0.00    +0.023 A 
ATOM     24  C   UNL     1      -1.962  -3.500 -11.828  0.00  0.00    +0.033 A 
ATOM     25  C   UNL     1      -1.334  -2.275 -11.670  0.00  0.00    -0.025 A 
ATOM     26  C   UNL     1      -0.653  -1.982 -10.504  0.00  0.00    +0.007 A 
ATOM     27  C   UNL     1      -1.561  -1.453 -12.919  0.00  0.00    +0.056 C 
ATOM     28  C   UNL     1      -2.405  -2.361 -13.830  0.00  0.00    +0.109 C 
ATOM     29  N   UNL     1      -2.598  -3.597 -13.067  0.00  0.00    -0.332 N 
ATOM     30  C   UNL     1      -3.347  -4.765 -13.537  0.00  0.00    +0.129 C 
ENDBRANCH  20  21
BRANCH  20  31
ATOM     31  N   UNL     1       0.913  -3.785  -7.781  0.00  0.00    +0.385 N 
ATOM     32  C   UNL     1       1.635  -3.476  -6.540  0.00  0.00    -0.078 C 
ATOM     33  C   UNL     1       2.348  -4.731  -6.035  0.00  0.00    -0.019 C 
ATOM     34  C   UNL     1       3.340  -5.212  -7.098  0.00  0.00    -0.004 C 
ATOM     35  C   UNL     1       2.587  -5.460  -8.409  0.00  0.00    -0.019 C 
ATOM     36  C   UNL     1       1.865  -4.177  -8.826  0.00  0.00    -0.078 C 
ATOM     37  H   UNL     1       0.269  -4.542  -7.612  0.00  0.00    -0.081 HD
ENDBRANCH  20  31
ENDBRANCH   1  20
TORSDOF 6
