REMARK  Name = ZINC08382955
REMARK  5 active torsions:
REMARK  status: ('A' for Active; 'I' for Inactive)
REMARK    1  A    between atoms: C_1  and  C_2
REMARK    2  A    between atoms: C_4  and  C_25
REMARK    3  A    between atoms: C_8  and  N_24
REMARK    4  A    between atoms: C_9  and  C_11
REMARK    5  A    between atoms: N_17  and  C_18
REMARK                            x       y       z     vdW  Elec       q    Type
REMARK                         _______ _______ _______ _____ _____    ______ ____
ROOT
ATOM      1  C   UNL     1       7.068   3.539  -0.047  0.00  0.00    +0.044 C 
ATOM      2  C   UNL     1       6.966   2.036  -0.053  0.00  0.00    -0.034 A 
ATOM      3  C   UNL     1       8.091   1.254  -0.069  0.00  0.00    +0.032 A 
ATOM      4  C   UNL     1       7.960  -0.136  -0.075  0.00  0.00    +0.075 A 
ATOM      5  N   UNL     1       6.768  -0.717  -0.066  0.00  0.00    -0.212 NA
ATOM      6  C   UNL     1       5.652  -0.006  -0.052  0.00  0.00    +0.231 A 
ATOM      7  C   UNL     1       5.721   1.401  -0.045  0.00  0.00    +0.064 A 
ATOM      8  C   UNL     1       4.332   1.871  -0.029  0.00  0.00    +0.084 A 
ATOM      9  C   UNL     1       3.558   0.749  -0.028  0.00  0.00    +0.196 A 
ATOM     10  O   UNL     1       4.348  -0.348  -0.035  0.00  0.00    -0.432 OA
ENDROOT
BRANCH   9  11
ATOM     11  C   UNL     1       2.090   0.734  -0.014  0.00  0.00    +0.204 A 
ATOM     12  N   UNL     1       1.314   1.787  -0.001  0.00  0.00    -0.150 NA
ATOM     13  N   UNL     1      -0.016   1.344   0.009  0.00  0.00    -0.254 N 
ATOM     14  H   UNL     1      -0.807   1.906   0.016  0.00  0.00    +0.191 HD
ATOM     15  C   UNL     1       0.002  -0.004   0.002  0.00  0.00    +0.180 A 
ATOM     16  S   UNL     1      -1.367  -1.032   0.009  0.00  0.00    -0.011 S 
ATOM     17  N   UNL     1       1.291  -0.398  -0.012  0.00  0.00    -0.269 N 
BRANCH  17  18
ATOM     18  C   UNL     1       1.745  -1.723  -0.023  0.00  0.00    +0.051 A 
ATOM     19  C   UNL     1       2.466  -2.220   1.054  0.00  0.00    +0.026 A 
ATOM     20  C   UNL     1       2.908  -3.529   1.042  0.00  0.00    +0.002 A 
ATOM     21  C   UNL     1       2.642  -4.340  -0.046  0.00  0.00    +0.000 A 
ATOM     22  C   UNL     1       1.929  -3.846  -1.123  0.00  0.00    +0.002 A 
ATOM     23  C   UNL     1       1.480  -2.540  -1.114  0.00  0.00    +0.026 A 
ENDBRANCH  17  18
ENDBRANCH   9  11
BRANCH   4  24
ATOM     24  C   UNL     1       9.178  -0.980  -0.091  0.00  0.00    +0.000 A 
ATOM     25  C   UNL     1      10.440  -0.388  -0.106  0.00  0.00    +0.010 A 
ATOM     26  C   UNL     1      11.571  -1.179  -0.117  0.00  0.00    +0.001 A 
ATOM     27  C   UNL     1      11.454  -2.557  -0.123  0.00  0.00    +0.000 A 
ATOM     28  C   UNL     1      10.204  -3.151  -0.113  0.00  0.00    +0.001 A 
ATOM     29  C   UNL     1       9.066  -2.370  -0.098  0.00  0.00    +0.010 A 
ENDBRANCH   4  24
BRANCH   8  30
ATOM     30  N   UNL     1       3.892   3.198  -0.018  0.00  0.00    -0.354 N 
ATOM     31  H   UNL     1       2.942   3.393  -0.007  0.00  0.00    +0.142 HD
ATOM     32  H   UNL     1       4.537   3.922  -0.021  0.00  0.00    +0.142 HD
ENDBRANCH   8  30
TORSDOF 4
