REMARK  Name = ZINC39666573
REMARK  9 active torsions:
REMARK  status: ('A' for Active; 'I' for Inactive)
REMARK    1  A    between atoms: C_1  and  C_2
REMARK    2  A    between atoms: C_2  and  C_4
REMARK    3  A    between atoms: C_2  and  O_29
REMARK    4  A    between atoms: C_4  and  N_5
REMARK    5  A    between atoms: C_6  and  C_8
REMARK    6  A    between atoms: C_19  and  C_21
REMARK    7  A    between atoms: C_25  and  O_26
REMARK    8  A    between atoms: O_26  and  C_27
REMARK    9  A    between atoms: O_29  and  C_30
REMARK                            x       y       z     vdW  Elec       q    Type
REMARK                         _______ _______ _______ _____ _____    ______ ____
ROOT
ATOM      1  C   UNL     1       0.816  -4.087  -2.070  0.00  0.00    +0.100 C 
ATOM      2  C   UNL     1       1.396  -4.646  -0.751  0.00  0.00    +0.121 C 
ATOM      3  N   UNL     1       2.032  -5.928  -1.136  0.00  0.00    -0.296 N 
ATOM      4  C   UNL     1       2.665  -5.647  -2.447  0.00  0.00    +0.115 C 
ATOM      5  C   UNL     1       1.651  -4.746  -3.180  0.00  0.00    -0.004 C 
ATOM      6  C   UNL     1       2.383  -3.682  -3.992  0.00  0.00    -0.010 C 
ATOM      7  C   UNL     1       3.161  -4.356  -5.126  0.00  0.00    -0.082 C 
ATOM      8  N   UNL     1       2.232  -5.102  -5.983  0.00  0.00    +0.379 N 
ATOM      9  C   UNL     1       1.601  -6.183  -5.216  0.00  0.00    -0.082 C 
ATOM     10  C   UNL     1       0.757  -5.586  -4.087  0.00  0.00    -0.010 C 
ATOM     11  C   UNL     1       2.035  -7.088  -0.449  0.00  0.00    +0.251 C 
ATOM     12  O   UNL     1       1.379  -7.192   0.571  0.00  0.00    -0.270 OA
ATOM     13  H   UNL     1       1.519  -4.476  -6.328  0.00  0.00    -0.086 HD
ATOM     14  H   UNL     1       2.737  -5.495  -6.763  0.00  0.00    -0.086 HD
ENDROOT
BRANCH  11  15
ATOM     15  C   UNL     1       2.829  -8.227  -0.932  0.00  0.00    +0.087 A 
ATOM     16  C   UNL     1       3.940  -8.046  -1.727  0.00  0.00    +0.063 A 
ATOM     17  S   UNL     1       4.500  -9.601  -2.017  0.00  0.00    -0.081 S 
ATOM     18  C   UNL     1       3.295 -10.542  -1.105  0.00  0.00    +0.120 A 
ATOM     19  C   UNL     1       2.486  -9.588  -0.591  0.00  0.00    +0.158 A 
ATOM     20 CL   UNL     1       3.189 -12.264  -0.916  0.00  0.00    -0.072 Cl
BRANCH  19  21
ATOM     21  O   UNL     1       1.414  -9.891   0.192  0.00  0.00    -0.492 OA
ATOM     22  C   UNL     1       0.167 -10.109  -0.471  0.00  0.00    +0.277 C 
ENDBRANCH  19  21
ENDBRANCH  11  15
BRANCH   1  24
ATOM     23  N   UNL     1       0.067  -1.840  -2.784  0.00  0.00    -0.312 N 
ATOM     24  C   UNL     1       0.968  -2.589  -2.117  0.00  0.00    +0.218 C 
ATOM     25  O   UNL     1       1.901  -2.056  -1.555  0.00  0.00    -0.275 OA
ATOM     26  H   UNL     1      -0.680  -2.266  -3.233  0.00  0.00    +0.149 HD
BRANCH  23  27
ATOM     27  C   UNL     1       0.215  -0.384  -2.829  0.00  0.00    +0.148 C 
BRANCH  27  29
ATOM     28  C   UNL     1      -0.709   1.726  -3.797  0.00  0.00    +0.053 C 
ATOM     29  C   UNL     1      -0.931   0.220  -3.644  0.00  0.00    +0.187 C 
BRANCH  29  30
ATOM     30  O   UNL     1      -2.169  -0.013  -2.969  0.00  0.00    -0.486 OA
BRANCH  30  31
ATOM     31  C   UNL     1      -3.294  -0.026  -3.731  0.00  0.00    +0.139 A 
ATOM     32  C   UNL     1      -3.200   0.081  -5.111  0.00  0.00    +0.047 A 
ATOM     33  C   UNL     1      -4.345   0.067  -5.884  0.00  0.00    +0.004 A 
ATOM     34  C   UNL     1      -5.585  -0.054  -5.283  0.00  0.00    +0.002 A 
ATOM     35  C   UNL     1      -5.683  -0.160  -3.908  0.00  0.00    +0.023 A 
ATOM     36  C   UNL     1      -4.539  -0.153  -3.131  0.00  0.00    +0.083 A 
ATOM     37 CL   UNL     1      -4.661  -0.294  -1.405  0.00  0.00    -0.080 Cl
ENDBRANCH  30  31
ENDBRANCH  29  30
ENDBRANCH  27  29
ENDBRANCH  23  27
ENDBRANCH   1  24
TORSDOF 7
