REMARK  Name = ZINC40784298
REMARK  5 active torsions:
REMARK  status: ('A' for Active; 'I' for Inactive)
REMARK    1  A    between atoms: C_1  and  C_2
REMARK    2  A    between atoms: C_10  and  N_27
REMARK    3  A    between atoms: C_11  and  N_15
REMARK    4  A    between atoms: C_21  and  O_25
REMARK    5  A    between atoms: O_25  and  C_26
REMARK                            x       y       z     vdW  Elec       q    Type
REMARK                         _______ _______ _______ _____ _____    ______ ____
ROOT
ATOM      1  C   UNL     1      -0.003   1.496  -0.186  0.00  0.00    +0.045 C 
ATOM      2  C   UNL     1       0.013  -0.006  -0.066  0.00  0.00    -0.032 A 
ATOM      3  C   UNL     1       0.020  -0.610   1.185  0.00  0.00    +0.008 A 
ATOM      4  C   UNL     1       0.035  -1.992   1.251  0.00  0.00    +0.044 A 
ATOM      5  C   UNL     1       0.042  -2.725   0.069  0.00  0.00    +0.124 A 
ATOM      6  N   UNL     1       0.036  -2.113  -1.105  0.00  0.00    -0.240 NA
ATOM      7  C   UNL     1       0.016  -0.796  -1.198  0.00  0.00    +0.116 A 
ATOM      8  N   UNL     1       0.058  -4.116   0.121  0.00  0.00    -0.283 N 
ATOM      9  C   UNL     1      -0.043  -4.857  -1.052  0.00  0.00    +0.150 A 
ATOM     10  C   UNL     1      -0.136  -6.249  -1.005  0.00  0.00    +0.106 A 
ATOM     11  C   UNL     1      -0.236  -6.944  -2.212  0.00  0.00    +0.150 A 
ATOM     12  N   UNL     1      -0.238  -6.258  -3.352  0.00  0.00    -0.219 NA
ATOM     13  C   UNL     1      -0.149  -4.943  -3.352  0.00  0.00    +0.225 A 
ATOM     14  N   UNL     1      -0.058  -4.249  -2.236  0.00  0.00    -0.219 NA
ATOM     15  H   UNL     1       0.139  -4.568   0.975  0.00  0.00    +0.155 HD
ENDROOT
BRANCH  11  16
ATOM     16  N   UNL     1      -0.330  -8.332  -2.222  0.00  0.00    -0.277 N 
ATOM     17  C   UNL     1      -0.429  -9.009  -3.424  0.00  0.00    +0.165 A 
ATOM     18  N   UNL     1      -0.443  -8.524  -4.644  0.00  0.00    -0.225 NA
ATOM     19  C   UNL     1      -0.545  -9.313  -5.737  0.00  0.00    +0.081 A 
ATOM     20  C   UNL     1      -0.572  -8.920  -7.095  0.00  0.00    +0.032 A 
ATOM     21  C   UNL     1      -0.681  -9.852  -8.093  0.00  0.00    +0.048 A 
ATOM     22  C   UNL     1      -0.769 -11.212  -7.810  0.00  0.00    +0.121 A 
ATOM     23  C   UNL     1      -0.745 -11.631  -6.488  0.00  0.00    +0.063 A 
ATOM     24  C   UNL     1      -0.636 -10.700  -5.485  0.00  0.00    +0.044 A 
ATOM     25  S   UNL     1      -0.560 -10.768  -3.711  0.00  0.00    -0.052 S 
ATOM     26  H   UNL     1      -0.327  -8.825  -1.387  0.00  0.00    +0.156 HD
BRANCH  22  27
ATOM     27  O   UNL     1      -0.878 -12.119  -8.817  0.00  0.00    -0.495 OA
ATOM     28  C   UNL     1      -0.897 -11.608 -10.152  0.00  0.00    +0.277 C 
ENDBRANCH  22  27
ENDBRANCH  11  16
BRANCH  10  29
ATOM     29  N   UNL     1      -0.129  -6.932   0.221  0.00  0.00    -0.353 N 
ATOM     30  H   UNL     1      -0.059  -6.436   1.052  0.00  0.00    +0.143 HD
ATOM     31  H   UNL     1      -0.194  -7.899   0.238  0.00  0.00    +0.143 HD
ENDBRANCH  10  29
TORSDOF 3
