REMARK  Name = ZINC20704700
REMARK  7 active torsions:
REMARK  status: ('A' for Active; 'I' for Inactive)
REMARK    1  A    between atoms: C_1  and  C_2
REMARK    2  A    between atoms: C_2  and  C_3
REMARK    3  A    between atoms: C_3  and  C_4
REMARK    4  A    between atoms: C_4  and  N_5
REMARK    5  A    between atoms: C_6  and  C_8
REMARK    6  A    between atoms: C_15  and  C_24
REMARK    7  A    between atoms: C_28  and  N_30
REMARK                            x       y       z     vdW  Elec       q    Type
REMARK                         _______ _______ _______ _____ _____    ______ ____
ROOT
ATOM      1  C   UNL     1       0.971   0.597  -0.270  0.00  0.00    +0.058 A 
ATOM      2  C   UNL     1       1.377   1.924  -0.397  0.00  0.00    +0.015 A 
ATOM      3  C   UNL     1       2.718   2.231  -0.472  0.00  0.00    +0.001 A 
ATOM      4  C   UNL     1       3.662   1.218  -0.414  0.00  0.00    +0.006 A 
ATOM      5  C   UNL     1       3.279  -0.098  -0.279  0.00  0.00    -0.019 A 
ATOM      6  C   UNL     1       1.924  -0.440  -0.215  0.00  0.00    +0.044 A 
ATOM      7  N   UNL     1       1.454  -1.739  -0.124  0.00  0.00    -0.336 N 
ATOM      8  C   UNL     1       2.459  -2.801   0.041  0.00  0.00    +0.105 C 
ATOM      9  C   UNL     1       3.633  -2.445  -0.846  0.00  0.00    +0.029 C 
ATOM     10  C   UNL     1       4.270  -1.190  -0.172  0.00  0.00    +0.049 C 
ATOM     11  C   UNL     1       5.614  -1.119  -0.794  0.00  0.00    -0.023 C 
ATOM     12  C   UNL     1       5.986  -2.349  -1.136  0.00  0.00    -0.030 C 
ATOM     13  C   UNL     1       4.874  -3.344  -0.793  0.00  0.00    +0.033 C 
ATOM     14  H   UNL     1       0.385  -1.995  -0.169  0.00  0.00    +0.147 HD
ENDROOT
BRANCH   8  15
ATOM     15  C   UNL     1       2.904  -2.868   1.479  0.00  0.00    -0.025 A 
ATOM     16  C   UNL     1       2.784  -1.756   2.292  0.00  0.00    +0.007 A 
ATOM     17  C   UNL     1       3.192  -1.817   3.611  0.00  0.00    +0.022 A 
ATOM     18  C   UNL     1       3.720  -2.991   4.118  0.00  0.00    +0.071 A 
ATOM     19  C   UNL     1       3.839  -4.104   3.305  0.00  0.00    +0.145 A 
ATOM     20  C   UNL     1       3.426  -4.043   1.987  0.00  0.00    +0.039 A 
ATOM     21 CL   UNL     1       4.232  -3.069   5.775  0.00  0.00    -0.081 Cl
BRANCH  19  22
ATOM     22  N   UNL     1       4.403  -5.360   3.846  0.00  0.00    +0.058 N 
ATOM     23  O   UNL     1       4.508  -6.339   3.130  0.00  0.00    -0.126 OA
ATOM     24  O   UNL     1       4.763  -5.415   5.009  0.00  0.00    -0.126 OA
ENDBRANCH  19  22
ENDBRANCH   8  15
BRANCH   1  26
ATOM     25  N   UNL     1      -1.381   1.264  -0.242  0.00  0.00    -0.311 N 
ATOM     26  C   UNL     1      -0.466   0.276  -0.191  0.00  0.00    +0.246 C 
ATOM     27  O   UNL     1      -0.825  -0.880  -0.080  0.00  0.00    -0.270 OA
ATOM     28  H   UNL     1      -1.056   2.310  -0.342  0.00  0.00    +0.149 HD
BRANCH  25  29
ATOM     29  C   UNL     1      -2.809   0.945  -0.164  0.00  0.00    +0.104 C 
BRANCH  29  30
ATOM     30  C   UNL     1      -3.625   2.236  -0.244  0.00  0.00    +0.018 C 
BRANCH  30  32
ATOM     31  C   UNL     1      -5.933   3.195  -0.242  0.00  0.00    +0.004 C 
ATOM     32  C   UNL     1      -5.116   1.903  -0.162  0.00  0.00    -0.002 C 
ENDBRANCH  30  32
ENDBRANCH  29  30
ENDBRANCH  25  29
ENDBRANCH   1  26
TORSDOF 6
