REMARK  Name = ZINC38848364
REMARK  11 active torsions:
REMARK  status: ('A' for Active; 'I' for Inactive)
REMARK    1  A    between atoms: C_1  and  C_2
REMARK    2  A    between atoms: C_2  and  C_3
REMARK    3  A    between atoms: C_3  and  C_4
REMARK    4  A    between atoms: C_4  and  C_5
REMARK    5  A    between atoms: C_5  and  O_6
REMARK    6  A    between atoms: O_6  and  C_7
REMARK    7  A    between atoms: C_11  and  C_13
REMARK    8  A    between atoms: N_15  and  C_16
REMARK    9  A    between atoms: C_16  and  C_17
REMARK   10  A    between atoms: C_17  and  C_18
REMARK   11  A    between atoms: C_18  and  N_19
REMARK                            x       y       z     vdW  Elec       q    Type
REMARK                         _______ _______ _______ _____ _____    ______ ____
ROOT
ATOM      1  C   UNL     1      -5.326  -8.207  -0.063  0.00  0.00    +0.252 C 
ATOM      2  O   UNL     1      -5.218  -7.000   0.032  0.00  0.00    -0.270 OA
ATOM      3  N   UNL     1      -6.549  -8.773  -0.095  0.00  0.00    -0.246 N 
ATOM      4  C   UNL     1      -7.680  -7.976  -0.152  0.00  0.00    +0.168 A 
ATOM      5  N   UNL     1      -8.935  -8.336  -0.278  0.00  0.00    -0.221 NA
ATOM      6  C   UNL     1      -9.947  -7.441  -0.321  0.00  0.00    +0.116 A 
ATOM      7  C   UNL     1     -11.334  -7.695  -0.453  0.00  0.00    +0.152 A 
ATOM      8  C   UNL     1     -12.237  -6.662  -0.480  0.00  0.00    +0.079 A 
ATOM      9  C   UNL     1     -11.827  -5.338  -0.379  0.00  0.00    +0.127 A 
ATOM     10  C   UNL     1     -10.478  -5.055  -0.248  0.00  0.00    +0.055 A 
ATOM     11  C   UNL     1      -9.568  -6.084  -0.220  0.00  0.00    +0.046 A 
ATOM     12  S   UNL     1      -7.802  -6.194  -0.067  0.00  0.00    -0.052 S 
ATOM     13  F   UNL     1     -12.735  -4.338  -0.409  0.00  0.00    -0.205 F 
ATOM     14  F   UNL     1     -11.773  -8.969  -0.554  0.00  0.00    -0.203 F 
ENDROOT
BRANCH   1  19
ATOM     15  C   UNL     1      -2.887 -11.001   0.546  0.00  0.00    +0.121 A 
ATOM     16  C   UNL     1      -1.847 -10.637  -0.300  0.00  0.00    +0.046 A 
ATOM     17  C   UNL     1      -1.940  -9.489  -1.064  0.00  0.00    +0.004 A 
ATOM     18  C   UNL     1      -3.067  -8.696  -0.991  0.00  0.00    +0.013 A 
ATOM     19  C   UNL     1      -4.117  -9.053  -0.144  0.00  0.00    +0.041 A 
ATOM     20  C   UNL     1      -4.024 -10.216   0.623  0.00  0.00    +0.058 A 
BRANCH  15  21
ATOM     21  O   UNL     1      -2.789 -12.131   1.295  0.00  0.00    -0.492 OA
BRANCH  21  22
ATOM     22  C   UNL     1      -1.587 -12.893   1.166  0.00  0.00    +0.229 C 
BRANCH  22  23
ATOM     23  C   UNL     1      -1.661 -14.119   2.079  0.00  0.00    +0.041 C 
BRANCH  23  24
ATOM     24  C   UNL     1      -0.374 -14.935   1.941  0.00  0.00    +0.003 C 
BRANCH  24  26
ATOM     25  C   UNL     1       0.839 -16.978   2.715  0.00  0.00    +0.004 C 
ATOM     26  C   UNL     1      -0.448 -16.162   2.853  0.00  0.00    -0.003 C 
ENDBRANCH  24  26
ENDBRANCH  23  24
ENDBRANCH  22  23
ENDBRANCH  21  22
ENDBRANCH  15  21
ENDBRANCH   1  19
BRANCH   3  27
ATOM     27  C   UNL     1      -6.682 -10.232  -0.067  0.00  0.00    +0.117 C 
BRANCH  27  28
ATOM     28  C   UNL     1      -6.998 -10.689   1.358  0.00  0.00    +0.041 C 
BRANCH  28  29
ATOM     29  C   UNL     1      -6.986 -12.217   1.418  0.00  0.00    +0.124 C 
BRANCH  29  30
ATOM     30  N   UNL     1      -7.289 -12.655   2.783  0.00  0.00    -0.338 N 
ATOM     31  C   UNL     1      -6.383 -12.874   3.785  0.00  0.00    +0.104 A 
ATOM     32  C   UNL     1      -7.085 -13.262   4.867  0.00  0.00    +0.101 A 
ATOM     33  N   UNL     1      -8.384 -13.279   4.535  0.00  0.00    -0.352 N 
ATOM     34  C   UNL     1      -8.514 -12.911   3.289  0.00  0.00    +0.173 A 
ATOM     35  H   UNL     1      -9.113 -13.522   5.127  0.00  0.00    +0.166 HD
ENDBRANCH  29  30
ENDBRANCH  28  29
ENDBRANCH  27  28
ENDBRANCH   3  27
TORSDOF 10
