REMARK  Name = ZINC13571356
REMARK  6 active torsions:
REMARK  status: ('A' for Active; 'I' for Inactive)
REMARK    1  A    between atoms: C_1  and  C_2
REMARK    2  A    between atoms: C_10  and  C_12
REMARK    3  A    between atoms: C_15  and  N_18
REMARK    4  A    between atoms: C_19  and  C_21
REMARK    5  A    between atoms: C_25  and  C_28
REMARK    6  A    between atoms: C_31  and  O_34
REMARK                            x       y       z     vdW  Elec       q    Type
REMARK                         _______ _______ _______ _____ _____    ______ ____
ROOT
ATOM      1  C   UNL     1      -0.203   1.115   0.226  0.00  0.00    +0.069 C 
ATOM      2  C   UNL     1      -0.127  -0.375   0.016  0.00  0.00    +0.087 A 
ATOM      3  C   UNL     1      -0.042  -1.025  -1.213  0.00  0.00    +0.049 A 
ATOM      4  C   UNL     1       0.009  -2.370  -0.978  0.00  0.00    +0.226 A 
ATOM      5  O   UNL     1      -0.046  -2.560   0.340  0.00  0.00    -0.339 OA
ATOM      6  N   UNL     1      -0.123  -1.284   0.957  0.00  0.00    -0.081 NA
ATOM      7  N   UNL     1       0.105  -3.280  -2.015  0.00  0.00    -0.286 N 
ATOM      8  C   UNL     1       0.455  -2.822  -3.262  0.00  0.00    +0.019 C 
ATOM      9  C   UNL     1       0.420  -1.512  -3.585  0.00  0.00    +0.024 C 
ATOM     10  C   UNL     1      -0.008  -0.446  -2.600  0.00  0.00    +0.091 C 
ATOM     11  C   UNL     1       0.783  -1.077  -4.873  0.00  0.00    +0.162 C 
ATOM     12  O   UNL     1       0.765   0.113  -5.124  0.00  0.00    -0.292 OA
ATOM     13  C   UNL     1       1.192  -2.047  -5.945  0.00  0.00    +0.088 C 
ATOM     14  C   UNL     1       0.511  -3.394  -5.681  0.00  0.00    +0.032 C 
ATOM     15  C   UNL     1       0.892  -3.857  -4.273  0.00  0.00    +0.059 C 
ATOM     16  H   UNL     1      -0.072  -4.222  -1.865  0.00  0.00    +0.155 HD
ENDROOT
BRANCH  10  17
ATOM     17  C   UNL     1      -1.381   0.054  -2.968  0.00  0.00    -0.035 A 
ATOM     18  C   UNL     1      -2.451  -0.821  -2.991  0.00  0.00    +0.006 A 
ATOM     19  C   UNL     1      -3.711  -0.365  -3.328  0.00  0.00    +0.023 A 
ATOM     20  C   UNL     1      -3.902   0.974  -3.644  0.00  0.00    +0.033 A 
ATOM     21  C   UNL     1      -2.825   1.850  -3.620  0.00  0.00    +0.023 A 
ATOM     22  C   UNL     1      -1.569   1.389  -3.278  0.00  0.00    +0.006 A 
BRANCH  20  23
ATOM     23  N   UNL     1      -5.176   1.438  -3.987  0.00  0.00    -0.286 N 
ATOM     24  C   UNL     1      -6.269   0.892  -3.417  0.00  0.00    +0.214 C 
ATOM     25  O   UNL     1      -6.145   0.065  -2.538  0.00  0.00    -0.276 OA
ATOM     26  C   UNL     1      -7.644   1.308  -3.872  0.00  0.00    +0.109 C 
ATOM     27  H   UNL     1      -5.274   2.154  -4.634  0.00  0.00    +0.155 HD
ENDBRANCH  20  23
ENDBRANCH  10  17
BRANCH  14  28
ATOM     28  C   UNL     1       0.979  -4.407  -6.694  0.00  0.00    -0.043 A 
ATOM     29  C   UNL     1       2.321  -4.731  -6.777  0.00  0.00    +0.007 A 
ATOM     30  C   UNL     1       2.752  -5.659  -7.705  0.00  0.00    +0.045 A 
ATOM     31  C   UNL     1       1.838  -6.267  -8.553  0.00  0.00    +0.117 A 
ATOM     32  C   UNL     1       0.492  -5.941  -8.467  0.00  0.00    +0.045 A 
ATOM     33  C   UNL     1       0.065  -5.016  -7.534  0.00  0.00    +0.007 A 
BRANCH  31  34
ATOM     34  O   UNL     1       2.260  -7.180  -9.467  0.00  0.00    -0.507 OA
ATOM     35  H   UNL     1       2.264  -8.090  -9.141  0.00  0.00    +0.292 HD
ENDBRANCH  31  34
ENDBRANCH  14  28
TORSDOF 4
