REMARK  Name = ZINC40321475
REMARK  7 active torsions:
REMARK  status: ('A' for Active; 'I' for Inactive)
REMARK    1  A    between atoms: C_4  and  S_7
REMARK    2  A    between atoms: S_7  and  C_10
REMARK    3  A    between atoms: C_13  and  C_15
REMARK    4  A    between atoms: N_17  and  C_18
REMARK    5  A    between atoms: C_18  and  C_19
REMARK    6  A    between atoms: C_19  and  C_21
REMARK    7  A    between atoms: C_19  and  N_28
REMARK                            x       y       z     vdW  Elec       q    Type
REMARK                         _______ _______ _______ _____ _____    ______ ____
ROOT
ATOM      1  C   UNL     1       8.209  -0.410   6.713  0.00  0.00    +0.279 C 
ATOM      2  O   UNL     1       7.060  -0.720   6.965  0.00  0.00    -0.267 OA
ATOM      3  N   UNL     1       8.476   0.781   6.141  0.00  0.00    -0.310 N 
ATOM      4  H   UNL     1       9.392   1.028   5.939  0.00  0.00    +0.149 HD
ENDROOT
BRANCH   1   8
ATOM      5  C   UNL     1      11.322  -2.172   7.221  0.00  0.00    +0.246 A 
ATOM      6  C   UNL     1      10.470  -3.092   7.725  0.00  0.00    +0.070 A 
ATOM      7  C   UNL     1       9.175  -2.563   7.608  0.00  0.00    +0.056 A 
ATOM      8  C   UNL     1       9.304  -1.332   7.031  0.00  0.00    +0.192 A 
ATOM      9  O   UNL     1      10.616  -1.112   6.808  0.00  0.00    -0.433 OA
BRANCH   5  10
ATOM     10  S   UNL     1      13.074  -2.339   7.129  0.00  0.00    +0.058 S 
ATOM     11  O   UNL     1      13.445  -3.280   8.127  0.00  0.00    -0.161 OA
ATOM     12  O   UNL     1      13.605  -1.022   7.088  0.00  0.00    -0.161 OA
BRANCH  10  16
ATOM     13  C   UNL     1      14.031  -4.244   3.135  0.00  0.00    +0.000 A 
ATOM     14  C   UNL     1      13.961  -2.868   3.245  0.00  0.00    +0.002 A 
ATOM     15  C   UNL     1      13.668  -2.286   4.465  0.00  0.00    +0.027 A 
ATOM     16  C   UNL     1      13.445  -3.080   5.574  0.00  0.00    +0.097 A 
ATOM     17  C   UNL     1      13.515  -4.457   5.464  0.00  0.00    +0.027 A 
ATOM     18  C   UNL     1      13.809  -5.038   4.245  0.00  0.00    +0.002 A 
ENDBRANCH  10  16
ENDBRANCH   5  10
ENDBRANCH   1   8
BRANCH   3  19
ATOM     19  C   UNL     1       7.382   1.702   5.823  0.00  0.00    +0.094 C 
BRANCH  19  20
ATOM     20  C   UNL     1       7.960   3.022   5.308  0.00  0.00    -0.020 C 
BRANCH  20  21
ATOM     21  C   UNL     1       8.763   3.679   6.401  0.00  0.00    -0.059 A 
ATOM     22  C   UNL     1       8.121   4.384   7.402  0.00  0.00    +0.003 A 
ATOM     23  C   UNL     1       8.857   4.986   8.404  0.00  0.00    +0.020 A 
ATOM     24  C   UNL     1      10.237   4.884   8.406  0.00  0.00    +0.041 A 
ATOM     25  C   UNL     1      10.879   4.178   7.404  0.00  0.00    +0.020 A 
ATOM     26  C   UNL     1      10.141   3.571   6.405  0.00  0.00    +0.003 A 
ATOM     27 CL   UNL     1      11.162   5.641   9.665  0.00  0.00    -0.084 Cl
ENDBRANCH  20  21
BRANCH  20  28
ATOM     28  N   UNL     1       6.863   3.912   4.904  0.00  0.00    +0.385 N 
ATOM     29  C   UNL     1       6.112   3.293   3.805  0.00  0.00    -0.078 C 
ATOM     30  C   UNL     1       4.920   4.178   3.434  0.00  0.00    -0.019 C 
ATOM     31  C   UNL     1       5.431   5.553   2.995  0.00  0.00    -0.004 C 
ATOM     32  C   UNL     1       6.274   6.158   4.121  0.00  0.00    -0.019 C 
ATOM     33  C   UNL     1       7.416   5.199   4.466  0.00  0.00    -0.078 C 
ATOM     34  H   UNL     1       6.246   4.061   5.688  0.00  0.00    -0.081 HD
ENDBRANCH  20  28
ENDBRANCH  19  20
ENDBRANCH   3  19
TORSDOF 7
