REMARK  Name = ZINC08022301
REMARK  5 active torsions:
REMARK  status: ('A' for Active; 'I' for Inactive)
REMARK    1  A    between atoms: C_1  and  C_2
REMARK    2  A    between atoms: C_2  and  C_4
REMARK    3  A    between atoms: C_2  and  N_11
REMARK    4  A    between atoms: C_12  and  C_14
REMARK    5  A    between atoms: C_14  and  C_15
REMARK                            x       y       z     vdW  Elec       q    Type
REMARK                         _______ _______ _______ _____ _____    ______ ____
ROOT
ATOM      1  N   UNL     1      -5.561   3.497   1.741  0.00  0.00    -0.308 N 
ATOM      2  C   UNL     1      -4.262   3.747   1.484  0.00  0.00    +0.219 C 
ATOM      3  O   UNL     1      -3.479   3.889   2.399  0.00  0.00    -0.275 OA
ATOM      4  H   UNL     1      -6.187   3.384   1.009  0.00  0.00    +0.149 HD
ENDROOT
BRANCH   1   6
ATOM      5  C   UNL     1      -5.804   1.973   3.638  0.00  0.00    +0.033 C 
ATOM      6  C   UNL     1      -6.027   3.398   3.126  0.00  0.00    +0.101 C 
BRANCH   6   7
ATOM      7  C   UNL     1      -7.497   3.728   3.186  0.00  0.00    -0.014 A 
ATOM      8  C   UNL     1      -8.289   3.560   2.067  0.00  0.00    +0.006 A 
ATOM      9  C   UNL     1      -9.638   3.860   2.123  0.00  0.00    +0.000 A 
ATOM     10  C   UNL     1     -10.192   4.336   3.297  0.00  0.00    +0.001 A 
ATOM     11  C   UNL     1      -9.399   4.510   4.415  0.00  0.00    +0.015 A 
ATOM     12  C   UNL     1      -8.050   4.206   4.360  0.00  0.00    +0.023 A 
ATOM     13 BR   UNL     1      -6.965   4.443   5.890  0.00  0.00    -0.050 Br
ENDBRANCH   6   7
ENDBRANCH   1   6
BRANCH   2  14
ATOM     14  C   UNL     1      -3.782   3.850   0.059  0.00  0.00    +0.155 C 
BRANCH  14  15
ATOM     15  C   UNL     1      -2.301   4.132   0.047  0.00  0.00    +0.100 A 
ATOM     16  C   UNL     1      -1.228   3.134   0.031  0.00  0.00    +0.045 A 
ATOM     17  C   UNL     1      -1.208   1.737   0.017  0.00  0.00    +0.013 A 
ATOM     18  C   UNL     1      -0.013   1.076   0.008  0.00  0.00    +0.001 A 
ATOM     19  C   UNL     1       1.183   1.781   0.000  0.00  0.00    +0.004 A 
ATOM     20  C   UNL     1       1.185   3.159   0.008  0.00  0.00    +0.049 A 
ATOM     21  C   UNL     1      -0.020   3.851   0.023  0.00  0.00    +0.168 A 
ATOM     22  O   UNL     1      -0.337   5.161   0.033  0.00  0.00    -0.354 OA
ATOM     23  N   UNL     1      -1.743   5.303   0.048  0.00  0.00    -0.082 NA
ENDBRANCH  14  15
ENDBRANCH   2  14
TORSDOF 4
