REMARK  Name = ZINC09590036
REMARK  6 active torsions:
REMARK  status: ('A' for Active; 'I' for Inactive)
REMARK    1  A    between atoms: C_1  and  C_2
REMARK    2  A    between atoms: C_7  and  N_12
REMARK    3  A    between atoms: C_9  and  C_11
REMARK    4  A    between atoms: C_13  and  C_15
REMARK    5  A    between atoms: N_25  and  C_28
REMARK    6  A    between atoms: C_28  and  C_29
REMARK                            x       y       z     vdW  Elec       q    Type
REMARK                         _______ _______ _______ _____ _____    ______ ____
ROOT
ATOM      1  C   UNL     1       1.258   1.969   0.001  0.00  0.00    +0.039 A 
ATOM      2  C   UNL     1       1.235   3.366   0.003  0.00  0.00    +0.014 A 
ATOM      3  C   UNL     1       2.413   4.080   0.000  0.00  0.00    +0.016 A 
ATOM      4  C   UNL     1       3.630   3.404  -0.015  0.00  0.00    +0.063 A 
ATOM      5  C   UNL     1       3.659   1.998  -0.023  0.00  0.00    +0.056 A 
ATOM      6  C   UNL     1       2.471   1.285  -0.015  0.00  0.00    +0.039 A 
ATOM      7  N   UNL     1       4.890   1.356  -0.037  0.00  0.00    -0.307 N 
ATOM      8  H   UNL     1       4.925   0.387  -0.043  0.00  0.00    +0.170 HD
ATOM      9  C   UNL     1       6.033   2.063  -0.044  0.00  0.00    +0.330 A 
ATOM     10  O   UNL     1       7.089   1.461  -0.058  0.00  0.00    -0.246 OA
ATOM     11  N   UNL     1       6.058   3.405  -0.038  0.00  0.00    -0.256 N 
ATOM     12  C   UNL     1       4.917   4.128  -0.024  0.00  0.00    +0.265 A 
ATOM     13  O   UNL     1       4.949   5.343  -0.017  0.00  0.00    -0.267 OA
ENDROOT
BRANCH   1  15
ATOM     14  N   UNL     1      -1.191   1.869   0.018  0.00  0.00    -0.308 N 
ATOM     15  C   UNL     1      -0.014   1.211   0.009  0.00  0.00    +0.244 C 
ATOM     16  O   UNL     1       0.002  -0.004   0.002  0.00  0.00    -0.270 OA
ATOM     17  H   UNL     1      -1.204   2.839   0.023  0.00  0.00    +0.149 HD
BRANCH  14  23
ATOM     18  C   UNL     1      -4.832   4.122  -0.344  0.00  0.00    +0.008 C 
ATOM     19  C   UNL     1      -3.722   3.256   0.255  0.00  0.00    -0.009 C 
ATOM     20  C   UNL     1      -4.089   2.880   1.692  0.00  0.00    +0.003 C 
ATOM     21  C   UNL     1      -2.979   2.014   2.292  0.00  0.00    +0.002 C 
ATOM     22  C   UNL     1      -2.816   0.743   1.456  0.00  0.00    +0.022 C 
ATOM     23  C   UNL     1      -2.449   1.119   0.020  0.00  0.00    +0.076 C 
ATOM     24  C   UNL     1      -3.559   1.985  -0.580  0.00  0.00    +0.009 C 
ATOM     25  C   UNL     1      -3.192   2.362  -2.017  0.00  0.00    +0.009 C 
ENDBRANCH  14  23
ENDBRANCH   1  15
BRANCH  11  26
ATOM     26  C   UNL     1       7.348   4.099  -0.046  0.00  0.00    +0.165 C 
BRANCH  26  27
ATOM     27  C   UNL     1       7.803   4.330   1.372  0.00  0.00    -0.024 A 
ATOM     28  C   UNL     1       8.579   3.380   2.010  0.00  0.00    +0.009 A 
ATOM     29  C   UNL     1       8.999   3.587   3.311  0.00  0.00    +0.050 A 
ATOM     30  C   UNL     1       8.643   4.747   3.978  0.00  0.00    +0.166 A 
ATOM     31  C   UNL     1       7.861   5.704   3.336  0.00  0.00    +0.167 A 
ATOM     32  C   UNL     1       7.449   5.493   2.030  0.00  0.00    +0.055 A 
ATOM     33  O   UNL     1       7.649   6.743   4.195  0.00  0.00    -0.453 OA
ATOM     34  C   UNL     1       8.646   6.601   5.224  0.00  0.00    +0.466 C 
ATOM     35  O   UNL     1       8.920   5.187   5.240  0.00  0.00    -0.453 OA
ENDBRANCH  26  27
ENDBRANCH  11  26
TORSDOF 4
