REMARK  Name = ZINC65168210
REMARK  5 active torsions:
REMARK  status: ('A' for Active; 'I' for Inactive)
REMARK    1  A    between atoms: C_1  and  C_2
REMARK    2  A    between atoms: C_2  and  C_3
REMARK    3  A    between atoms: C_2  and  C_4
REMARK    4  A    between atoms: C_8  and  C_10
REMARK    5  A    between atoms: C_16  and  C_18
REMARK                            x       y       z     vdW  Elec       q    Type
REMARK                         _______ _______ _______ _____ _____    ______ ____
ROOT
ATOM      1  C   UNL     1      -0.035  -2.649  -0.480  0.00  0.00    +0.013 C 
ATOM      2  C   UNL     1       0.235  -2.069  -1.871  0.00  0.00    +0.024 C 
ATOM      3  C   UNL     1       1.597  -2.562  -2.369  0.00  0.00    +0.108 C 
ATOM      4  N   UNL     1       1.618  -4.030  -2.313  0.00  0.00    -0.300 N 
ATOM      5  C   UNL     1       1.285  -4.693  -1.045  0.00  0.00    +0.108 C 
ATOM      6  C   UNL     1      -0.074  -4.176  -0.561  0.00  0.00    +0.024 C 
ATOM      7  C   UNL     1       1.938  -4.754  -3.404  0.00  0.00    +0.242 C 
ATOM      8  O   UNL     1       2.211  -4.195  -4.444  0.00  0.00    -0.273 OA
ENDROOT
BRANCH   7   9
ATOM      9  C   UNL     1       1.956  -6.259  -3.330  0.00  0.00    +0.190 C 
ATOM     10  C   UNL     1       2.999  -6.720  -2.337  0.00  0.00    +0.016 C 
ATOM     11  C   UNL     1       3.881  -7.468  -3.039  0.00  0.00    -0.004 A 
ATOM     12  C   UNL     1       5.101  -8.187  -2.656  0.00  0.00    +0.010 A 
ATOM     13  C   UNL     1       5.789  -8.863  -3.604  0.00  0.00    +0.001 A 
ATOM     14  C   UNL     1       5.367  -8.894  -4.940  0.00  0.00    +0.002 A 
ATOM     15  C   UNL     1       4.256  -8.258  -5.368  0.00  0.00    +0.026 A 
ATOM     16  C   UNL     1       3.456  -7.516  -4.456  0.00  0.00    +0.043 A 
ATOM     17  N   UNL     1       2.353  -6.825  -4.624  0.00  0.00    -0.370 N 
ATOM     18  H   UNL     1       1.879  -6.707  -5.462  0.00  0.00    +0.161 HD
ENDBRANCH   7   9
BRANCH   1  23
ATOM     19  C   UNL     1      -1.323  -0.606   0.297  0.00  0.00    +0.099 C 
ATOM     20  C   UNL     1      -1.920   0.010  -0.954  0.00  0.00    +0.213 C 
ATOM     21  O   UNL     1      -2.200  -0.996  -1.821  0.00  0.00    -0.391 OA
ATOM     22  N   UNL     1      -2.426  -2.216  -1.021  0.00  0.00    -0.150 NA
ATOM     23  C   UNL     1      -1.379  -2.131   0.036  0.00  0.00    +0.108 C 
ATOM     24  N   UNL     1      -2.125   1.268  -1.158  0.00  0.00    -0.269 NA
ATOM     25  H   UNL     1      -3.350  -2.217  -0.616  0.00  0.00    +0.167 HD
ATOM     26  H   UNL     1      -2.514   1.566  -1.996  0.00  0.00    +0.190 HD
BRANCH  19  28
ATOM     27  C   UNL     1       0.181   1.381   0.462  0.00  0.00    +0.008 C 
ATOM     28  C   UNL     1       0.124  -0.148   0.481  0.00  0.00    -0.004 C 
ATOM     29  C   UNL     1       0.655  -0.661   1.821  0.00  0.00    +0.008 C 
ENDBRANCH  19  28
ENDBRANCH   1  23
TORSDOF 3
