REMARK  Name = ZINC20569098
REMARK  10 active torsions:
REMARK  status: ('A' for Active; 'I' for Inactive)
REMARK    1  A    between atoms: C_1  and  C_2
REMARK    2  A    between atoms: C_3  and  C_24
REMARK    3  A    between atoms: C_12  and  N_20
REMARK    4  A    between atoms: C_13  and  C_14
REMARK    5  A    between atoms: C_14  and  O_16
REMARK    6  A    between atoms: O_16  and  C_17
REMARK    7  A    between atoms: C_17  and  C_18
REMARK    8  A    between atoms: C_17  and  C_19
REMARK    9  A    between atoms: C_24  and  O_26
REMARK   10  A    between atoms: O_26  and  C_27
REMARK                            x       y       z     vdW  Elec       q    Type
REMARK                         _______ _______ _______ _____ _____    ______ ____
ROOT
ATOM      1  C   UNL     1       0.052   0.782   6.123  0.00  0.00    +0.087 C 
ATOM      2  C   UNL     1      -1.004   1.613   5.440  0.00  0.00    +0.117 C 
ATOM      3  C   UNL     1      -1.123   1.715   4.106  0.00  0.00    +0.100 C 
ATOM      4  C   UNL     1      -2.304   2.632   3.869  0.00  0.00    +0.164 C 
ATOM      5  C   UNL     1      -3.391   1.899   3.138  0.00  0.00    -0.000 A 
ATOM      6  C   UNL     1      -4.137   0.942   3.801  0.00  0.00    +0.007 A 
ATOM      7  C   UNL     1      -5.140   0.260   3.139  0.00  0.00    +0.000 A 
ATOM      8  C   UNL     1      -5.402   0.529   1.808  0.00  0.00    +0.002 A 
ATOM      9  C   UNL     1      -4.662   1.482   1.139  0.00  0.00    +0.023 A 
ATOM     10  C   UNL     1      -3.654   2.171   1.803  0.00  0.00    +0.037 A 
ATOM     11  N   UNL     1      -2.909   3.137   1.121  0.00  0.00    -0.302 N 
ATOM     12  C   UNL     1      -2.180   4.065   1.816  0.00  0.00    +0.097 C 
ATOM     13  C   UNL     1      -1.870   3.864   3.138  0.00  0.00    +0.098 C 
ATOM     14  C   UNL     1      -2.760   2.982   5.269  0.00  0.00    +0.332 C 
ATOM     15  O   UNL     1      -3.683   3.697   5.579  0.00  0.00    -0.249 OA
ATOM     16  O   UNL     1      -1.923   2.332   6.097  0.00  0.00    -0.429 OA
ATOM     17  H   UNL     1      -2.907   3.155   0.021  0.00  0.00    +0.153 HD
ENDROOT
BRANCH  12  18
ATOM     18  N   UNL     1      -1.755   5.205   1.185  0.00  0.00    -0.346 N 
ATOM     19  H   UNL     1      -1.169   5.954   1.739  0.00  0.00    +0.143 HD
ATOM     20  H   UNL     1      -2.000   5.371   0.126  0.00  0.00    +0.143 HD
ENDBRANCH  12  18
BRANCH  13  21
ATOM     21  C   UNL     1      -1.130   4.837   3.821  0.00  0.00    +0.340 C 
ATOM     22  O   UNL     1      -0.868   5.896   3.277  0.00  0.00    -0.245 OA
BRANCH  21  23
ATOM     23  O   UNL     1      -0.707   4.603   5.082  0.00  0.00    -0.459 OA
BRANCH  23  24
ATOM     24  C   UNL     1       0.043   5.640   5.718  0.00  0.00    +0.171 C 
ATOM     25  C   UNL     1      -0.911   6.577   6.461  0.00  0.00    +0.052 C 
ATOM     26  C   UNL     1       1.028   5.021   6.713  0.00  0.00    +0.052 C 
ENDBRANCH  23  24
ENDBRANCH  21  23
ENDBRANCH  13  21
BRANCH   3  27
ATOM     27  C   UNL     1      -0.314   1.090   3.123  0.00  0.00    +0.340 C 
ATOM     28  O   UNL     1       0.609   0.374   3.462  0.00  0.00    -0.245 OA
BRANCH  27  29
ATOM     29  O   UNL     1      -0.568   1.290   1.814  0.00  0.00    -0.465 OA
ATOM     30  C   UNL     1       0.287   0.629   0.879  0.00  0.00    +0.280 C 
ENDBRANCH  27  29
ENDBRANCH   3  27
TORSDOF 6
