REMARK  Name = ZINC12564374
REMARK  7 active torsions:
REMARK  status: ('A' for Active; 'I' for Inactive)
REMARK    1  A    between atoms: C_1  and  N_2
REMARK    2  A    between atoms: N_4  and  N_19
REMARK    3  A    between atoms: C_5  and  C_8
REMARK    4  A    between atoms: C_20  and  C_21
REMARK    5  A    between atoms: C_23  and  O_29
REMARK    6  A    between atoms: C_24  and  O_28
REMARK    7  A    between atoms: O_29  and  C_30
REMARK                            x       y       z     vdW  Elec       q    Type
REMARK                         _______ _______ _______ _____ _____    ______ ____
ROOT
ATOM      1  C   UNL     1       2.933   7.897   0.780  0.00  0.00    +0.173 C 
ATOM      2  N   UNL     1       3.239   6.475   0.603  0.00  0.00    -0.263 NA
ATOM      3  C   UNL     1       2.283   5.632   0.304  0.00  0.00    +0.189 A 
ATOM      4  N   UNL     1       2.354   4.268   0.102  0.00  0.00    -0.208 N 
ATOM      5  C   UNL     1       1.203   3.593  -0.209  0.00  0.00    +0.082 A 
ATOM      6  C   UNL     1       0.038   4.266  -0.300  0.00  0.00    +0.077 A 
ATOM      7  S   UNL     1       0.541   5.942   0.056  0.00  0.00    -0.056 S 
ENDROOT
BRANCH   5   8
ATOM      8  C   UNL     1       1.237   2.132  -0.439  0.00  0.00    +0.003 A 
ATOM      9  C   UNL     1       2.383   1.534  -0.966  0.00  0.00    +0.014 A 
ATOM     10  C   UNL     1       2.416   0.171  -1.180  0.00  0.00    +0.048 A 
ATOM     11  C   UNL     1       1.311  -0.607  -0.873  0.00  0.00    +0.142 A 
ATOM     12  C   UNL     1       0.163  -0.015  -0.347  0.00  0.00    +0.076 A 
ATOM     13  C   UNL     1       0.123   1.350  -0.130  0.00  0.00    +0.037 A 
ATOM     14  N   UNL     1      -0.946  -0.819  -0.045  0.00  0.00    -0.280 N 
ATOM     15  C   UNL     1      -0.782  -2.158   0.035  0.00  0.00    +0.255 C 
ATOM     16  O   UNL     1      -1.732  -2.875   0.267  0.00  0.00    -0.272 OA
ATOM     17  C   UNL     1       0.588  -2.756  -0.164  0.00  0.00    +0.325 C 
ATOM     18  O   UNL     1       1.335  -1.952  -1.080  0.00  0.00    -0.481 OA
ATOM     19  H   UNL     1      -1.817  -0.420   0.105  0.00  0.00    +0.155 HD
ENDBRANCH   5   8
BRANCH   4  20
ATOM     20  N   UNL     1       3.575   3.590   0.208  0.00  0.00    -0.172 NA
ATOM     21  C   UNL     1       4.530   4.084   0.937  0.00  0.00    +0.141 C 
BRANCH  21  22
ATOM     22  C   UNL     1       5.854   3.437   0.953  0.00  0.00    -0.001 A 
ATOM     23  C   UNL     1       6.885   3.970   1.732  0.00  0.00    +0.059 A 
ATOM     24  C   UNL     1       8.123   3.356   1.748  0.00  0.00    +0.163 A 
ATOM     25  C   UNL     1       8.346   2.216   0.979  0.00  0.00    +0.173 A 
ATOM     26  C   UNL     1       7.325   1.689   0.201  0.00  0.00    +0.063 A 
ATOM     27  C   UNL     1       6.084   2.293   0.184  0.00  0.00    +0.028 A 
ATOM     28 BR   UNL     1       7.635   0.140  -0.839  0.00  0.00    -0.046 Br
BRANCH  25  29
ATOM     29  O   UNL     1       9.567   1.617   0.992  0.00  0.00    -0.503 OA
ATOM     30  H   UNL     1      10.175   1.950   0.319  0.00  0.00    +0.292 HD
ENDBRANCH  25  29
BRANCH  24  31
ATOM     31  O   UNL     1       9.126   3.869   2.510  0.00  0.00    -0.491 OA
ATOM     32  C   UNL     1       8.828   5.039   3.273  0.00  0.00    +0.277 C 
ENDBRANCH  24  31
ENDBRANCH  21  22
ENDBRANCH   4  20
TORSDOF 5
