REMARK  Name = ZINC64981109
REMARK  7 active torsions:
REMARK  status: ('A' for Active; 'I' for Inactive)
REMARK    1  A    between atoms: C_1  and  C_2
REMARK    2  A    between atoms: C_8  and  S_10
REMARK    3  A    between atoms: S_10  and  C_11
REMARK    4  A    between atoms: C_11  and  C_12
REMARK    5  A    between atoms: N_14  and  C_15
REMARK    6  A    between atoms: C_16  and  C_27
REMARK    7  A    between atoms: N_20  and  C_21
REMARK                            x       y       z     vdW  Elec       q    Type
REMARK                         _______ _______ _______ _____ _____    ______ ____
ROOT
ATOM      1  C   UNL     1       6.809  -3.817  -0.143  0.00  0.00    +0.162 A 
ATOM      2  C   UNL     1       7.988  -3.085  -0.098  0.00  0.00    +0.119 A 
ATOM      3  S   UNL     1       9.214  -4.383  -0.141  0.00  0.00    -0.055 S 
ATOM      4  C   UNL     1       8.097  -5.774  -0.215  0.00  0.00    +0.132 A 
ATOM      5  S   UNL     1       8.462  -7.445  -0.284  0.00  0.00    -0.024 S 
ATOM      6  N   UNL     1       6.887  -5.168  -0.196  0.00  0.00    -0.282 N 
ENDROOT
BRANCH   6   7
ATOM      7  C   UNL     1       5.717  -5.937  -0.238  0.00  0.00    +0.050 A 
ATOM      8  C   UNL     1       4.855  -5.951   0.851  0.00  0.00    +0.026 A 
ATOM      9  C   UNL     1       3.702  -6.710   0.806  0.00  0.00    +0.002 A 
ATOM     10  C   UNL     1       3.405  -7.455  -0.320  0.00  0.00    +0.000 A 
ATOM     11  C   UNL     1       4.262  -7.443  -1.406  0.00  0.00    +0.002 A 
ATOM     12  C   UNL     1       5.414  -6.682  -1.370  0.00  0.00    +0.026 A 
ENDBRANCH   6   7
BRANCH   2  13
ATOM     13  C   UNL     1       8.169  -1.684  -0.034  0.00  0.00    +0.252 C 
ATOM     14  O   UNL     1       7.205  -0.951   0.099  0.00  0.00    -0.270 OA
ATOM     15  N   UNL     1       9.408  -1.161  -0.121  0.00  0.00    -0.325 N 
ATOM     16  H   UNL     1      10.175  -1.745  -0.227  0.00  0.00    +0.145 HD
ATOM     17  H   UNL     1       9.532  -0.200  -0.077  0.00  0.00    +0.145 HD
ENDBRANCH   2  13
BRANCH   1  20
ATOM     18  C   UNL     1       5.237  -2.459  -1.145  0.00  0.00    +0.258 C 
ATOM     19  O   UNL     1       6.086  -2.256  -2.170  0.00  0.00    -0.270 OA
ATOM     20  N   UNL     1       5.603  -3.192  -0.130  0.00  0.00    -0.193 NA
BRANCH  18  21
ATOM     21  C   UNL     1       3.864  -1.839  -1.170  0.00  0.00    +0.178 C 
BRANCH  21  22
ATOM     22  S   UNL     1       2.967  -2.294   0.340  0.00  0.00    -0.078 S 
BRANCH  22  30
ATOM     23  C   UNL     1      -0.256   0.636  -2.340  0.00  0.00    +0.066 C 
ATOM     24  C   UNL     1      -0.010  -0.174  -1.093  0.00  0.00    +0.046 A 
ATOM     25  C   UNL     1      -0.986  -0.277  -0.144  0.00  0.00    +0.093 A 
ATOM     26  C   UNL     1      -0.734  -1.039   1.010  0.00  0.00    +0.252 A 
ATOM     27  O   UNL     1      -1.585  -1.152   1.878  0.00  0.00    -0.268 OA
ATOM     28  N   UNL     1       0.467  -1.642   1.141  0.00  0.00    -0.302 N 
ATOM     29  H   UNL     1       0.662  -2.172   1.929  0.00  0.00    +0.171 HD
ATOM     30  C   UNL     1       1.403  -1.503   0.161  0.00  0.00    +0.170 A 
ATOM     31  N   UNL     1       1.156  -0.791  -0.922  0.00  0.00    -0.228 NA
ENDBRANCH  22  30
ENDBRANCH  21  22
ENDBRANCH  18  21
ENDBRANCH   1  20
TORSDOF 6
