REMARK  Name = ZINC17919604
REMARK  6 active torsions:
REMARK  status: ('A' for Active; 'I' for Inactive)
REMARK    1  A    between atoms: C_1  and  O_2
REMARK    2  A    between atoms: O_2  and  C_3
REMARK    3  A    between atoms: C_6  and  C_9
REMARK    4  A    between atoms: N_18  and  N_19
REMARK    5  A    between atoms: N_19  and  C_20
REMARK    6  A    between atoms: C_30  and  C_32
REMARK                            x       y       z     vdW  Elec       q    Type
REMARK                         _______ _______ _______ _____ _____    ______ ____
ROOT
ATOM      1  C   UNL     1      -4.850  -2.804   0.180  0.00  0.00    +0.080 A 
ATOM      2  C   UNL     1      -4.992  -4.164   0.175  0.00  0.00    +0.077 A 
ATOM      3  S   UNL     1      -6.773  -4.311   0.131  0.00  0.00    -0.058 S 
ATOM      4  C   UNL     1      -7.141  -2.562   0.124  0.00  0.00    +0.189 A 
ATOM      5  N   UNL     1      -5.930  -2.038   0.160  0.00  0.00    -0.223 NA
ATOM      6  N   UNL     1      -8.376  -1.923   0.095  0.00  0.00    -0.130 N 
ATOM      7  C   UNL     1      -9.568  -2.551   0.071  0.00  0.00    +0.294 C 
ATOM      8  O   UNL     1      -9.761  -3.755   0.071  0.00  0.00    -0.266 OA
ATOM      9  C   UNL     1     -10.590  -1.492   0.044  0.00  0.00    +0.173 C 
ATOM     10  N   UNL     1     -11.901  -1.640   0.016  0.00  0.00    -0.175 NA
ATOM     11  C   UNL     1      -9.825  -0.228   0.057  0.00  0.00    +0.122 C 
ATOM     12  N   UNL     1      -8.557  -0.540   0.092  0.00  0.00    -0.168 NA
ENDROOT
BRANCH   1  16
ATOM     13  C   UNL     1      -0.976  -1.049   0.280  0.00  0.00    +0.120 A 
ATOM     14  C   UNL     1      -2.103  -0.239   0.257  0.00  0.00    +0.046 A 
ATOM     15  C   UNL     1      -3.361  -0.805   0.225  0.00  0.00    +0.013 A 
ATOM     16  C   UNL     1      -3.499  -2.192   0.214  0.00  0.00    +0.001 A 
ATOM     17  C   UNL     1      -2.366  -3.003   0.237  0.00  0.00    +0.013 A 
ATOM     18  C   UNL     1      -1.111  -2.431   0.264  0.00  0.00    +0.046 A 
BRANCH  13  20
ATOM     19  C   UNL     1       0.327   0.939   0.327  0.00  0.00    +0.277 C 
ATOM     20  O   UNL     1       0.261  -0.489   0.312  0.00  0.00    -0.495 OA
ENDBRANCH  13  20
ENDBRANCH   1  16
BRANCH  11  21
ATOM     21  C   UNL     1     -10.392   1.141   0.040  0.00  0.00    +0.004 A 
ATOM     22  C   UNL     1     -10.765   1.759   1.233  0.00  0.00    +0.010 A 
ATOM     23  C   UNL     1     -11.293   3.034   1.211  0.00  0.00    +0.001 A 
ATOM     24  C   UNL     1     -11.451   3.699   0.008  0.00  0.00    +0.000 A 
ATOM     25  C   UNL     1     -11.084   3.091  -1.179  0.00  0.00    +0.001 A 
ATOM     26  C   UNL     1     -10.549   1.818  -1.169  0.00  0.00    +0.010 A 
ENDBRANCH  11  21
BRANCH  10  27
ATOM     27  N   UNL     1     -12.668  -0.606   0.090  0.00  0.00    -0.236 N 
ATOM     28  H   UNL     1     -12.283   0.285   0.086  0.00  0.00    +0.174 HD
BRANCH  27  29
ATOM     29  C   UNL     1     -14.047  -0.767   0.177  0.00  0.00    +0.056 A 
ATOM     30  C   UNL     1     -14.594  -2.028   0.295  0.00  0.00    +0.025 A 
ATOM     31  C   UNL     1     -15.972  -2.200   0.383  0.00  0.00    +0.002 A 
ATOM     32  C   UNL     1     -16.817  -1.132   0.355  0.00  0.00    +0.008 A 
ATOM     33  C   UNL     1     -16.301   0.170   0.237  0.00  0.00    -0.016 A 
ATOM     34  C   UNL     1     -14.899   0.359   0.152  0.00  0.00    +0.005 A 
ATOM     35  C   UNL     1     -14.385   1.659   0.038  0.00  0.00    +0.010 A 
ATOM     36  C   UNL     1     -15.237   2.722   0.016  0.00  0.00    +0.001 A 
ATOM     37  C   UNL     1     -16.615   2.537   0.105  0.00  0.00    +0.001 A 
ATOM     38  C   UNL     1     -17.150   1.289   0.205  0.00  0.00    +0.008 A 
ENDBRANCH  27  29
ENDBRANCH  10  27
TORSDOF 5
