REMARK  Name = ZINC39886294
REMARK  4 active torsions:
REMARK  status: ('A' for Active; 'I' for Inactive)
REMARK    1  A    between atoms: C_6  and  N_7
REMARK    2  A    between atoms: C_8  and  C_10
REMARK    3  A    between atoms: C_10  and  C_11
REMARK    4  A    between atoms: N_17  and  N_18
REMARK                            x       y       z     vdW  Elec       q    Type
REMARK                         _______ _______ _______ _____ _____    ______ ____
ROOT
ATOM      1  C   UNL     1      -2.181  -4.325  -0.316  0.00  0.00    +0.149 C 
ATOM      2  C   UNL     1      -3.461  -5.132  -0.454  0.00  0.00    +0.233 C 
ATOM      3  O   UNL     1      -4.212  -4.993  -1.396  0.00  0.00    -0.274 OA
ATOM      4  N   UNL     1      -3.705  -5.995   0.517  0.00  0.00    -0.263 N 
ATOM      5  C   UNL     1      -2.854  -6.159   1.593  0.00  0.00    +0.183 C 
ATOM      6  N   UNL     1      -2.983  -6.976   2.612  0.00  0.00    -0.125 NA
ATOM      7  S   UNL     1      -1.534  -4.997   1.270  0.00  0.00    -0.075 S 
ATOM      8  H   UNL     1      -4.511  -6.533   0.473  0.00  0.00    +0.157 HD
ENDROOT
BRANCH   6   9
ATOM      9  N   UNL     1      -4.096  -7.821   2.694  0.00  0.00    -0.136 NA
ATOM     10  C   UNL     1      -4.224  -8.631   3.704  0.00  0.00    +0.123 C 
ATOM     11  C   UNL     1      -3.163  -8.632   4.771  0.00  0.00    +0.084 C 
ATOM     12  C   UNL     1      -2.686 -10.078   4.985  0.00  0.00    +0.084 C 
ATOM     13  S   UNL     1      -4.104 -11.047   5.583  0.00  0.00    -0.102 S 
ATOM     14  C   UNL     1      -5.411 -10.558   4.505  0.00  0.00    +0.112 C 
ATOM     15  S   UNL     1      -6.824 -11.520   4.413  0.00  0.00    -0.028 S 
ATOM     16  N   UNL     1      -5.326  -9.449   3.760  0.00  0.00    -0.290 N 
ATOM     17  H   UNL     1      -6.094  -9.208   3.220  0.00  0.00    +0.154 HD
ENDBRANCH   6   9
BRANCH   1  18
ATOM     18  C   UNL     1      -2.478  -2.828  -0.204  0.00  0.00    +0.120 C 
BRANCH  18  20
ATOM     19  N   UNL     1      -1.200  -0.722   0.010  0.00  0.00    -0.285 N 
ATOM     20  C   UNL     1      -1.183  -2.065  -0.099  0.00  0.00    +0.219 C 
ATOM     21  O   UNL     1      -0.126  -2.659  -0.113  0.00  0.00    -0.275 OA
ATOM     22  H   UNL     1      -2.044  -0.252   0.098  0.00  0.00    +0.155 HD
BRANCH  19  28
ATOM     23  C   UNL     1       1.072  -0.453  -0.766  0.00  0.00    +0.024 A 
ATOM     24  C   UNL     1       2.256   0.258  -0.778  0.00  0.00    +0.017 A 
ATOM     25  C   UNL     1       2.377   1.416  -0.032  0.00  0.00    +0.018 A 
ATOM     26  C   UNL     1       1.312   1.866   0.729  0.00  0.00    +0.017 A 
ATOM     27  C   UNL     1       0.126   1.159   0.745  0.00  0.00    +0.024 A 
ATOM     28  C   UNL     1       0.002  -0.004  -0.004  0.00  0.00    +0.033 A 
ATOM     29 BR   UNL     1       4.000   2.387  -0.051  0.00  0.00    -0.050 Br
ENDBRANCH  19  28
ENDBRANCH  18  20
ENDBRANCH   1  18
TORSDOF 4
