REMARK  Name = ZINC12695089
REMARK  8 active torsions:
REMARK  status: ('A' for Active; 'I' for Inactive)
REMARK    1  A    between atoms: C_1  and  C_2
REMARK    2  A    between atoms: N_13  and  C_28
REMARK    3  A    between atoms: C_14  and  S_16
REMARK    4  A    between atoms: S_16  and  C_17
REMARK    5  A    between atoms: C_17  and  C_18
REMARK    6  A    between atoms: C_18  and  C_20
REMARK    7  A    between atoms: C_23  and  O_27
REMARK    8  A    between atoms: C_25  and  O_26
REMARK                            x       y       z     vdW  Elec       q    Type
REMARK                         _______ _______ _______ _____ _____    ______ ____
ROOT
ATOM      1  C   UNL     1       5.759   5.208  -3.115  0.00  0.00    +0.008 C 
ATOM      2  C   UNL     1       5.039   4.167  -2.256  0.00  0.00    -0.009 C 
ATOM      3  C   UNL     1       4.747   2.920  -3.096  0.00  0.00    +0.008 C 
ATOM      4  C   UNL     1       4.259   1.787  -2.193  0.00  0.00    +0.037 C 
ATOM      5  C   UNL     1       3.097   2.298  -1.346  0.00  0.00    -0.023 A 
ATOM      6  C   UNL     1       2.894   3.621  -1.181  0.00  0.00    -0.004 A 
ATOM      7  S   UNL     1       1.459   3.741  -0.147  0.00  0.00    -0.073 S 
ATOM      8  C   UNL     1       1.134   2.008   0.061  0.00  0.00    +0.117 A 
ATOM      9  C   UNL     1       2.156   1.394  -0.682  0.00  0.00    +0.076 A 
ATOM     10  C   UNL     1       2.145  -0.037  -0.694  0.00  0.00    +0.268 A 
ATOM     11  O   UNL     1       2.994  -0.656  -1.312  0.00  0.00    -0.267 OA
ATOM     12  N   UNL     1       1.185  -0.689  -0.013  0.00  0.00    -0.255 N 
ATOM     13  C   UNL     1       0.226  -0.010   0.685  0.00  0.00    +0.178 A 
ATOM     14  N   UNL     1       0.214   1.307   0.712  0.00  0.00    -0.215 NA
ATOM     15  C   UNL     1       3.709   4.742  -1.750  0.00  0.00    +0.046 C 
ENDROOT
BRANCH  12  16
ATOM     16  C   UNL     1       1.168  -2.090  -0.020  0.00  0.00    +0.052 A 
ATOM     17  C   UNL     1       1.862  -2.800   0.950  0.00  0.00    +0.026 A 
ATOM     18  C   UNL     1       1.839  -4.181   0.944  0.00  0.00    +0.002 A 
ATOM     19  C   UNL     1       1.134  -4.857  -0.035  0.00  0.00    +0.000 A 
ATOM     20  C   UNL     1       0.446  -4.153  -1.006  0.00  0.00    +0.002 A 
ATOM     21  C   UNL     1       0.461  -2.772  -1.002  0.00  0.00    +0.026 A 
ENDBRANCH  12  16
BRANCH  13  22
ATOM     22  S   UNL     1      -1.012  -0.909   1.561  0.00  0.00    -0.079 S 
BRANCH  22  23
ATOM     23  C   UNL     1      -1.961   0.464   2.261  0.00  0.00    +0.157 C 
BRANCH  23  24
ATOM     24  C   UNL     1      -3.106  -0.080   3.075  0.00  0.00    +0.177 C 
ATOM     25  O   UNL     1      -3.265  -1.279   3.172  0.00  0.00    -0.291 OA
BRANCH  24  26
ATOM     26  C   UNL     1      -4.027   0.838   3.749  0.00  0.00    +0.060 A 
ATOM     27  C   UNL     1      -3.847   2.224   3.639  0.00  0.00    +0.018 A 
ATOM     28  C   UNL     1      -4.706   3.077   4.267  0.00  0.00    +0.046 A 
ATOM     29  C   UNL     1      -5.767   2.580   5.021  0.00  0.00    +0.120 A 
ATOM     30  C   UNL     1      -5.962   1.212   5.141  0.00  0.00    +0.091 A 
ATOM     31  C   UNL     1      -5.101   0.334   4.505  0.00  0.00    +0.131 A 
BRANCH  31  32
ATOM     32  O   UNL     1      -5.289  -1.005   4.614  0.00  0.00    -0.506 OA
ATOM     33  H   UNL     1      -4.831  -1.406   5.365  0.00  0.00    +0.292 HD
ENDBRANCH  31  32
BRANCH  29  34
ATOM     34  O   UNL     1      -6.615   3.439   5.641  0.00  0.00    -0.507 OA
ATOM     35  H   UNL     1      -7.375   3.698   5.102  0.00  0.00    +0.292 HD
ENDBRANCH  29  34
ENDBRANCH  24  26
ENDBRANCH  23  24
ENDBRANCH  22  23
ENDBRANCH  13  22
TORSDOF 7
