REMARK  Name = ZINC63386718
REMARK  11 active torsions:
REMARK  status: ('A' for Active; 'I' for Inactive)
REMARK    1  A    between atoms: C_1  and  C_2
REMARK    2  A    between atoms: C_2  and  C_3
REMARK    3  A    between atoms: C_2  and  C_4
REMARK    4  A    between atoms: C_4  and  C_5
REMARK    5  A    between atoms: C_5  and  N_6
REMARK    6  A    between atoms: C_13  and  O_37
REMARK    7  A    between atoms: C_15  and  C_18
REMARK    8  A    between atoms: N_20  and  N_21
REMARK    9  A    between atoms: C_22  and  C_23
REMARK   10  A    between atoms: C_22  and  C_24
REMARK   11  A    between atoms: C_26  and  O_36
REMARK                            x       y       z     vdW  Elec       q    Type
REMARK                         _______ _______ _______ _____ _____    ______ ____
ROOT
ATOM      1  C   UNL     1      -6.502   1.113   0.294  0.00  0.00    +0.299 C 
ATOM      2  O   UNL     1      -6.218   2.391  -0.053  0.00  0.00    -0.264 OA
ATOM      3  N   UNL     1      -7.660   0.825   0.864  0.00  0.00    -0.106 NA
ENDROOT
BRANCH   1  12
ATOM      4  N   UNL     1      -3.406  -0.534  -0.709  0.00  0.00    -0.267 N 
ATOM      5  C   UNL     1      -3.793  -1.871  -0.840  0.00  0.00    +0.043 A 
ATOM      6  C   UNL     1      -2.942  -2.778  -1.460  0.00  0.00    +0.024 A 
ATOM      7  C   UNL     1      -3.323  -4.098  -1.595  0.00  0.00    +0.002 A 
ATOM      8  C   UNL     1      -4.550  -4.516  -1.113  0.00  0.00    +0.000 A 
ATOM      9  C   UNL     1      -5.396  -3.617  -0.494  0.00  0.00    +0.008 A 
ATOM     10  C   UNL     1      -5.021  -2.292  -0.352  0.00  0.00    +0.007 A 
ATOM     11  C   UNL     1      -5.950  -1.328   0.333  0.00  0.00    +0.187 C 
ATOM     12  C   UNL     1      -5.566   0.093   0.047  0.00  0.00    +0.115 C 
ATOM     13  C   UNL     1      -4.347   0.426  -0.437  0.00  0.00    +0.255 C 
ATOM     14  O   UNL     1      -4.054   1.726  -0.660  0.00  0.00    -0.270 OA
BRANCH  11  15
ATOM     15  O   UNL     1      -7.283  -1.554  -0.129  0.00  0.00    -0.382 OA
ATOM     16  H   UNL     1      -7.959  -1.072   0.368  0.00  0.00    +0.211 HD
ENDBRANCH  11  15
BRANCH   4  17
ATOM     17  C   UNL     1      -1.998  -0.161  -0.856  0.00  0.00    +0.114 C 
BRANCH  17  18
ATOM     18  C   UNL     1      -1.303  -0.245   0.505  0.00  0.00    +0.022 C 
BRANCH  18  20
ATOM     19  C   UNL     1       0.184   1.700   0.008  0.00  0.00    +0.007 C 
ATOM     20  C   UNL     1       0.150   0.213   0.365  0.00  0.00    -0.016 C 
ATOM     21  C   UNL     1       0.885  -0.010   1.688  0.00  0.00    +0.007 C 
ENDBRANCH  18  20
ENDBRANCH  17  18
ENDBRANCH   4  17
ENDBRANCH   1  12
BRANCH   3  22
ATOM     22  N   UNL     1      -8.632   1.821   1.018  0.00  0.00    -0.154 NA
ATOM     23  C   UNL     1      -9.722   1.567   1.671  0.00  0.00    +0.057 C 
ATOM     24  C   UNL     1     -10.823   2.594   1.727  0.00  0.00    +0.064 C 
BRANCH  23  25
ATOM     25  C   UNL     1      -9.889   0.244   2.373  0.00  0.00    +0.186 C 
ATOM     26  C   UNL     1     -10.957  -0.542   1.638  0.00  0.00    +0.120 C 
ATOM     27  C   UNL     1     -12.071  -0.945   2.378  0.00  0.00    +0.035 A 
ATOM     28  C   UNL     1     -13.111  -1.680   1.773  0.00  0.00    +0.013 A 
ATOM     29  C   UNL     1     -14.185  -2.061   2.517  0.00  0.00    +0.001 A 
ATOM     30  C   UNL     1     -14.279  -1.739   3.867  0.00  0.00    +0.002 A 
ATOM     31  C   UNL     1     -13.306  -1.031   4.507  0.00  0.00    +0.024 A 
ATOM     32  C   UNL     1     -12.169  -0.606   3.800  0.00  0.00    +0.044 A 
ATOM     33  N   UNL     1     -11.214   0.090   4.432  0.00  0.00    -0.284 N 
ATOM     34  C   UNL     1     -10.120   0.524   3.841  0.00  0.00    +0.233 C 
ATOM     35  O   UNL     1      -9.294   1.151   4.478  0.00  0.00    -0.274 OA
ATOM     36  H   UNL     1     -11.335   0.284   5.374  0.00  0.00    +0.155 HD
BRANCH  26  37
ATOM     37  O   UNL     1     -10.839  -0.835   0.339  0.00  0.00    -0.509 OA
ATOM     38  H   UNL     1     -11.618  -1.264  -0.040  0.00  0.00    +0.292 HD
ENDBRANCH  26  37
ENDBRANCH  23  25
ENDBRANCH   3  22
TORSDOF 8
