REMARK  Name = ZINC39684130
REMARK  9 active torsions:
REMARK  status: ('A' for Active; 'I' for Inactive)
REMARK    1  A    between atoms: C_1  and  C_2
REMARK    2  A    between atoms: C_7  and  C_11
REMARK    3  A    between atoms: C_11  and  C_12
REMARK    4  A    between atoms: C_12  and  N_13
REMARK    5  A    between atoms: C_14  and  C_16
REMARK    6  A    between atoms: C_27  and  C_29
REMARK    7  A    between atoms: C_29  and  C_31
REMARK    8  A    between atoms: C_29  and  O_32
REMARK    9  A    between atoms: O_32  and  C_33
REMARK                            x       y       z     vdW  Elec       q    Type
REMARK                         _______ _______ _______ _____ _____    ______ ____
ROOT
ATOM      1  C   UNL     1      -8.593   0.932  -6.633  0.00  0.00    +0.100 C 
ATOM      2  C   UNL     1      -8.088   2.263  -7.234  0.00  0.00    +0.121 C 
ATOM      3  N   UNL     1      -7.817   1.952  -8.658  0.00  0.00    -0.297 N 
ATOM      4  C   UNL     1      -8.926   1.052  -9.056  0.00  0.00    +0.115 C 
ATOM      5  C   UNL     1      -9.146   0.142  -7.831  0.00  0.00    -0.004 C 
ATOM      6  C   UNL     1     -10.634  -0.136  -7.640  0.00  0.00    -0.010 C 
ATOM      7  C   UNL     1     -11.147  -0.973  -8.815  0.00  0.00    -0.082 C 
ATOM      8  N   UNL     1     -10.399  -2.233  -8.885  0.00  0.00    +0.379 N 
ATOM      9  C   UNL     1      -8.983  -1.960  -9.162  0.00  0.00    -0.082 C 
ATOM     10  C   UNL     1      -8.378  -1.165  -8.001  0.00  0.00    -0.010 C 
ATOM     11  C   UNL     1      -6.793   2.388  -9.418  0.00  0.00    +0.256 C 
ATOM     12  O   UNL     1      -6.708   2.041 -10.578  0.00  0.00    -0.272 OA
ATOM     13  H   UNL     1     -10.480  -2.720  -8.005  0.00  0.00    -0.086 HD
ATOM     14  H   UNL     1     -10.779  -2.809  -9.621  0.00  0.00    -0.086 HD
ENDROOT
BRANCH   1  16
ATOM     15  N   UNL     1      -7.697  -0.652  -4.959  0.00  0.00    -0.315 N 
ATOM     16  C   UNL     1      -7.456   0.182  -5.989  0.00  0.00    +0.218 C 
ATOM     17  O   UNL     1      -6.324   0.329  -6.399  0.00  0.00    -0.275 OA
ATOM     18  H   UNL     1      -8.602  -0.770  -4.631  0.00  0.00    +0.149 HD
BRANCH  15  19
ATOM     19  C   UNL     1      -6.591  -1.382  -4.333  0.00  0.00    +0.109 C 
BRANCH  19  20
ATOM     20  C   UNL     1      -7.133  -2.252  -3.197  0.00  0.00    +0.056 C 
BRANCH  20  27
ATOM     21  C   UNL     1      -2.267  -4.480   0.072  0.00  0.00    +0.046 C 
ATOM     22  C   UNL     1      -3.241  -3.373  -0.238  0.00  0.00    -0.027 A 
ATOM     23  C   UNL     1      -3.172  -2.179   0.447  0.00  0.00    +0.005 A 
ATOM     24  C   UNL     1      -4.063  -1.152   0.171  0.00  0.00    +0.001 A 
ATOM     25  C   UNL     1      -5.026  -1.307  -0.786  0.00  0.00    +0.010 A 
ATOM     26  C   UNL     1      -5.114  -2.507  -1.493  0.00  0.00    +0.003 A 
ATOM     27  C   UNL     1      -5.995  -3.003  -2.553  0.00  0.00    -0.021 A 
ATOM     28  C   UNL     1      -5.597  -4.252  -2.843  0.00  0.00    +0.087 A 
ATOM     29  N   UNL     1      -4.534  -4.597  -2.054  0.00  0.00    -0.360 N 
ATOM     30  C   UNL     1      -4.210  -3.550  -1.221  0.00  0.00    +0.050 A 
ATOM     31  H   UNL     1      -4.074  -5.451  -2.081  0.00  0.00    +0.165 HD
ENDBRANCH  20  27
ENDBRANCH  19  20
ENDBRANCH  15  19
ENDBRANCH   1  16
BRANCH  11  32
ATOM     32  C   UNL     1      -5.754   3.306  -8.828  0.00  0.00    +0.256 C 
ATOM     33  C   UNL     1      -6.405   4.640  -8.455  0.00  0.00    +0.062 C 
BRANCH  32  34
ATOM     34  O   UNL     1      -4.719   3.533  -9.787  0.00  0.00    -0.480 OA
BRANCH  34  35
ATOM     35  C   UNL     1      -3.495   3.872  -9.305  0.00  0.00    +0.122 A 
ATOM     36  C   UNL     1      -3.319   4.089  -7.946  0.00  0.00    +0.045 A 
ATOM     37  C   UNL     1      -2.073   4.433  -7.459  0.00  0.00    +0.004 A 
ATOM     38  C   UNL     1      -1.002   4.562  -8.324  0.00  0.00    +0.000 A 
ATOM     39  C   UNL     1      -1.175   4.347  -9.678  0.00  0.00    +0.004 A 
ATOM     40  C   UNL     1      -2.417   3.996 -10.170  0.00  0.00    +0.045 A 
ENDBRANCH  34  35
ENDBRANCH  32  34
ENDBRANCH  11  32
TORSDOF 7
