REMARK  Name = ZINC09176412
REMARK  20 active torsions:
REMARK  status: ('A' for Active; 'I' for Inactive)
REMARK    1  A    between atoms: C_1  and  C_2
REMARK    2  A    between atoms: C_2  and  N_78
REMARK    3  A    between atoms: C_3  and  C_4
REMARK    4  A    between atoms: C_3  and  N_78
REMARK    5  A    between atoms: C_5  and  C_6
REMARK    6  A    between atoms: C_5  and  N_78
REMARK    7  A    between atoms: C_6  and  C_7
REMARK    8  A    between atoms: C_7  and  N_8
REMARK    9  A    between atoms: C_9  and  C_28
REMARK   10  A    between atoms: C_12  and  C_13
REMARK   11  A    between atoms: C_12  and  O_23
REMARK   12  A    between atoms: C_16  and  O_19
REMARK   13  A    between atoms: O_19  and  C_20
REMARK   14  A    between atoms: C_20  and  C_21
REMARK   15  A    between atoms: C_20  and  C_22
REMARK   16  A    between atoms: C_31  and  O_36
REMARK   17  A    between atoms: C_32  and  O_34
REMARK   18  A    between atoms: O_34  and  C_35
REMARK   19  A    between atoms: O_36  and  C_37
REMARK   20  A    between atoms: C_37  and  C_38
REMARK                            x       y       z     vdW  Elec       q    Type
REMARK                         _______ _______ _______ _____ _____    ______ ____
ROOT
ATOM      1  N   UNL     1       3.226   1.228   0.089  0.00  0.00    -0.284 N 
ATOM      2  C   UNL     1       3.828   2.448   0.636  0.00  0.00    +0.145 C 
ATOM      3  C   UNL     1       4.597   2.036   1.869  0.00  0.00    +0.071 C 
ATOM      4  C   UNL     1       5.324   2.859   2.708  0.00  0.00    +0.133 C 
ATOM      5  C   UNL     1       4.423   0.650   1.992  0.00  0.00    +0.249 C 
ATOM      6  O   UNL     1       4.893  -0.054   2.869  0.00  0.00    -0.282 OA
ATOM      7  C   UNL     1       3.562   0.188   0.871  0.00  0.00    +0.288 C 
ATOM      8  O   UNL     1       3.215  -0.961   0.687  0.00  0.00    -0.266 OA
ENDROOT
BRANCH   4   9
ATOM      9  C   UNL     1       5.880   2.326   3.961  0.00  0.00    +0.017 A 
ATOM     10  C   UNL     1       5.060   1.620   4.849  0.00  0.00    +0.015 A 
ATOM     11  C   UNL     1       5.586   1.119   6.018  0.00  0.00    +0.046 A 
ATOM     12  C   UNL     1       6.928   1.322   6.322  0.00  0.00    +0.121 A 
ATOM     13  C   UNL     1       7.746   2.027   5.445  0.00  0.00    +0.046 A 
ATOM     14  C   UNL     1       7.230   2.528   4.272  0.00  0.00    +0.015 A 
BRANCH  12  15
ATOM     15  O   UNL     1       7.441   0.831   7.478  0.00  0.00    -0.489 OA
BRANCH  15  16
ATOM     16  C   UNL     1       6.529   0.190   8.372  0.00  0.00    +0.167 C 
ATOM     17  C   UNL     1       6.371  -1.279   7.973  0.00  0.00    +0.051 C 
ATOM     18  C   UNL     1       7.070   0.276   9.801  0.00  0.00    +0.051 C 
ENDBRANCH  15  16
ENDBRANCH  12  15
ENDBRANCH   4   9
BRANCH   2  19
ATOM     19  C   UNL     1       2.749   3.435   1.004  0.00  0.00    -0.019 A 
ATOM     20  C   UNL     1       1.580   2.991   1.593  0.00  0.00    +0.009 A 
ATOM     21  C   UNL     1       0.591   3.892   1.938  0.00  0.00    +0.050 A 
ATOM     22  C   UNL     1       0.765   5.243   1.683  0.00  0.00    +0.162 A 
ATOM     23  C   UNL     1       1.939   5.689   1.085  0.00  0.00    +0.162 A 
ATOM     24  C   UNL     1       2.929   4.781   0.747  0.00  0.00    +0.055 A 
BRANCH  23  25
ATOM     25  O   UNL     1       2.115   7.014   0.833  0.00  0.00    -0.491 OA
ATOM     26  C   UNL     1       3.345   7.400   0.218  0.00  0.00    +0.277 C 
ENDBRANCH  23  25
BRANCH  22  27
ATOM     27  O   UNL     1      -0.210   6.130   2.017  0.00  0.00    -0.489 OA
BRANCH  27  28
ATOM     28  C   UNL     1      -1.389   5.601   2.627  0.00  0.00    +0.226 C 
ATOM     29  C   UNL     1      -2.364   6.741   2.928  0.00  0.00    +0.048 C 
ENDBRANCH  27  28
ENDBRANCH  22  27
ENDBRANCH   2  19
BRANCH   4  30
ATOM     30  O   UNL     1       5.524   4.153   2.377  0.00  0.00    -0.506 OA
ATOM     31  H   UNL     1       6.066   4.599   3.089  0.00  0.00    +0.292 HD
ENDBRANCH   4  30
BRANCH   1  32
ATOM     32  C   UNL     1       2.390   1.156  -1.112  0.00  0.00    +0.107 C 
BRANCH  32  33
ATOM     33  C   UNL     1       3.275   0.912  -2.336  0.00  0.00    +0.000 C 
BRANCH  33  34
ATOM     34  C   UNL     1       2.401   0.837  -3.590  0.00  0.00    -0.077 C 
BRANCH  34  35
ATOM     35  N   UNL     1       3.272   0.623  -4.765  0.00  0.00    +0.379 N 
ATOM     36  H   UNL     1       4.016   1.330  -4.762  0.00  0.00    -0.082 HD
BRANCH  35  38
ATOM     37  C   UNL     1       2.806  -1.805  -4.710  0.00  0.00    -0.017 C 
ATOM     38  C   UNL     1       3.885  -0.721  -4.701  0.00  0.00    -0.082 C 
ENDBRANCH  35  38
BRANCH  35  39
ATOM     39  C   UNL     1       2.484   0.759  -6.008  0.00  0.00    -0.082 C 
ATOM     40  C   UNL     1       3.448   0.857  -7.193  0.00  0.00    -0.017 C 
ENDBRANCH  35  39
ENDBRANCH  34  35
ENDBRANCH  33  34
ENDBRANCH  32  33
ENDBRANCH   1  32
TORSDOF 14
