REMARK  Name = ZINC22059357
REMARK  9 active torsions:
REMARK  status: ('A' for Active; 'I' for Inactive)
REMARK    1  A    between atoms: C_1  and  C_2
REMARK    2  A    between atoms: C_2  and  C_3
REMARK    3  A    between atoms: C_2  and  C_4
REMARK    4  A    between atoms: C_8  and  N_10
REMARK    5  A    between atoms: C_11  and  C_13
REMARK    6  A    between atoms: C_13  and  N_14
REMARK    7  A    between atoms: C_17  and  C_21
REMARK    8  A    between atoms: C_17  and  C_22
REMARK    9  A    between atoms: C_25  and  C_28
REMARK                            x       y       z     vdW  Elec       q    Type
REMARK                         _______ _______ _______ _____ _____    ______ ____
ROOT
ATOM      1  N   UNL     1       3.668   6.177   0.312  0.00  0.00    -0.215 N 
ATOM      2  C   UNL     1       4.414   6.528  -0.754  0.00  0.00    +0.251 C 
ATOM      3  O   UNL     1       4.089   6.487  -1.921  0.00  0.00    -0.272 OA
ATOM      4  C   UNL     1       5.745   6.985  -0.190  0.00  0.00    +0.135 C 
ATOM      5  N   UNL     1       5.578   6.823   1.265  0.00  0.00    -0.281 N 
ATOM      6  C   UNL     1       4.333   6.352   1.459  0.00  0.00    +0.310 C 
ATOM      7  O   UNL     1       3.866   6.108   2.555  0.00  0.00    -0.252 OA
ATOM      8  C   UNL     1       6.881   6.099  -0.707  0.00  0.00    +0.047 C 
ATOM      9  H   UNL     1       6.404   7.080   1.945  0.00  0.00    +0.152 HD
ENDROOT
BRANCH   4  10
ATOM     10  C   UNL     1       6.001   8.429  -0.537  0.00  0.00    -0.015 A 
ATOM     11  C   UNL     1       5.487   8.957  -1.708  0.00  0.00    +0.007 A 
ATOM     12  C   UNL     1       5.713  10.279  -2.030  0.00  0.00    +0.019 A 
ATOM     13  C   UNL     1       6.471  11.082  -1.175  0.00  0.00    +0.052 A 
ATOM     14  C   UNL     1       6.991  10.541   0.002  0.00  0.00    +0.019 A 
ATOM     15  C   UNL     1       6.753   9.219   0.314  0.00  0.00    +0.007 A 
BRANCH  13  16
ATOM     16  C   UNL     1       6.714  12.454  -1.505  0.00  0.00    +0.099 C 
ATOM     17  N   UNL     1       6.907  13.543  -1.767  0.00  0.00    -0.191 NA
ENDBRANCH  13  16
ENDBRANCH   4  10
BRANCH   1  18
ATOM     18  C   UNL     1       2.295   5.673   0.225  0.00  0.00    +0.214 C 
BRANCH  18  20
ATOM     19  N   UNL     1       1.162   3.485   0.009  0.00  0.00    -0.284 N 
ATOM     20  C   UNL     1       2.318   4.171   0.104  0.00  0.00    +0.235 C 
ATOM     21  O   UNL     1       3.377   3.580   0.091  0.00  0.00    -0.274 OA
ATOM     22  H   UNL     1       0.207   4.025  -0.067  0.00  0.00    +0.155 HD
BRANCH  19  27
ATOM     23  C   UNL     1       2.146   0.019   0.742  0.00  0.00    -0.043 A 
ATOM     24  C   UNL     1       1.206  -0.681   0.006  0.00  0.00    +0.004 A 
ATOM     25  C   UNL     1       0.252  -0.000  -0.728  0.00  0.00    +0.002 A 
ATOM     26  C   UNL     1       0.235   1.381  -0.730  0.00  0.00    +0.023 A 
ATOM     27  C   UNL     1       1.177   2.086   0.008  0.00  0.00    +0.034 A 
ATOM     28  C   UNL     1       2.134   1.399   0.745  0.00  0.00    +0.027 A 
BRANCH  23  30
ATOM     29  C   UNL     1       2.489  -1.615   2.575  0.00  0.00    +0.012 C 
ATOM     30  C   UNL     1       3.183  -0.727   1.541  0.00  0.00    +0.013 C 
ATOM     31  C   UNL     1       4.021  -1.597   0.602  0.00  0.00    +0.012 C 
ENDBRANCH  23  30
ENDBRANCH  19  27
ENDBRANCH  18  20
ENDBRANCH   1  18
TORSDOF 6
