REMARK  Name = ZINC06322056
REMARK  8 active torsions:
REMARK  status: ('A' for Active; 'I' for Inactive)
REMARK    1  A    between atoms: C_1  and  C_2
REMARK    2  A    between atoms: C_5  and  C_38
REMARK    3  A    between atoms: C_9  and  C_14
REMARK    4  A    between atoms: C_14  and  C_16
REMARK    5  A    between atoms: C_14  and  N_73
REMARK    6  A    between atoms: N_20  and  C_21
REMARK    7  A    between atoms: C_28  and  C_31
REMARK    8  A    between atoms: C_31  and  C_32
REMARK                            x       y       z     vdW  Elec       q    Type
REMARK                         _______ _______ _______ _____ _____    ______ ____
ROOT
ATOM      1  C   UNL     1      -5.066   1.542  -1.165  0.00  0.00    +0.039 C 
ENDROOT
BRANCH   1  10
ATOM      2  C   UNL     1      -4.489  -0.769   3.466  0.00  0.00    +0.044 C 
ATOM      3  C   UNL     1      -3.542   0.403   3.429  0.00  0.00    -0.041 A 
ATOM      4  C   UNL     1      -2.743   0.674   4.504  0.00  0.00    +0.004 A 
ATOM      5  C   UNL     1      -1.869   1.751   4.481  0.00  0.00    +0.005 A 
ATOM      6  C   UNL     1      -1.789   2.568   3.374  0.00  0.00    -0.026 A 
ATOM      7  C   UNL     1      -2.592   2.313   2.268  0.00  0.00    +0.052 A 
ATOM      8  C   UNL     1      -3.474   1.216   2.293  0.00  0.00    +0.002 A 
ATOM      9  C   UNL     1      -4.320   0.958   1.126  0.00  0.00    +0.018 A 
ATOM     10  C   UNL     1      -4.214   1.783   0.055  0.00  0.00    +0.011 A 
ATOM     11  C   UNL     1      -3.309   2.866   0.078  0.00  0.00    +0.251 A 
ATOM     12  O   UNL     1      -3.230   3.595  -0.896  0.00  0.00    -0.268 OA
ATOM     13  N   UNL     1      -2.533   3.114   1.147  0.00  0.00    -0.322 N 
ATOM     14  H   UNL     1      -1.922   3.867   1.130  0.00  0.00    +0.169 HD
ATOM     15  C   UNL     1      -0.834   3.734   3.361  0.00  0.00    +0.046 C 
ENDBRANCH   1  10
BRANCH   1  21
ATOM     16  C   UNL     1      -6.723   3.045  -0.242  0.00  0.00    -0.077 C 
ATOM     17  C   UNL     1      -7.472   4.357  -0.486  0.00  0.00    -0.015 C 
ATOM     18  C   UNL     1      -8.360   4.209  -1.725  0.00  0.00    -0.010 C 
ATOM     19  C   UNL     1      -7.489   3.824  -2.924  0.00  0.00    -0.015 C 
ATOM     20  C   UNL     1      -6.740   2.528  -2.609  0.00  0.00    -0.077 C 
ATOM     21  N   UNL     1      -5.886   2.744  -1.422  0.00  0.00    +0.389 N 
ATOM     22  H   UNL     1      -5.263   3.540  -1.600  0.00  0.00    -0.080 HD
BRANCH  18  23
ATOM     23  C   UNL     1      -9.066   5.536  -2.011  0.00  0.00    +0.038 C 
BRANCH  23  24
ATOM     24  C   UNL     1     -10.016   5.853  -0.884  0.00  0.00    -0.047 A 
ATOM     25  C   UNL     1     -11.326   5.415  -0.941  0.00  0.00    +0.003 A 
ATOM     26  C   UNL     1     -12.196   5.701   0.094  0.00  0.00    +0.000 A 
ATOM     27  C   UNL     1     -11.758   6.434   1.182  0.00  0.00    +0.000 A 
ATOM     28  C   UNL     1     -10.450   6.876   1.236  0.00  0.00    +0.000 A 
ATOM     29  C   UNL     1      -9.579   6.585   0.203  0.00  0.00    +0.003 A 
ENDBRANCH  23  24
ENDBRANCH  18  23
ENDBRANCH   1  21
BRANCH   1  30
ATOM     30  C   UNL     1      -5.945   0.340  -0.934  0.00  0.00    +0.143 A 
ATOM     31  N   UNL     1      -7.017   0.287  -0.181  0.00  0.00    -0.115 NA
ATOM     32  N   UNL     1      -7.488  -0.911  -0.243  0.00  0.00    -0.023 NA
ATOM     33  N   UNL     1      -6.745  -1.623  -1.016  0.00  0.00    -0.044 NA
ATOM     34  N   UNL     1      -5.786  -0.886  -1.466  0.00  0.00    -0.227 N 
BRANCH  34  35
ATOM     35  C   UNL     1      -4.721  -1.306  -2.381  0.00  0.00    +0.111 C 
ATOM     36  C   UNL     1      -5.333  -1.841  -3.693  0.00  0.00    +0.027 C 
ATOM     37  C   UNL     1      -4.410  -3.022  -4.087  0.00  0.00    +0.002 C 
ATOM     38  C   UNL     1      -4.075  -3.667  -2.719  0.00  0.00    +0.002 C 
ATOM     39  C   UNL     1      -3.922  -2.466  -1.762  0.00  0.00    +0.027 C 
ENDBRANCH  34  35
ENDBRANCH   1  30
TORSDOF 6
