REMARK  Name = ZINC35378992
REMARK  4 active torsions:
REMARK  status: ('A' for Active; 'I' for Inactive)
REMARK    1  A    between atoms: C_5  and  S_8
REMARK    2  A    between atoms: S_8  and  N_11
REMARK    3  A    between atoms: C_15  and  C_18
REMARK    4  A    between atoms: N_20  and  C_21
REMARK                            x       y       z     vdW  Elec       q    Type
REMARK                         _______ _______ _______ _____ _____    ______ ____
ROOT
ATOM      1  N   UNL     1       0.700  -2.947   1.467  0.00  0.00    -0.176 NA
ATOM      2  C   UNL     1       1.638  -3.055   2.593  0.00  0.00    +0.109 C 
ATOM      3  C   UNL     1       1.087  -2.249   3.774  0.00  0.00    +0.018 C 
ATOM      4  C   UNL     1      -0.333  -2.724   4.091  0.00  0.00    +0.015 C 
ATOM      5  C   UNL     1      -1.236  -2.484   2.879  0.00  0.00    +0.091 C 
ATOM      6  C   UNL     1      -0.712  -3.287   1.690  0.00  0.00    +0.122 C 
ENDROOT
BRANCH   5   7
ATOM      7  C   UNL     1      -2.641  -2.921   3.204  0.00  0.00    +0.218 C 
ATOM      8  O   UNL     1      -3.173  -3.791   2.548  0.00  0.00    -0.275 OA
ATOM      9  N   UNL     1      -3.307  -2.345   4.225  0.00  0.00    -0.312 N 
ATOM     10  H   UNL     1      -2.881  -1.650   4.750  0.00  0.00    +0.149 HD
BRANCH   9  11
ATOM     11  C   UNL     1      -4.673  -2.770   4.541  0.00  0.00    +0.073 C 
ATOM     12  C   UNL     1      -5.652  -2.047   3.595  0.00  0.00    +0.022 C 
ATOM     13  C   UNL     1      -6.940  -2.825   3.554  0.00  0.00    +0.002 C 
ATOM     14  C   UNL     1      -7.978  -2.301   4.564  0.00  0.00    +0.000 C 
ATOM     15  C   UNL     1      -7.357  -1.948   5.929  0.00  0.00    +0.000 C 
ATOM     16  C   UNL     1      -6.342  -2.963   6.381  0.00  0.00    +0.002 C 
ATOM     17  C   UNL     1      -4.942  -2.485   5.943  0.00  0.00    +0.022 C 
ENDBRANCH   9  11
ENDBRANCH   5   7
BRANCH   1  18
ATOM     18  S   UNL     1       1.222  -2.445  -0.022  0.00  0.00    +0.062 S 
ATOM     19  O   UNL     1       0.401  -3.096  -0.981  0.00  0.00    -0.153 OA
ATOM     20  O   UNL     1       2.638  -2.572  -0.019  0.00  0.00    -0.153 OA
BRANCH  18  25
ATOM     21  C   UNL     1       1.281   1.532   0.566  0.00  0.00    +0.049 A 
ATOM     22  C   UNL     1       0.327   1.984  -0.330  0.00  0.00    +0.077 A 
ATOM     23  C   UNL     1      -0.358   1.077  -1.136  0.00  0.00    +0.144 A 
ATOM     24  C   UNL     1      -0.082  -0.276  -1.040  0.00  0.00    +0.077 A 
ATOM     25  C   UNL     1       0.872  -0.723  -0.144  0.00  0.00    +0.127 A 
ATOM     26  C   UNL     1       1.551   0.178   0.657  0.00  0.00    +0.069 A 
ATOM     27 CL   UNL     1       2.746  -0.393   1.780  0.00  0.00    -0.081 Cl
ATOM     28  O   UNL     1      -1.295   1.533  -2.011  0.00  0.00    -0.481 OA
ATOM     29  C   UNL     1      -2.036   2.690  -1.614  0.00  0.00    +0.325 C 
ATOM     30  C   UNL     1      -1.093   3.734  -1.073  0.00  0.00    +0.255 C 
ATOM     31  O   UNL     1      -1.348   4.912  -1.205  0.00  0.00    -0.272 OA
ATOM     32  N   UNL     1       0.038   3.352  -0.439  0.00  0.00    -0.280 N 
ATOM     33  H   UNL     1       0.641   4.014  -0.066  0.00  0.00    +0.155 HD
ENDBRANCH  18  25
ENDBRANCH   1  18
TORSDOF 4
