REMARK  Name = ZINC43286854
REMARK  8 active torsions:
REMARK  status: ('A' for Active; 'I' for Inactive)
REMARK    1  A    between atoms: C_1  and  C_2
REMARK    2  A    between atoms: C_7  and  N_10
REMARK    3  A    between atoms: N_10  and  C_11
REMARK    4  A    between atoms: N_10  and  C_12
REMARK    5  A    between atoms: C_12  and  C_14
REMARK    6  A    between atoms: C_12  and  C_20
REMARK    7  A    between atoms: C_20  and  C_22
REMARK    8  A    between atoms: C_20  and  N_23
REMARK                            x       y       z     vdW  Elec       q    Type
REMARK                         _______ _______ _______ _____ _____    ______ ____
ROOT
ATOM      1  C   UNL     1       1.062  -4.601   2.226  0.00  0.00    +0.079 C 
ENDROOT
BRANCH   1   2
ATOM      2  C   UNL     1       2.215  -5.402   2.772  0.00  0.00    +0.006 A 
ATOM      3  C   UNL     1       2.550  -6.693   2.526  0.00  0.00    +0.028 A 
ATOM      4  C   UNL     1       3.665  -7.226   3.146  0.00  0.00    +0.025 A 
ATOM      5  C   UNL     1       4.390  -6.442   3.982  0.00  0.00    +0.060 A 
ATOM      6  S   UNL     1       3.499  -4.897   3.904  0.00  0.00    -0.099 S 
ATOM      7 BR   UNL     1       4.171  -9.021   2.833  0.00  0.00    -0.050 Br
ENDBRANCH   1   2
BRANCH   1   8
ATOM      8  N   UNL     1       1.567  -3.353   1.639  0.00  0.00    -0.297 NA
ATOM      9  C   UNL     1       2.907  -3.544   1.070  0.00  0.00    +0.105 C 
BRANCH   8  15
ATOM     10  C   UNL     1       0.349   0.634  -1.026  0.00  0.00    +0.007 C 
ATOM     11  C   UNL     1       0.008  -0.827  -0.723  0.00  0.00    -0.013 C 
ATOM     12  C   UNL     1       0.128  -1.654  -2.005  0.00  0.00    +0.003 C 
ATOM     13  C   UNL     1      -0.214  -3.115  -1.702  0.00  0.00    +0.002 C 
ATOM     14  C   UNL     1       0.756  -3.658  -0.651  0.00  0.00    +0.019 C 
ATOM     15  C   UNL     1       0.636  -2.831   0.630  0.00  0.00    +0.057 C 
ATOM     16  C   UNL     1       0.977  -1.370   0.328  0.00  0.00    +0.022 C 
ENDBRANCH   8  15
ENDBRANCH   1   8
BRANCH   1  17
ATOM     17  C   UNL     1       0.086  -4.274   3.359  0.00  0.00    -0.056 C 
ATOM     18  C   UNL     1      -1.143  -3.566   2.785  0.00  0.00    -0.012 C 
BRANCH  17  19
ATOM     19  N   UNL     1      -0.329  -5.517   4.022  0.00  0.00    +0.381 N 
ATOM     20  H   UNL     1       0.482  -5.984   4.400  0.00  0.00    -0.090 HD
ATOM     21  H   UNL     1      -0.972  -5.301   4.769  0.00  0.00    -0.090 HD
ATOM     22  H   UNL     1      -0.782  -6.120   3.352  0.00  0.00    -0.090 HD
ENDBRANCH  17  19
ENDBRANCH   1  17
TORSDOF 5
