REMARK  Name = ZINC27324853
REMARK  10 active torsions:
REMARK  status: ('A' for Active; 'I' for Inactive)
REMARK    1  A    between atoms: C_1  and  C_2
REMARK    2  A    between atoms: C_2  and  C_38
REMARK    3  A    between atoms: C_7  and  C_20
REMARK    4  A    between atoms: C_8  and  C_11
REMARK    5  A    between atoms: C_11  and  C_13
REMARK    6  A    between atoms: C_13  and  C_15
REMARK    7  A    between atoms: C_13  and  N_19
REMARK    8  A    between atoms: C_15  and  C_16
REMARK    9  A    between atoms: C_20  and  S_21
REMARK   10  A    between atoms: S_21  and  N_24
REMARK                            x       y       z     vdW  Elec       q    Type
REMARK                         _______ _______ _______ _____ _____    ______ ____
ROOT
ATOM      1  C   UNL     1      -9.185   0.049   1.420  0.00  0.00    +0.012 C 
ATOM      2  C   UNL     1      -8.985   1.201   2.407  0.00  0.00    -0.024 C 
ATOM      3  C   UNL     1     -10.322   1.642   3.102  0.00  0.00    -0.004 C 
ATOM      4  C   UNL     1     -11.152   2.146   1.881  0.00  0.00    +0.005 C 
ATOM      5  C   UNL     1     -10.064   2.772   0.914  0.00  0.00    +0.010 C 
ATOM      6  C   UNL     1      -8.720   2.564   1.676  0.00  0.00    +0.006 C 
ATOM      7  C   UNL     1      -8.795   3.555   2.878  0.00  0.00    +0.062 C 
ATOM      8  C   UNL     1      -9.856   2.944   3.822  0.00  0.00    +0.015 C 
ATOM      9  C   UNL     1      -7.901   0.882   3.439  0.00  0.00    +0.012 C 
ENDROOT
BRANCH   7  10
ATOM     10  C   UNL     1      -9.233   4.918   2.408  0.00  0.00    +0.123 C 
ATOM     11  O   UNL     1      -9.255   5.172   1.227  0.00  0.00    -0.299 OA
BRANCH  10  12
ATOM     12  C   UNL     1      -9.643   5.965   3.411  0.00  0.00    +0.002 C 
BRANCH  12  13
ATOM     13  N   UNL     1     -10.386   7.033   2.728  0.00  0.00    +0.385 N 
ATOM     14  H   UNL     1     -10.685   7.798   3.461  0.00  0.00    -0.089 HD
ATOM     15  H   UNL     1     -11.283   6.609   2.253  0.00  0.00    -0.089 HD
ATOM     16  H   UNL     1      -9.746   7.492   1.960  0.00  0.00    -0.089 HD
ENDBRANCH  12  13
BRANCH  12  17
ATOM     17  C   UNL     1      -8.395   6.555   4.072  0.00  0.00    +0.087 C 
BRANCH  17  18
ATOM     18  C   UNL     1      -8.805   7.438   5.222  0.00  0.00    +0.209 C 
ATOM     19  O   UNL     1      -9.980   7.581   5.488  0.00  0.00    -0.276 OA
ATOM     20  N   UNL     1      -7.866   8.067   5.956  0.00  0.00    -0.329 N 
ATOM     21  H   UNL     1      -8.166   8.712   6.796  0.00  0.00    +0.145 HD
ATOM     22  H   UNL     1      -6.801   7.937   5.716  0.00  0.00    +0.145 HD
ENDBRANCH  17  18
ENDBRANCH  12  17
ENDBRANCH  10  12
ENDBRANCH   7  10
BRANCH   6  23
ATOM     23  C   UNL     1      -7.450   2.639   0.826  0.00  0.00    +0.193 C 
BRANCH  23  24
ATOM     24  S   UNL     1      -7.381   4.244  -0.018  0.00  0.00    +0.032 S 
ATOM     25  O   UNL     1      -7.004   5.263   0.898  0.00  0.00    -0.158 OA
ATOM     26  O   UNL     1      -8.519   4.406  -0.853  0.00  0.00    -0.158 OA
BRANCH  24  27
ATOM     27  N   UNL     1      -6.103   4.120  -1.063  0.00  0.00    -0.181 NA
ATOM     28  C   UNL     1      -6.301   3.626  -2.432  0.00  0.00    +0.110 C 
ATOM     29  C   UNL     1      -5.341   2.457  -2.678  0.00  0.00    +0.028 C 
ATOM     30  C   UNL     1      -3.916   2.897  -2.357  0.00  0.00    -0.001 C 
ATOM     31  C   UNL     1      -3.502   4.058  -3.280  0.00  0.00    +0.016 C 
ATOM     32  C   UNL     1      -2.000   3.781  -3.504  0.00  0.00    +0.036 C 
ATOM     33  C   UNL     1      -1.838   2.288  -3.311  0.00  0.00    -0.044 A 
ATOM     34  C   UNL     1      -2.943   1.780  -2.651  0.00  0.00    -0.038 A 
ATOM     35  C   UNL     1      -3.014   0.425  -2.372  0.00  0.00    +0.004 A 
ATOM     36  C   UNL     1      -1.983  -0.417  -2.740  0.00  0.00    +0.000 A 
ATOM     37  C   UNL     1      -0.879   0.092  -3.399  0.00  0.00    +0.000 A 
ATOM     38  C   UNL     1      -0.808   1.442  -3.684  0.00  0.00    +0.004 A 
ATOM     39  C   UNL     1      -3.801   3.327  -0.897  0.00  0.00    +0.028 C 
ATOM     40  C   UNL     1      -4.749   4.503  -0.638  0.00  0.00    +0.110 C 
ENDBRANCH  24  27
ENDBRANCH  23  24
ENDBRANCH   6  23
TORSDOF 8
