REMARK  Name = ZINC40372919
REMARK  5 active torsions:
REMARK  status: ('A' for Active; 'I' for Inactive)
REMARK    1  A    between atoms: C_4  and  O_21
REMARK    2  A    between atoms: C_5  and  C_7
REMARK    3  A    between atoms: N_9  and  C_10
REMARK    4  A    between atoms: C_10  and  C_17
REMARK    5  A    between atoms: N_18  and  O_19
REMARK                            x       y       z     vdW  Elec       q    Type
REMARK                         _______ _______ _______ _____ _____    ______ ____
ROOT
ATOM      1  C   UNL     1       0.135  -4.298  -0.134  0.00  0.00    +0.093 C 
ATOM      2  C   UNL     1       0.856  -4.717  -1.387  0.00  0.00    +0.033 C 
ATOM      3  C   UNL     1       0.851  -3.618  -2.466  0.00  0.00    +0.002 C 
ATOM      4  C   UNL     1      -0.510  -2.905  -2.586  0.00  0.00    +0.000 C 
ATOM      5  C   UNL     1      -1.670  -3.860  -2.507  0.00  0.00    +0.000 C 
ATOM      6  C   UNL     1      -2.154  -3.922  -1.044  0.00  0.00    +0.002 C 
ATOM      7  C   UNL     1      -1.324  -4.790  -0.221  0.00  0.00    +0.033 C 
ENDROOT
BRANCH   1   8
ATOM      8  C   UNL     1       0.805  -4.910   1.069  0.00  0.00    +0.155 C 
ATOM      9  N   UNL     1       1.015  -6.183   1.113  0.00  0.00    -0.075 NA
ATOM     10  N   UNL     1       1.193  -4.111   2.122  0.00  0.00    -0.342 N 
ATOM     11  H   UNL     1       0.965  -3.168   2.125  0.00  0.00    +0.144 HD
ATOM     12  H   UNL     1       1.694  -4.491   2.860  0.00  0.00    +0.144 HD
BRANCH   9  13
ATOM     13  O   UNL     1       0.517  -7.019   0.084  0.00  0.00    -0.408 OA
ATOM     14  H   UNL     1       0.725  -7.956   0.204  0.00  0.00    +0.328 HD
ENDBRANCH   9  13
ENDBRANCH   1   8
BRANCH   1  17
ATOM     15  C   UNL     1       1.332  -2.179  -0.008  0.00  0.00    +0.248 C 
ATOM     16  O   UNL     1       2.377  -2.801   0.008  0.00  0.00    -0.270 OA
ATOM     17  N   UNL     1       0.156  -2.837  -0.020  0.00  0.00    -0.299 N 
ATOM     18  H   UNL     1      -0.676  -2.344   0.048  0.00  0.00    +0.150 HD
BRANCH  15  23
ATOM     19  C   UNL     1       0.179   1.392  -0.039  0.00  0.00    +0.001 A 
ATOM     20  C   UNL     1       1.388   2.069  -0.027  0.00  0.00    +0.004 A 
ATOM     21  C   UNL     1       2.579   1.371  -0.009  0.00  0.00    +0.046 A 
ATOM     22  C   UNL     1       2.572  -0.015  -0.002  0.00  0.00    +0.129 A 
ATOM     23  C   UNL     1       1.352  -0.704  -0.014  0.00  0.00    +0.078 A 
ATOM     24  C   UNL     1       0.154   0.015  -0.033  0.00  0.00    +0.017 A 
BRANCH  22  25
ATOM     25  O   UNL     1       3.742  -0.703   0.015  0.00  0.00    -0.506 OA
ATOM     26  H   UNL     1       4.070  -0.897   0.904  0.00  0.00    +0.292 HD
ENDBRANCH  22  25
ENDBRANCH  15  23
ENDBRANCH   1  17
TORSDOF 5
