REMARK  Name = ZINC36029908
REMARK  8 active torsions:
REMARK  status: ('A' for Active; 'I' for Inactive)
REMARK    1  A    between atoms: C_1  and  C_2
REMARK    2  A    between atoms: C_2  and  C_3
REMARK    3  A    between atoms: C_2  and  C_4
REMARK    4  A    between atoms: C_4  and  C_5
REMARK    5  A    between atoms: N_9  and  C_27
REMARK    6  A    between atoms: N_14  and  S_17
REMARK    7  A    between atoms: S_17  and  C_20
REMARK    8  A    between atoms: C_27  and  C_28
REMARK                            x       y       z     vdW  Elec       q    Type
REMARK                         _______ _______ _______ _____ _____    ______ ____
ROOT
ATOM      1  C   UNL     1       1.550  -0.208  -2.562  0.00  0.00    +0.019 C 
ATOM      2  C   UNL     1       2.546  -1.017  -3.363  0.00  0.00    +0.201 C 
ATOM      3  O   UNL     1       2.577  -1.107  -4.572  0.00  0.00    -0.277 OA
ATOM      4  N   UNL     1       3.396  -1.622  -2.506  0.00  0.00    -0.309 N 
ATOM      5  C   UNL     1       3.031  -1.274  -1.130  0.00  0.00    +0.006 C 
ATOM      6  N   UNL     1       2.160  -0.080  -1.216  0.00  0.00    +0.401 N 
ATOM      7  C   UNL     1       4.283  -0.942  -0.320  0.00  0.00    +0.023 C 
ATOM      8  C   UNL     1       5.196  -2.171  -0.269  0.00  0.00    +0.109 C 
ATOM      9  N   UNL     1       4.423  -3.313   0.238  0.00  0.00    -0.177 NA
ATOM     10  C   UNL     1       3.163  -3.667  -0.430  0.00  0.00    +0.109 C 
ATOM     11  C   UNL     1       2.267  -2.425  -0.479  0.00  0.00    +0.023 C 
ATOM     12  H   UNL     1       2.706   0.766  -1.151  0.00  0.00    -0.082 HD
ATOM     13  H   UNL     1       1.449  -0.103  -0.499  0.00  0.00    -0.082 HD
ENDROOT
BRANCH   9  14
ATOM     14  S   UNL     1       4.963  -4.187   1.537  0.00  0.00    +0.061 S 
ATOM     15  O   UNL     1       4.368  -5.473   1.437  0.00  0.00    -0.153 OA
ATOM     16  O   UNL     1       6.371  -4.001   1.595  0.00  0.00    -0.153 OA
BRANCH  14  17
ATOM     17  C   UNL     1       4.296  -3.434   2.984  0.00  0.00    +0.107 A 
ATOM     18  C   UNL     1       4.994  -2.427   3.624  0.00  0.00    +0.028 A 
ATOM     19  C   UNL     1       4.471  -1.837   4.759  0.00  0.00    +0.003 A 
ATOM     20  C   UNL     1       3.250  -2.253   5.255  0.00  0.00    +0.020 A 
ATOM     21  C   UNL     1       2.550  -3.261   4.615  0.00  0.00    +0.043 A 
ATOM     22  C   UNL     1       3.072  -3.847   3.475  0.00  0.00    +0.048 A 
ATOM     23 CL   UNL     1       1.017  -3.784   5.237  0.00  0.00    -0.083 Cl
ENDBRANCH  14  17
ENDBRANCH   9  14
BRANCH   1  24
ATOM     24  C   UNL     1       0.213  -0.946  -2.473  0.00  0.00    -0.004 C 
BRANCH  24  26
ATOM     25  C   UNL     1      -1.040   1.163  -1.997  0.00  0.00    +0.007 C 
ATOM     26  C   UNL     1      -0.698  -0.233  -1.471  0.00  0.00    -0.018 C 
ATOM     27  C   UNL     1      -1.985  -1.039  -1.289  0.00  0.00    +0.007 C 
ENDBRANCH  24  26
ENDBRANCH   1  24
BRANCH   4  28
ATOM     28  C   UNL     1       4.510  -2.491  -2.892  0.00  0.00    +0.141 C 
BRANCH  28  29
ATOM     29  C   UNL     1       5.662  -1.648  -3.373  0.00  0.00    -0.026 A 
ATOM     30  C   UNL     1       5.508  -0.838  -4.483  0.00  0.00    +0.009 A 
ATOM     31  C   UNL     1       6.562  -0.062  -4.928  0.00  0.00    +0.050 A 
ATOM     32  C   UNL     1       7.776  -0.095  -4.262  0.00  0.00    +0.166 A 
ATOM     33  C   UNL     1       7.932  -0.911  -3.144  0.00  0.00    +0.167 A 
ATOM     34  C   UNL     1       6.869  -1.682  -2.701  0.00  0.00    +0.054 A 
ATOM     35  O   UNL     1       9.205  -0.768  -2.673  0.00  0.00    -0.453 OA
ATOM     36  C   UNL     1       9.949  -0.170  -3.751  0.00  0.00    +0.466 C 
ATOM     37  O   UNL     1       8.952   0.560  -4.491  0.00  0.00    -0.453 OA
ENDBRANCH  28  29
ENDBRANCH   4  28
TORSDOF 6
