REMARK  Name = ZINC15787903
REMARK  12 active torsions:
REMARK  status: ('A' for Active; 'I' for Inactive)
REMARK    1  A    between atoms: C_1  and  N_59
REMARK    2  A    between atoms: C_2  and  N_59
REMARK    3  A    between atoms: C_3  and  C_5
REMARK    4  A    between atoms: C_3  and  C_27
REMARK    5  A    between atoms: C_3  and  N_59
REMARK    6  A    between atoms: C_5  and  N_6
REMARK    7  A    between atoms: C_7  and  C_9
REMARK    8  A    between atoms: C_12  and  S_15
REMARK    9  A    between atoms: S_15  and  N_18
REMARK   10  A    between atoms: N_18  and  C_19
REMARK   11  A    between atoms: C_24  and  O_25
REMARK   12  A    between atoms: O_25  and  C_26
REMARK                            x       y       z     vdW  Elec       q    Type
REMARK                         _______ _______ _______ _____ _____    ______ ____
ROOT
ATOM      1  C   UNL     1      -1.735   3.083  -4.078  0.00  0.00    +0.037 A 
ATOM      2  C   UNL     1      -2.224   1.802  -3.813  0.00  0.00    +0.015 A 
ATOM      3  C   UNL     1      -2.274   1.341  -2.514  0.00  0.00    +0.029 A 
ATOM      4  C   UNL     1      -1.841   2.145  -1.474  0.00  0.00    +0.109 A 
ATOM      5  C   UNL     1      -1.361   3.417  -1.729  0.00  0.00    +0.029 A 
ATOM      6  C   UNL     1      -1.300   3.888  -3.024  0.00  0.00    +0.015 A 
ENDROOT
BRANCH   1   8
ATOM      7  N   UNL     1      -1.205   4.819  -5.720  0.00  0.00    -0.313 N 
ATOM      8  C   UNL     1      -1.678   3.583  -5.468  0.00  0.00    +0.244 C 
ATOM      9  O   UNL     1      -2.057   2.878  -6.383  0.00  0.00    -0.270 OA
ATOM     10  H   UNL     1      -0.903   5.381  -4.989  0.00  0.00    +0.149 HD
BRANCH   7  11
ATOM     11  C   UNL     1      -1.149   5.315  -7.097  0.00  0.00    +0.094 C 
BRANCH  11  12
ATOM     12  C   UNL     1      -0.461   6.682  -7.120  0.00  0.00    -0.020 C 
BRANCH  12  13
ATOM     13  C   UNL     1       0.982   6.525  -6.712  0.00  0.00    -0.041 A 
ATOM     14  C   UNL     1       1.355   6.733  -5.398  0.00  0.00    +0.003 A 
ATOM     15  C   UNL     1       2.678   6.585  -5.023  0.00  0.00    +0.000 A 
ATOM     16  C   UNL     1       3.629   6.238  -5.965  0.00  0.00    +0.001 A 
ATOM     17  C   UNL     1       3.257   6.036  -7.280  0.00  0.00    +0.020 A 
ATOM     18  C   UNL     1       1.933   6.179  -7.655  0.00  0.00    +0.043 A 
ATOM     19 CL   UNL     1       1.466   5.925  -9.308  0.00  0.00    -0.083 Cl
ENDBRANCH  12  13
BRANCH  12  22
ATOM     20  C   UNL     1      -0.588   8.945  -6.270  0.00  0.00    -0.096 C 
ATOM     21  C   UNL     1      -2.590   7.591  -6.410  0.00  0.00    -0.096 C 
ATOM     22  N   UNL     1      -1.134   7.577  -6.155  0.00  0.00    +0.382 N 
ATOM     23  H   UNL     1      -0.966   7.229  -5.204  0.00  0.00    -0.082 HD
ENDBRANCH  12  22
ENDBRANCH  11  12
ENDBRANCH   7  11
ENDBRANCH   1   8
BRANCH   4  24
ATOM     24  S   UNL     1      -1.910   1.549   0.183  0.00  0.00    +0.072 S 
ATOM     25  O   UNL     1      -2.911   0.541   0.210  0.00  0.00    -0.150 OA
ATOM     26  O   UNL     1      -1.957   2.693   1.024  0.00  0.00    -0.150 OA
BRANCH  24  27
ATOM     27  N   UNL     1      -0.469   0.794   0.491  0.00  0.00    -0.213 N 
ATOM     28  H   UNL     1      -0.455  -0.147   0.725  0.00  0.00    +0.174 HD
BRANCH  27  29
ATOM     29  C   UNL     1       0.730   1.513   0.408  0.00  0.00    +0.090 A 
ATOM     30  C   UNL     1       0.771   2.843   0.799  0.00  0.00    +0.028 A 
ATOM     31  C   UNL     1       1.957   3.549   0.721  0.00  0.00    +0.002 A 
ATOM     32  C   UNL     1       3.101   2.936   0.244  0.00  0.00    +0.004 A 
ATOM     33  C   UNL     1       3.066   1.611  -0.151  0.00  0.00    +0.047 A 
ATOM     34  C   UNL     1       1.883   0.895  -0.072  0.00  0.00    +0.142 A 
BRANCH  34  35
ATOM     35  O   UNL     1       1.846  -0.407  -0.462  0.00  0.00    -0.493 OA
ATOM     36  C   UNL     1       3.067  -0.974  -0.944  0.00  0.00    +0.277 C 
ENDBRANCH  34  35
ENDBRANCH  27  29
ENDBRANCH  24  27
ENDBRANCH   4  24
TORSDOF 9
