REMARK  Name = ZINC31808749
REMARK  10 active torsions:
REMARK  status: ('A' for Active; 'I' for Inactive)
REMARK    1  A    between atoms: C_1  and  C_2
REMARK    2  A    between atoms: C_5  and  C_11
REMARK    3  A    between atoms: C_6  and  C_10
REMARK    4  A    between atoms: C_7  and  O_8
REMARK    5  A    between atoms: O_8  and  C_9
REMARK    6  A    between atoms: C_11  and  N_12
REMARK    7  A    between atoms: N_15  and  C_18
REMARK    8  A    between atoms: C_18  and  C_20
REMARK    9  A    between atoms: C_18  and  C_36
REMARK   10  A    between atoms: C_29  and  C_30
REMARK                            x       y       z     vdW  Elec       q    Type
REMARK                         _______ _______ _______ _____ _____    ______ ____
ROOT
ATOM      1  C   UNL     1      -4.943  -6.821  -0.342  0.00  0.00    +0.080 C 
ENDROOT
BRANCH   1   2
ATOM      2  C   UNL     1      -5.848  -6.440  -1.485  0.00  0.00    -0.017 A 
ATOM      3  C   UNL     1      -5.552  -6.573  -2.911  0.00  0.00    +0.002 A 
ATOM      4  C   UNL     1      -4.451  -7.046  -3.631  0.00  0.00    +0.010 A 
ATOM      5  C   UNL     1      -4.481  -7.040  -4.997  0.00  0.00    +0.001 A 
ATOM      6  C   UNL     1      -5.596  -6.568  -5.676  0.00  0.00    +0.002 A 
ATOM      7  C   UNL     1      -6.692  -6.097  -4.987  0.00  0.00    +0.026 A 
ATOM      8  C   UNL     1      -6.685  -6.094  -3.595  0.00  0.00    +0.047 A 
ATOM      9  N   UNL     1      -7.603  -5.698  -2.647  0.00  0.00    -0.354 N 
ATOM     10  H   UNL     1      -8.478  -5.326  -2.839  0.00  0.00    +0.166 HD
ATOM     11  C   UNL     1      -7.094  -5.914  -1.388  0.00  0.00    +0.050 A 
BRANCH  11  12
ATOM     12  C   UNL     1      -7.797  -5.615  -0.121  0.00  0.00    -0.001 A 
ATOM     13  C   UNL     1      -7.783  -6.541   0.923  0.00  0.00    +0.010 A 
ATOM     14  C   UNL     1      -8.440  -6.256   2.102  0.00  0.00    +0.001 A 
ATOM     15  C   UNL     1      -9.112  -5.056   2.251  0.00  0.00    +0.000 A 
ATOM     16  C   UNL     1      -9.130  -4.134   1.219  0.00  0.00    +0.001 A 
ATOM     17  C   UNL     1      -8.472  -4.404   0.037  0.00  0.00    +0.010 A 
ENDBRANCH  11  12
ENDBRANCH   1   2
BRANCH   1  21
ATOM     18  N   UNL     1      -1.297  -4.750   0.049  0.00  0.00    -0.300 NA
ATOM     19  C   UNL     1      -2.196  -4.361  -1.046  0.00  0.00    +0.066 C 
ATOM     20  C   UNL     1      -3.609  -4.869  -0.749  0.00  0.00    -0.062 C 
ATOM     21  N   UNL     1      -3.584  -6.331  -0.610  0.00  0.00    +0.393 N 
ATOM     22  C   UNL     1      -2.701  -6.704   0.504  0.00  0.00    -0.062 C 
ATOM     23  C   UNL     1      -1.281  -6.210   0.217  0.00  0.00    +0.066 C 
ATOM     24  H   UNL     1      -3.240  -6.744  -1.464  0.00  0.00    -0.080 HD
BRANCH  18  25
ATOM     25  C   UNL     1       0.059  -4.231  -0.172  0.00  0.00    +0.137 C 
BRANCH  25  30
ATOM     26  C   UNL     1      -0.018   1.503   0.010  0.00  0.00    +0.049 C 
ATOM     27  C   UNL     1       0.002  -0.004   0.002  0.00  0.00    +0.007 A 
ATOM     28  C   UNL     1       0.006  -0.697  -1.191  0.00  0.00    +0.089 A 
ATOM     29  N   UNL     1       0.024  -2.016  -1.207  0.00  0.00    -0.363 N 
ATOM     30  C   UNL     1       0.039  -2.726  -0.095  0.00  0.00    +0.037 A 
ATOM     31  C   UNL     1       0.036  -2.108   1.139  0.00  0.00    +0.012 A 
ATOM     32  C   UNL     1       0.023  -0.716   1.198  0.00  0.00    +0.129 A 
ATOM     33  C   UNL     1       0.053  -2.926   2.404  0.00  0.00    +0.049 C 
ATOM     34  H   UNL     1       0.027  -2.477  -2.060  0.00  0.00    +0.165 HD
BRANCH  32  35
ATOM     35  O   UNL     1       0.025  -0.071   2.393  0.00  0.00    -0.494 OA
ATOM     36  C   UNL     1      -1.247   0.220   2.975  0.00  0.00    +0.277 C 
ENDBRANCH  32  35
ENDBRANCH  25  30
ENDBRANCH  18  25
ENDBRANCH   1  21
BRANCH   1  37
ATOM     37  C   UNL     1      -4.917  -8.320  -0.199  0.00  0.00    +0.347 C 
ATOM     38  O   UNL     1      -5.726  -8.878   0.523  0.00  0.00    -0.248 OA
ATOM     39  O   UNL     1      -4.088  -8.977  -0.806  0.00  0.00    -0.248 OA
ENDBRANCH   1  37
TORSDOF 7
