REMARK  Name = ZINC22195986
REMARK  6 active torsions:
REMARK  status: ('A' for Active; 'I' for Inactive)
REMARK    1  A    between atoms: C_1  and  C_2
REMARK    2  A    between atoms: C_2  and  C_4
REMARK    3  A    between atoms: C_2  and  N_10
REMARK    4  A    between atoms: N_6  and  C_7
REMARK    5  A    between atoms: C_18  and  C_30
REMARK    6  A    between atoms: C_23  and  C_25
REMARK                            x       y       z     vdW  Elec       q    Type
REMARK                         _______ _______ _______ _____ _____    ______ ____
ROOT
ATOM      1  N   UNL     1      -6.891   1.019   0.547  0.00  0.00    +0.389 N 
ATOM      2  C   UNL     1      -6.597   0.382  -0.745  0.00  0.00    -0.059 C 
ATOM      3  C   UNL     1      -5.213   0.822  -1.225  0.00  0.00    +0.088 C 
ATOM      4  N   UNL     1      -5.182   2.287  -1.345  0.00  0.00    -0.318 N 
ATOM      5  C   UNL     1      -5.475   2.924  -0.054  0.00  0.00    +0.088 C 
ATOM      6  C   UNL     1      -6.860   2.484   0.427  0.00  0.00    -0.059 C 
ATOM      7  C   UNL     1      -3.966   2.717  -1.846  0.00  0.00    +0.134 A 
ATOM      8  C   UNL     1      -3.921   3.597  -2.963  0.00  0.00    +0.055 A 
ATOM      9  C   UNL     1      -5.017   4.171  -3.737  0.00  0.00    +0.002 A 
ATOM     10  C   UNL     1      -4.724   4.993  -4.772  0.00  0.00    +0.056 A 
ATOM     11  S   UNL     1      -2.942   5.046  -4.769  0.00  0.00    -0.076 S 
ATOM     12  C   UNL     1      -2.631   3.974  -3.392  0.00  0.00    +0.114 A 
ATOM     13  N   UNL     1      -1.548   3.535  -2.783  0.00  0.00    -0.219 NA
ATOM     14  C   UNL     1      -1.648   2.710  -1.746  0.00  0.00    +0.169 A 
ATOM     15  N   UNL     1      -2.837   2.316  -1.292  0.00  0.00    -0.211 NA
ATOM     16  H   UNL     1      -6.107   0.720   1.259  0.00  0.00    -0.081 HD
ENDROOT
BRANCH   9  17
ATOM     17  C   UNL     1      -6.426   3.859  -3.397  0.00  0.00    -0.017 A 
ATOM     18  C   UNL     1      -6.855   2.534  -3.338  0.00  0.00    +0.008 A 
ATOM     19  C   UNL     1      -8.166   2.250  -3.016  0.00  0.00    +0.001 A 
ATOM     20  C   UNL     1      -9.057   3.277  -2.762  0.00  0.00    +0.000 A 
ATOM     21  C   UNL     1      -8.639   4.594  -2.824  0.00  0.00    +0.001 A 
ATOM     22  C   UNL     1      -7.328   4.891  -3.140  0.00  0.00    +0.008 A 
ENDBRANCH   9  17
BRANCH  14  23
ATOM     23  C   UNL     1      -0.422   2.227  -1.083  0.00  0.00    +0.056 A 
ATOM     24  C   UNL     1       0.887   2.497  -1.385  0.00  0.00    +0.019 A 
ATOM     25  C   UNL     1       1.875   1.922  -0.619  0.00  0.00    +0.008 A 
ATOM     26  C   UNL     1       1.525   1.105   0.409  0.00  0.00    +0.046 A 
ATOM     27  S   UNL     1      -0.258   1.131   0.318  0.00  0.00    -0.094 S 
ENDBRANCH  14  23
BRANCH   1  29
ATOM     28  C   UNL     1      -8.528   1.364   2.335  0.00  0.00    -0.004 C 
ATOM     29  C   UNL     1      -8.181   0.562   1.079  0.00  0.00    +0.016 C 
BRANCH  29  30
ATOM     30  C   UNL     1      -8.091  -0.902   1.426  0.00  0.00    +0.199 C 
ATOM     31  O   UNL     1      -7.021  -1.389   1.725  0.00  0.00    -0.278 OA
ATOM     32  N   UNL     1      -9.199  -1.669   1.405  0.00  0.00    -0.314 N 
ATOM     33  H   UNL     1     -10.169  -1.227   1.134  0.00  0.00    +0.149 HD
BRANCH  32  34
ATOM     34  C   UNL     1      -9.111  -3.092   1.742  0.00  0.00    +0.073 C 
ATOM     35  C   UNL     1      -9.874  -4.077   0.855  0.00  0.00    +0.024 C 
ATOM     36  C   UNL     1     -10.376  -3.772   2.268  0.00  0.00    +0.024 C 
ENDBRANCH  32  34
ENDBRANCH  29  30
ENDBRANCH   1  29
TORSDOF 5
