REMARK  Name = ZINC31055449
REMARK  11 active torsions:
REMARK  status: ('A' for Active; 'I' for Inactive)
REMARK    1  A    between atoms: C_1  and  C_2
REMARK    2  A    between atoms: C_2  and  O_3
REMARK    3  A    between atoms: O_3  and  C_4
REMARK    4  A    between atoms: C_9  and  C_10
REMARK    5  A    between atoms: C_10  and  C_11
REMARK    6  A    between atoms: C_11  and  C_12
REMARK    7  A    between atoms: C_12  and  N_13
REMARK    8  A    between atoms: C_14  and  C_16
REMARK    9  A    between atoms: N_21  and  C_23
REMARK   10  A    between atoms: C_23  and  C_24
REMARK   11  A    between atoms: C_26  and  C_29
REMARK                            x       y       z     vdW  Elec       q    Type
REMARK                         _______ _______ _______ _____ _____    ______ ____
ROOT
ATOM      1  C   UNL     1       2.563   6.921  -2.856  0.00  0.00    +0.058 C 
ATOM      2  C   UNL     1       1.316   6.838  -3.740  0.00  0.00    +0.009 C 
ATOM      3  C   UNL     1       0.721   5.431  -3.639  0.00  0.00    -0.018 C 
ATOM      4  C   UNL     1       0.396   5.124  -2.175  0.00  0.00    -0.078 C 
ATOM      5  N   UNL     1       1.621   5.216  -1.371  0.00  0.00    +0.386 N 
ATOM      6  C   UNL     1       2.185   6.571  -1.415  0.00  0.00    -0.065 C 
ATOM      7  H   UNL     1       2.361   4.530  -1.808  0.00  0.00    -0.081 HD
ENDROOT
BRANCH   1   9
ATOM      8  N   UNL     1       3.526   8.844  -4.078  0.00  0.00    -0.315 N 
ATOM      9  C   UNL     1       3.123   8.319  -2.904  0.00  0.00    +0.214 C 
ATOM     10  O   UNL     1       3.211   8.973  -1.886  0.00  0.00    -0.276 OA
ATOM     11  H   UNL     1       3.446   8.252  -5.001  0.00  0.00    +0.149 HD
BRANCH   8  12
ATOM     12  C   UNL     1       4.070  10.204  -4.125  0.00  0.00    +0.104 C 
BRANCH  12  13
ATOM     13  C   UNL     1       4.448  10.553  -5.565  0.00  0.00    +0.023 C 
BRANCH  13  14
ATOM     14  C   UNL     1       5.016  11.972  -5.614  0.00  0.00    +0.040 C 
BRANCH  14  20
ATOM     15  C   UNL     1       4.428  12.813  -7.902  0.00  0.00    +0.124 A 
ATOM     16  C   UNL     1       4.774  13.130  -9.208  0.00  0.00    +0.046 A 
ATOM     17  C   UNL     1       6.073  12.948  -9.640  0.00  0.00    +0.004 A 
ATOM     18  C   UNL     1       7.029  12.452  -8.772  0.00  0.00    +0.000 A 
ATOM     19  C   UNL     1       6.688  12.141  -7.469  0.00  0.00    +0.007 A 
ATOM     20  C   UNL     1       5.388  12.316  -7.033  0.00  0.00    -0.006 A 
BRANCH  15  21
ATOM     21  O   UNL     1       3.150  12.992  -7.474  0.00  0.00    -0.492 OA
BRANCH  21  23
ATOM     22  C   UNL     1       0.840  13.639  -7.764  0.00  0.00    +0.048 C 
ATOM     23  C   UNL     1       2.215  13.508  -8.423  0.00  0.00    +0.225 C 
ENDBRANCH  21  23
ENDBRANCH  15  21
ENDBRANCH  14  20
ENDBRANCH  13  14
ENDBRANCH  12  13
ENDBRANCH   8  12
ENDBRANCH   1   9
BRANCH   5  24
ATOM     24  C   UNL     1       1.374   4.793   0.014  0.00  0.00    +0.022 C 
BRANCH  24  25
ATOM     25  C   UNL     1       0.577   3.515   0.015  0.00  0.00    +0.211 A 
ATOM     26  N   UNL     1       1.059   2.297   0.004  0.00  0.00    -0.193 NA
ATOM     27  C   UNL     1      -0.018   1.480   0.010  0.00  0.00    +0.203 A 
ATOM     28  N   UNL     1      -1.081   2.241   0.019  0.00  0.00    -0.056 NA
ATOM     29  O   UNL     1      -0.756   3.410   0.027  0.00  0.00    -0.340 OA
BRANCH  27  30
ATOM     30  C   UNL     1       0.002  -0.004   0.002  0.00  0.00    +0.041 A 
ATOM     31  C   UNL     1       1.217  -0.687  -0.019  0.00  0.00    +0.014 A 
ATOM     32  C   UNL     1       1.231  -2.066  -0.020  0.00  0.00    +0.021 A 
ATOM     33  C   UNL     1       0.040  -2.773  -0.013  0.00  0.00    +0.042 A 
ATOM     34  C   UNL     1      -1.170  -2.101   0.002  0.00  0.00    +0.040 A 
ATOM     35  C   UNL     1      -1.194  -0.720   0.010  0.00  0.00    +0.053 A 
ATOM     36 CL   UNL     1      -2.712   0.123   0.028  0.00  0.00    -0.083 Cl
ATOM     37 CL   UNL     1       0.065  -4.509  -0.023  0.00  0.00    -0.083 Cl
ENDBRANCH  27  30
ENDBRANCH  24  25
ENDBRANCH   5  24
TORSDOF 10
