REMARK  Name = ZINC64182081
REMARK  10 active torsions:
REMARK  status: ('A' for Active; 'I' for Inactive)
REMARK    1  A    between atoms: C_1  and  C_2
REMARK    2  A    between atoms: C_5  and  S_8
REMARK    3  A    between atoms: S_8  and  N_11
REMARK    4  A    between atoms: N_11  and  C_12
REMARK    5  A    between atoms: C_12  and  C_14
REMARK    6  A    between atoms: C_12  and  C_18
REMARK    7  A    between atoms: C_14  and  C_15
REMARK    8  A    between atoms: C_15  and  C_16
REMARK    9  A    between atoms: C_15  and  C_17
REMARK   10  A    between atoms: C_23  and  C_26
REMARK                            x       y       z     vdW  Elec       q    Type
REMARK                         _______ _______ _______ _____ _____    ______ ____
ROOT
ATOM      1  C   UNL     1       3.531  -4.115   1.873  0.00  0.00    +0.234 C 
ATOM      2  O   UNL     1       3.881  -3.776   0.763  0.00  0.00    -0.274 OA
ATOM      3  N   UNL     1       4.251  -3.742   2.950  0.00  0.00    -0.296 N 
ATOM      4  C   UNL     1       5.464  -2.919   2.811  0.00  0.00    +0.113 C 
ATOM      5  C   UNL     1       5.221  -1.592   3.535  0.00  0.00    +0.054 C 
ATOM      6  C   UNL     1       4.607  -1.835   4.882  0.00  0.00    -0.043 C 
ATOM      7  C   UNL     1       3.994  -2.960   5.229  0.00  0.00    -0.004 C 
ATOM      8  C   UNL     1       3.853  -4.136   4.309  0.00  0.00    +0.135 C 
ENDROOT
BRANCH   6   9
ATOM      9  C   UNL     1       4.687  -0.804   5.840  0.00  0.00    -0.016 C 
ATOM     10  C   UNL     1       5.179   0.481   5.651  0.00  0.00    +0.003 A 
ATOM     11  C   UNL     1       5.724   1.139   4.524  0.00  0.00    +0.010 A 
ATOM     12  C   UNL     1       6.133   2.428   4.631  0.00  0.00    +0.001 A 
ATOM     13  C   UNL     1       6.032   3.132   5.835  0.00  0.00    +0.002 A 
ATOM     14  C   UNL     1       5.521   2.566   6.954  0.00  0.00    +0.026 A 
ATOM     15  C   UNL     1       5.070   1.219   6.922  0.00  0.00    +0.043 A 
ATOM     16  N   UNL     1       4.545   0.454   7.854  0.00  0.00    -0.380 N 
ATOM     17  C   UNL     1       4.248  -0.864   7.286  0.00  0.00    +0.149 C 
ATOM     18  H   UNL     1       4.375   0.722   8.771  0.00  0.00    +0.160 HD
ENDBRANCH   6   9
BRANCH   1  19
ATOM     19  C   UNL     1       2.290  -4.952   2.050  0.00  0.00    +0.162 C 
BRANCH  19  20
ATOM     20  N   UNL     1       1.629  -5.123   0.754  0.00  0.00    -0.178 NA
ATOM     21  H   UNL     1       2.159  -5.198  -0.055  0.00  0.00    +0.149 HD
BRANCH  20  22
ATOM     22  S   UNL     1      -0.024  -5.189   0.670  0.00  0.00    +0.059 S 
ATOM     23  O   UNL     1      -0.445  -6.109   1.668  0.00  0.00    -0.153 OA
ATOM     24  O   UNL     1      -0.355  -5.349  -0.702  0.00  0.00    -0.153 OA
BRANCH  22  29
ATOM     25  C   UNL     1      -2.114   0.223   2.327  0.00  0.00    +0.044 C 
ATOM     26  C   UNL     1      -1.592  -1.129   1.913  0.00  0.00    -0.050 A 
ATOM     27  C   UNL     1      -1.308  -1.383   0.585  0.00  0.00    +0.005 A 
ATOM     28  C   UNL     1      -0.829  -2.623   0.205  0.00  0.00    +0.029 A 
ATOM     29  C   UNL     1      -0.633  -3.608   1.154  0.00  0.00    +0.105 A 
ATOM     30  C   UNL     1      -0.916  -3.354   2.483  0.00  0.00    +0.029 A 
ATOM     31  C   UNL     1      -1.391  -2.112   2.864  0.00  0.00    +0.005 A 
ENDBRANCH  22  29
ENDBRANCH  20  22
ENDBRANCH  19  20
BRANCH  19  32
ATOM     32  C   UNL     1       2.676  -6.323   2.610  0.00  0.00    +0.032 C 
BRANCH  32  33
ATOM     33  C   UNL     1       3.484  -7.093   1.564  0.00  0.00    -0.015 C 
ATOM     34  C   UNL     1       4.860  -6.444   1.404  0.00  0.00    +0.007 C 
ATOM     35  C   UNL     1       3.654  -8.544   2.018  0.00  0.00    +0.007 C 
ENDBRANCH  32  33
ENDBRANCH  19  32
ENDBRANCH   1  19
TORSDOF 7
