REMARK  Name = ZINC38671499
REMARK  10 active torsions:
REMARK  status: ('A' for Active; 'I' for Inactive)
REMARK    1  A    between atoms: C_1  and  C_2
REMARK    2  A    between atoms: C_2  and  C_3
REMARK    3  A    between atoms: C_2  and  C_4
REMARK    4  A    between atoms: C_2  and  O_26
REMARK    5  A    between atoms: N_6  and  C_7
REMARK    6  A    between atoms: C_7  and  C_8
REMARK    7  A    between atoms: C_8  and  C_10
REMARK    8  A    between atoms: C_8  and  N_20
REMARK    9  A    between atoms: N_18  and  C_19
REMARK   10  A    between atoms: O_26  and  C_27
REMARK                            x       y       z     vdW  Elec       q    Type
REMARK                         _______ _______ _______ _____ _____    ______ ____
ROOT
ATOM      1  C   UNL     1      -5.294   0.136   2.462  0.00  0.00    -0.020 C 
ENDROOT
BRANCH   1   2
ATOM      2  C   UNL     1      -6.733  -0.304   2.367  0.00  0.00    -0.059 A 
ATOM      3  C   UNL     1      -7.129  -1.503   2.930  0.00  0.00    +0.004 A 
ATOM      4  C   UNL     1      -8.444  -1.909   2.844  0.00  0.00    +0.023 A 
ATOM      5  C   UNL     1      -9.386  -1.111   2.189  0.00  0.00    +0.033 A 
ATOM      6  C   UNL     1      -8.978   0.089   1.629  0.00  0.00    -0.025 A 
ATOM      7  C   UNL     1      -7.660   0.493   1.722  0.00  0.00    +0.007 A 
ATOM      8  C   UNL     1     -10.176   0.752   0.988  0.00  0.00    +0.056 C 
ATOM      9  C   UNL     1     -11.339  -0.219   1.247  0.00  0.00    +0.109 C 
ATOM     10  N   UNL     1     -10.749  -1.334   1.993  0.00  0.00    -0.332 N 
ATOM     11  C   UNL     1     -11.484  -2.511   2.464  0.00  0.00    +0.129 C 
ENDBRANCH   1   2
BRANCH   1  12
ATOM     12  N   UNL     1      -4.769  -0.193   3.793  0.00  0.00    +0.385 N 
ATOM     13  C   UNL     1      -5.621   0.420   4.819  0.00  0.00    -0.078 C 
ATOM     14  C   UNL     1      -5.125   0.015   6.209  0.00  0.00    -0.019 C 
ATOM     15  C   UNL     1      -3.682   0.493   6.390  0.00  0.00    -0.004 C 
ATOM     16  C   UNL     1      -2.816  -0.093   5.271  0.00  0.00    -0.019 C 
ATOM     17  C   UNL     1      -3.397   0.317   3.916  0.00  0.00    -0.078 C 
ATOM     18  H   UNL     1      -4.767  -1.194   3.915  0.00  0.00    -0.081 HD
ENDBRANCH   1  12
BRANCH   1  19
ATOM     19  C   UNL     1      -4.469  -0.586   1.395  0.00  0.00    +0.093 C 
BRANCH  19  22
ATOM     20  C   UNL     1      -4.310  -0.647  -1.036  0.00  0.00    +0.256 C 
ATOM     21  O   UNL     1      -3.332  -1.355  -0.925  0.00  0.00    -0.271 OA
ATOM     22  N   UNL     1      -4.952  -0.208   0.065  0.00  0.00    -0.313 N 
ATOM     23  H   UNL     1      -5.734   0.359  -0.024  0.00  0.00    +0.149 HD
BRANCH  20  25
ATOM     24  C   UNL     1      -6.240  -0.760  -2.588  0.00  0.00    +0.065 C 
ATOM     25  C   UNL     1      -4.807  -0.258  -2.404  0.00  0.00    +0.180 C 
ATOM     26  C   UNL     1      -4.778   1.265  -2.543  0.00  0.00    +0.065 C 
BRANCH  25  27
ATOM     27  O   UNL     1      -3.966  -0.843  -3.401  0.00  0.00    -0.477 OA
BRANCH  27  28
ATOM     28  C   UNL     1      -2.656  -0.481  -3.392  0.00  0.00    +0.122 A 
ATOM     29  C   UNL     1      -2.162   0.316  -2.370  0.00  0.00    +0.047 A 
ATOM     30  C   UNL     1      -0.830   0.683  -2.363  0.00  0.00    +0.023 A 
ATOM     31  C   UNL     1       0.011   0.256  -3.376  0.00  0.00    +0.041 A 
ATOM     32  C   UNL     1      -0.480  -0.539  -4.396  0.00  0.00    +0.023 A 
ATOM     33  C   UNL     1      -1.810  -0.913  -4.403  0.00  0.00    +0.047 A 
ATOM     34 CL   UNL     1       1.684   0.719  -3.365  0.00  0.00    -0.084 Cl
ENDBRANCH  27  28
ENDBRANCH  25  27
ENDBRANCH  20  25
ENDBRANCH  19  22
ENDBRANCH   1  19
TORSDOF 7
