REMARK  Name = ZINC12879060
REMARK  10 active torsions:
REMARK  status: ('A' for Active; 'I' for Inactive)
REMARK    1  A    between atoms: C_1  and  C_2
REMARK    2  A    between atoms: C_5  and  C_8
REMARK    3  A    between atoms: C_8  and  C_9
REMARK    4  A    between atoms: C_8  and  C_10
REMARK    5  A    between atoms: C_8  and  O_38
REMARK    6  A    between atoms: C_16  and  C_37
REMARK    7  A    between atoms: C_26  and  C_36
REMARK    8  A    between atoms: C_29  and  O_32
REMARK    9  A    between atoms: O_32  and  C_33
REMARK   10  A    between atoms: C_33  and  C_35
REMARK                            x       y       z     vdW  Elec       q    Type
REMARK                         _______ _______ _______ _____ _____    ______ ____
ROOT
ATOM      1  C   UNL     1       3.062   7.268   0.968  0.00  0.00    +0.030 C 
ATOM      2  C   UNL     1       4.027   7.456  -0.229  0.00  0.00    +0.007 C 
ATOM      3  C   UNL     1       4.453   6.031  -0.676  0.00  0.00    +0.005 C 
ATOM      4  C   UNL     1       3.301   5.155  -0.173  0.00  0.00    -0.001 C 
ATOM      5  C   UNL     1       3.031   5.765   1.228  0.00  0.00    -0.023 C 
ATOM      6  C   UNL     1       1.714   5.193   1.717  0.00  0.00    +0.007 C 
ATOM      7  C   UNL     1       1.919   3.681   1.903  0.00  0.00    +0.005 C 
ATOM      8  C   UNL     1       2.380   3.009   0.613  0.00  0.00    +0.003 C 
ATOM      9  C   UNL     1       3.628   3.686   0.031  0.00  0.00    +0.000 C 
ATOM     10  C   UNL     1       3.937   3.038  -1.323  0.00  0.00    +0.031 C 
ATOM     11  C   UNL     1       4.090   1.557  -1.138  0.00  0.00    -0.027 C 
ATOM     12  C   UNL     1       3.515   0.899  -0.175  0.00  0.00    -0.064 C 
ATOM     13  C   UNL     1       2.644   1.535   0.868  0.00  0.00    -0.008 C 
ATOM     14  C   UNL     1       1.319   0.772   0.959  0.00  0.00    +0.015 C 
ATOM     15  C   UNL     1       1.603  -0.712   1.199  0.00  0.00    +0.046 C 
ATOM     16  C   UNL     1       2.374  -1.289   0.010  0.00  0.00    +0.180 C 
ATOM     17  C   UNL     1       3.739  -0.602  -0.095  0.00  0.00    +0.075 C 
ATOM     18  C   UNL     1       3.354   1.417   2.218  0.00  0.00    +0.016 C 
ATOM     19  C   UNL     1       4.155   5.376   2.190  0.00  0.00    +0.012 C 
ENDROOT
BRANCH   1  20
ATOM     20  C   UNL     1       3.593   8.008   2.197  0.00  0.00    +0.106 C 
ATOM     21  C   UNL     1       2.711   7.686   3.406  0.00  0.00    +0.045 C 
BRANCH  20  26
ATOM     22  C   UNL     1       5.355  12.680   3.200  0.00  0.00    +0.064 C 
ATOM     23  C   UNL     1       4.885  11.425   2.512  0.00  0.00    +0.058 C 
ATOM     24  N   UNL     1       5.080  11.129   1.286  0.00  0.00    -0.094 NA
ATOM     25  O   UNL     1       4.528   9.879   0.921  0.00  0.00    -0.387 OA
ATOM     26  C   UNL     1       3.569   9.515   1.935  0.00  0.00    +0.241 C 
ATOM     27  C   UNL     1       4.100  10.300   3.159  0.00  0.00    +0.104 C 
ENDBRANCH  20  26
BRANCH  20  28
ATOM     28  O   UNL     1       4.934   7.592   2.462  0.00  0.00    -0.385 OA
ATOM     29  H   UNL     1       5.550   7.765   1.737  0.00  0.00    +0.210 HD
ENDBRANCH  20  28
ENDBRANCH   1  20
BRANCH  16  30
ATOM     30  O   UNL     1       2.563  -2.715   0.203  0.00  0.00    -0.461 OA
BRANCH  30  31
ATOM     31  C   UNL     1       2.632  -3.475  -0.902  0.00  0.00    +0.304 C 
ATOM     32  O   UNL     1       2.538  -2.965  -1.993  0.00  0.00    -0.251 OA
ATOM     33  C   UNL     1       2.828  -4.964  -0.781  0.00  0.00    +0.136 C 
ENDBRANCH  30  31
ENDBRANCH  16  30
TORSDOF 5
