REMARK  Name = ZINC62525511
REMARK  3 active torsions:
REMARK  status: ('A' for Active; 'I' for Inactive)
REMARK    1  A    between atoms: C_1  and  C_2
REMARK    2  A    between atoms: C_6  and  C_9
REMARK    3  A    between atoms: N_13  and  N_14
REMARK                            x       y       z     vdW  Elec       q    Type
REMARK                         _______ _______ _______ _____ _____    ______ ____
ROOT
ATOM      1  C   UNL     1      -0.018   1.503   0.010  0.00  0.00    +0.045 C 
ATOM      2  C   UNL     1       0.002  -0.004   0.002  0.00  0.00    -0.028 A 
ATOM      3  C   UNL     1       0.006  -0.683  -1.200  0.00  0.00    +0.053 A 
ATOM      4  C   UNL     1       0.025  -2.068  -1.211  0.00  0.00    +0.158 A 
ATOM      5  C   UNL     1       0.041  -2.776   0.000  0.00  0.00    +0.116 A 
ATOM      6  C   UNL     1       0.037  -2.078   1.209  0.00  0.00    -0.003 A 
ATOM      7  C   UNL     1       0.023  -0.699   1.202  0.00  0.00    +0.049 A 
ATOM      8 CL   UNL     1       0.025   0.171   2.704  0.00  0.00    -0.083 Cl
ATOM      9  C   UNL     1       0.054  -2.829   2.515  0.00  0.00    +0.047 C 
ATOM     10  N   UNL     1       0.058  -4.098  -0.322  0.00  0.00    -0.194 NA
ATOM     11  C   UNL     1       0.053  -4.213  -1.625  0.00  0.00    +0.302 A 
ATOM     12  O   UNL     1       0.033  -2.996  -2.196  0.00  0.00    -0.424 OA
ATOM     13  N   UNL     1       0.067  -5.406  -2.312  0.00  0.00    -0.237 N 
ATOM     14  H   UNL     1       0.081  -6.245  -1.826  0.00  0.00    +0.170 HD
ENDROOT
BRANCH  13  15
ATOM     15  N   UNL     1       0.060  -5.408  -3.678  0.00  0.00    -0.253 NA
ATOM     16  H   UNL     1       0.832  -4.871  -4.044  0.00  0.00    +0.141 HD
ATOM     17  H   UNL     1       0.071  -6.350  -4.038  0.00  0.00    +0.141 HD
ENDBRANCH  13  15
TORSDOF 1
