REMARK  Name = ZINC10255802
REMARK  2 active torsions:
REMARK  status: ('A' for Active; 'I' for Inactive)
REMARK    1  A    between atoms: C_8  and  C_10
REMARK    2  A    between atoms: C_20  and  C_22
REMARK                            x       y       z     vdW  Elec       q    Type
REMARK                         _______ _______ _______ _____ _____    ______ ____
ROOT
ATOM      1  C   UNL     1      -2.402   1.881   0.023  0.00  0.00    +0.287 C 
ATOM      2  O   UNL     1      -2.669   0.699   0.127  0.00  0.00    -0.266 OA
ATOM      3  N   UNL     1      -1.131   2.268  -0.203  0.00  0.00    -0.252 N 
ATOM      4  C   UNL     1      -0.025   1.413  -0.224  0.00  0.00    +0.041 A 
ATOM      5  C   UNL     1       0.029   0.031  -0.029  0.00  0.00    +0.024 A 
ATOM      6  C   UNL     1       1.234  -0.634  -0.098  0.00  0.00    +0.002 A 
ATOM      7  C   UNL     1       2.399   0.063  -0.361  0.00  0.00    +0.000 A 
ATOM      8  C   UNL     1       2.354   1.431  -0.555  0.00  0.00    +0.005 A 
ATOM      9  C   UNL     1       1.148   2.102  -0.487  0.00  0.00    -0.024 A 
ATOM     10  C   UNL     1       0.818   3.567  -0.657  0.00  0.00    +0.069 C 
ATOM     11  C   UNL     1      -0.705   3.646  -0.459  0.00  0.00    +0.172 C 
ENDROOT
BRANCH   1  19
ATOM     12  C   UNL     1      -7.106   5.636   0.538  0.00  0.00    +0.001 A 
ATOM     13  C   UNL     1      -6.104   6.593   0.473  0.00  0.00    +0.004 A 
ATOM     14  C   UNL     1      -4.782   6.223   0.346  0.00  0.00    +0.047 A 
ATOM     15  C   UNL     1      -4.445   4.876   0.282  0.00  0.00    +0.136 A 
ATOM     16  C   UNL     1      -5.465   3.909   0.349  0.00  0.00    +0.021 A 
ATOM     17  C   UNL     1      -6.798   4.306   0.478  0.00  0.00    +0.011 A 
ATOM     18  C   UNL     1      -4.791   2.615   0.256  0.00  0.00    +0.063 A 
ATOM     19  C   UNL     1      -3.466   2.888   0.144  0.00  0.00    +0.191 A 
ATOM     20  O   UNL     1      -3.272   4.223   0.166  0.00  0.00    -0.450 OA
ENDBRANCH   1  19
BRANCH  11  21
ATOM     21  C   UNL     1      -1.368   4.172  -1.706  0.00  0.00    +0.232 C 
ATOM     22  O   UNL     1      -2.169   3.485  -2.303  0.00  0.00    -0.274 OA
ATOM     23  N   UNL     1      -1.071   5.407  -2.157  0.00  0.00    -0.328 N 
ATOM     24  H   UNL     1      -0.430   5.957  -1.680  0.00  0.00    +0.145 HD
ATOM     25  H   UNL     1      -1.498   5.746  -2.960  0.00  0.00    +0.145 HD
ENDBRANCH  11  21
TORSDOF 2
