REMARK  Name = ZINC15535942
REMARK  9 active torsions:
REMARK  status: ('A' for Active; 'I' for Inactive)
REMARK    1  A    between atoms: C_1  and  C_2
REMARK    2  A    between atoms: C_2  and  C_3
REMARK    3  A    between atoms: C_2  and  C_4
REMARK    4  A    between atoms: C_2  and  C_5
REMARK    5  A    between atoms: C_12  and  C_14
REMARK    6  A    between atoms: N_16  and  N_17
REMARK    7  A    between atoms: C_18  and  C_20
REMARK    8  A    between atoms: C_20  and  C_21
REMARK    9  A    between atoms: C_21  and  N_22
REMARK                            x       y       z     vdW  Elec       q    Type
REMARK                         _______ _______ _______ _____ _____    ______ ____
ROOT
ATOM      1  C   UNL     1       6.007  -0.737  -4.546  0.00  0.00    +0.267 C 
ATOM      2  O   UNL     1       6.936  -0.495  -3.798  0.00  0.00    -0.268 OA
ATOM      3  N   UNL     1       6.246  -1.082  -5.827  0.00  0.00    -0.230 N 
ATOM      4  H   UNL     1       5.505  -1.274  -6.423  0.00  0.00    +0.173 HD
ENDROOT
BRANCH   1  11
ATOM      5  C   UNL     1       0.718  -0.497  -1.257  0.00  0.00    -0.001 C 
ATOM      6  C   UNL     1      -0.026   0.007  -2.496  0.00  0.00    +0.009 C 
ATOM      7  C   UNL     1       0.533  -0.709  -3.733  0.00  0.00    +0.043 C 
ATOM      8  C   UNL     1       2.031  -0.643  -3.684  0.00  0.00    -0.006 A 
ATOM      9  C   UNL     1       2.798  -0.317  -2.603  0.00  0.00    -0.036 A 
ATOM     10  C   UNL     1       4.173  -0.320  -2.792  0.00  0.00    +0.024 A 
ATOM     11  C   UNL     1       4.629  -0.652  -4.054  0.00  0.00    +0.076 A 
ATOM     12  S   UNL     1       3.103  -0.949  -4.927  0.00  0.00    -0.088 S 
ATOM     13  C   UNL     1       2.154   0.029  -1.264  0.00  0.00    +0.040 C 
BRANCH   5  15
ATOM     14  C   UNL     1      -0.019   1.526   0.010  0.00  0.00    +0.011 C 
ATOM     15  C   UNL     1       0.002  -0.004   0.002  0.00  0.00    -0.035 C 
ATOM     16  C   UNL     1       0.742  -0.511   1.242  0.00  0.00    +0.011 C 
ATOM     17  C   UNL     1      -1.433  -0.534   0.013  0.00  0.00    +0.011 C 
ENDBRANCH   5  15
ENDBRANCH   1  11
BRANCH   3  18
ATOM     18  N   UNL     1       7.563  -1.164  -6.297  0.00  0.00    -0.234 N 
ATOM     19  C   UNL     1       7.801  -1.509  -7.577  0.00  0.00    +0.231 C 
ATOM     20  O   UNL     1       6.875  -1.749  -8.323  0.00  0.00    -0.274 OA
ATOM     21  H   UNL     1       8.303  -0.971  -5.700  0.00  0.00    +0.173 HD
BRANCH  19  22
ATOM     22  C   UNL     1       9.218  -1.597  -8.083  0.00  0.00    +0.117 C 
BRANCH  22  23
ATOM     23  C   UNL     1       9.209  -2.005  -9.557  0.00  0.00    +0.125 C 
BRANCH  23  24
ATOM     24  N   UNL     1      10.587  -2.090 -10.049  0.00  0.00    -0.241 N 
ATOM     25  C   UNL     1      11.250  -1.036 -10.597  0.00  0.00    +0.226 C 
ATOM     26  O   UNL     1      10.918   0.130 -10.569  0.00  0.00    -0.275 OA
ATOM     27  C   UNL     1      12.473  -1.609 -11.242  0.00  0.00    +0.087 C 
ATOM     28  C   UNL     1      13.748  -0.794 -11.272  0.00  0.00    +0.013 C 
ATOM     29  C   UNL     1      14.807  -1.679 -11.959  0.00  0.00    +0.001 C 
ATOM     30  C   UNL     1      14.994  -3.007 -11.233  0.00  0.00    +0.001 C 
ATOM     31  C   UNL     1      13.661  -3.750 -11.031  0.00  0.00    +0.013 C 
ATOM     32  C   UNL     1      12.735  -2.820 -10.297  0.00  0.00    +0.087 C 
ATOM     33  C   UNL     1      11.329  -3.228  -9.996  0.00  0.00    +0.226 C 
ATOM     34  O   UNL     1      10.932  -4.348  -9.757  0.00  0.00    -0.275 OA
ENDBRANCH  23  24
ENDBRANCH  22  23
ENDBRANCH  19  22
ENDBRANCH   3  18
TORSDOF 6
