REMARK  Name = ZINC49808706
REMARK  6 active torsions:
REMARK  status: ('A' for Active; 'I' for Inactive)
REMARK    1  A    between atoms: C_1  and  C_2
REMARK    2  A    between atoms: C_2  and  C_3
REMARK    3  A    between atoms: C_2  and  C_4
REMARK    4  A    between atoms: C_6  and  C_9
REMARK    5  A    between atoms: C_9  and  C_11
REMARK    6  A    between atoms: C_9  and  N_19
REMARK                            x       y       z     vdW  Elec       q    Type
REMARK                         _______ _______ _______ _____ _____    ______ ____
ROOT
ATOM      1  C   UNL     1      -4.169  -2.408  -1.382  0.00  0.00    +0.029 C 
ENDROOT
BRANCH   1   2
ATOM      2  C   UNL     1      -4.331  -3.752  -0.719  0.00  0.00    -0.052 A 
ATOM      3  C   UNL     1      -5.188  -3.892   0.357  0.00  0.00    +0.004 A 
ATOM      4  C   UNL     1      -5.338  -5.123   0.967  0.00  0.00    +0.023 A 
ATOM      5  C   UNL     1      -4.632  -6.217   0.500  0.00  0.00    +0.076 A 
ATOM      6  C   UNL     1      -3.774  -6.077  -0.579  0.00  0.00    +0.142 A 
ATOM      7  C   UNL     1      -3.629  -4.844  -1.191  0.00  0.00    +0.042 A 
ATOM      8  F   UNL     1      -3.083  -7.144  -1.036  0.00  0.00    -0.204 F 
ATOM      9 CL   UNL     1      -4.819  -7.763   1.266  0.00  0.00    -0.081 Cl
ENDBRANCH   1   2
BRANCH   1  12
ATOM     10  C   UNL     1      -1.412  -0.526   0.013  0.00  0.00    +0.230 A 
ATOM     11  N   UNL     1      -1.953  -1.285  -0.899  0.00  0.00    -0.197 NA
ATOM     12  C   UNL     1      -3.221  -1.560  -0.574  0.00  0.00    +0.162 A 
ATOM     13  N   UNL     1      -3.503  -0.976   0.555  0.00  0.00    -0.063 NA
ATOM     14  O   UNL     1      -2.326  -0.294   0.963  0.00  0.00    -0.338 OA
BRANCH  10  16
ATOM     15  C   UNL     1      -0.019   1.526   0.010  0.00  0.00    +0.017 C 
ATOM     16  C   UNL     1       0.002  -0.004   0.002  0.00  0.00    +0.072 C 
ATOM     17  C   UNL     1       0.742  -0.511   1.242  0.00  0.00    +0.017 C 
ENDBRANCH  10  16
ENDBRANCH   1  12
BRANCH   1  18
ATOM     18  N   UNL     1      -5.475  -1.741  -1.463  0.00  0.00    +0.387 N 
ATOM     19  H   UNL     1      -5.847  -1.615  -0.534  0.00  0.00    -0.089 HD
ATOM     20  H   UNL     1      -5.367  -0.841  -1.907  0.00  0.00    -0.089 HD
ATOM     21  H   UNL     1      -6.110  -2.309  -2.005  0.00  0.00    -0.089 HD
ENDBRANCH   1  18
TORSDOF 4
