REMARK  Name = ZINC39767338
REMARK  10 active torsions:
REMARK  status: ('A' for Active; 'I' for Inactive)
REMARK    1  A    between atoms: C_1  and  C_2
REMARK    2  A    between atoms: C_10  and  C_11
REMARK    3  A    between atoms: C_14  and  S_19
REMARK    4  A    between atoms: N_15  and  C_16
REMARK    5  A    between atoms: C_16  and  C_17
REMARK    6  A    between atoms: S_19  and  C_20
REMARK    7  A    between atoms: C_20  and  C_21
REMARK    8  A    between atoms: N_23  and  C_24
REMARK    9  A    between atoms: C_27  and  N_30
REMARK   10  A    between atoms: C_31  and  C_33
REMARK                            x       y       z     vdW  Elec       q    Type
REMARK                         _______ _______ _______ _____ _____    ______ ____
ROOT
ATOM      1  C   UNL     1       0.013  -0.445   2.489  0.00  0.00    +0.201 A 
ATOM      2  N   UNL     1       0.008   0.801   2.908  0.00  0.00    -0.125 NA
ATOM      3  N   UNL     1       0.021   0.831   4.193  0.00  0.00    -0.122 NA
ATOM      4  C   UNL     1       0.034  -0.393   4.674  0.00  0.00    +0.193 A 
ATOM      5  N   UNL     1       0.025  -1.248   3.609  0.00  0.00    -0.296 N 
ENDROOT
BRANCH   1  15
ATOM      6  C   UNL     1      -0.013   1.427   0.005  0.00  0.00    +0.048 C 
ATOM      7  C   UNL     1      -0.008  -0.080   0.004  0.00  0.00    +0.006 A 
ATOM      8  C   UNL     1      -0.009  -0.960  -1.166  0.00  0.00    +0.024 A 
ATOM      9  C   UNL     1      -0.013  -0.744  -2.546  0.00  0.00    +0.012 A 
ATOM     10  C   UNL     1      -0.012  -1.813  -3.398  0.00  0.00    +0.001 A 
ATOM     11  C   UNL     1      -0.008  -3.108  -2.901  0.00  0.00    +0.004 A 
ATOM     12  C   UNL     1      -0.004  -3.341  -1.542  0.00  0.00    +0.047 A 
ATOM     13  C   UNL     1      -0.004  -2.271  -0.657  0.00  0.00    +0.136 A 
ATOM     14  O   UNL     1      -0.001  -2.185   0.689  0.00  0.00    -0.451 OA
ATOM     15  C   UNL     1       0.003  -0.897   1.089  0.00  0.00    +0.176 A 
ENDBRANCH   1  15
BRANCH   5  16
ATOM     16  C   UNL     1       0.029  -2.712   3.649  0.00  0.00    +0.152 C 
BRANCH  16  17
ATOM     17  C   UNL     1       1.451  -3.210   3.651  0.00  0.00    -0.013 C 
ATOM     18  C   UNL     1       1.861  -4.015   4.599  0.00  0.00    +0.005 C 
ENDBRANCH  16  17
ENDBRANCH   5  16
BRANCH   4  19
ATOM     19  S   UNL     1       0.055  -0.846   6.377  0.00  0.00    -0.077 S 
BRANCH  19  20
ATOM     20  C   UNL     1       0.052   0.743   7.253  0.00  0.00    +0.173 C 
BRANCH  20  21
ATOM     21  C   UNL     1       0.069   0.496   8.740  0.00  0.00    +0.227 C 
ATOM     22  O   UNL     1       0.082  -0.640   9.166  0.00  0.00    -0.275 OA
ATOM     23  N   UNL     1       0.070   1.537   9.596  0.00  0.00    -0.285 N 
ATOM     24  H   UNL     1       0.127   2.444   9.256  0.00  0.00    +0.155 HD
BRANCH  23  25
ATOM     25  C   UNL     1      -0.012   1.309  10.975  0.00  0.00    +0.034 A 
ATOM     26  C   UNL     1      -0.713   2.194  11.784  0.00  0.00    +0.025 A 
ATOM     27  C   UNL     1      -0.794   1.969  13.144  0.00  0.00    +0.025 A 
ATOM     28  C   UNL     1      -0.174   0.859  13.703  0.00  0.00    +0.033 A 
ATOM     29  C   UNL     1       0.527  -0.025  12.894  0.00  0.00    +0.025 A 
ATOM     30  C   UNL     1       0.603   0.196  11.533  0.00  0.00    +0.025 A 
BRANCH  28  31
ATOM     31  N   UNL     1      -0.255   0.632  15.083  0.00  0.00    -0.286 N 
ATOM     32  C   UNL     1       0.789   0.090  15.739  0.00  0.00    +0.214 C 
ATOM     33  O   UNL     1       1.767  -0.279  15.123  0.00  0.00    -0.276 OA
ATOM     34  C   UNL     1       0.742  -0.059  17.238  0.00  0.00    +0.109 C 
ATOM     35  H   UNL     1      -1.064   0.865  15.566  0.00  0.00    +0.155 HD
ENDBRANCH  28  31
ENDBRANCH  23  25
ENDBRANCH  20  21
ENDBRANCH  19  20
ENDBRANCH   4  19
TORSDOF 8
