REMARK  Name = ZINC09434058
REMARK  8 active torsions:
REMARK  status: ('A' for Active; 'I' for Inactive)
REMARK    1  A    between atoms: C_1  and  C_2
REMARK    2  A    between atoms: C_3  and  N_15
REMARK    3  A    between atoms: N_6  and  C_9
REMARK    4  A    between atoms: N_7  and  C_8
REMARK    5  A    between atoms: C_16  and  C_30
REMARK    6  A    between atoms: N_20  and  N_21
REMARK    7  A    between atoms: C_22  and  C_23
REMARK    8  A    between atoms: C_26  and  O_29
REMARK                            x       y       z     vdW  Elec       q    Type
REMARK                         _______ _______ _______ _____ _____    ______ ____
ROOT
ATOM      1  N   UNL     1      -0.017   0.801  -0.029  0.00  0.00    -0.280 N 
ATOM      2  C   UNL     1       1.005   0.134  -0.644  0.00  0.00    +0.063 A 
ATOM      3  C   UNL     1       2.197   0.747  -0.813  0.00  0.00    +0.075 A 
ATOM      4  S   UNL     1       1.900   2.348  -0.082  0.00  0.00    -0.055 S 
ATOM      5  C   UNL     1       0.200   2.088   0.402  0.00  0.00    +0.200 A 
ATOM      6  N   UNL     1      -0.633   2.918   1.010  0.00  0.00    -0.124 NA
ENDROOT
BRANCH   1   9
ATOM      7  C   UNL     1      -0.454  -1.833   1.483  0.00  0.00    +0.067 C 
ATOM      8  C   UNL     1      -1.500  -0.975   0.817  0.00  0.00    +0.062 A 
ATOM      9  C   UNL     1      -1.268   0.183   0.158  0.00  0.00    +0.136 A 
ATOM     10  C   UNL     1      -2.559   0.670  -0.329  0.00  0.00    +0.296 A 
ATOM     11  O   UNL     1      -2.755   1.685  -0.973  0.00  0.00    -0.264 OA
ATOM     12  N   UNL     1      -3.491  -0.220   0.071  0.00  0.00    -0.215 N 
ATOM     13  N   UNL     1      -2.844  -1.237   0.782  0.00  0.00    -0.282 N 
ATOM     14  C   UNL     1      -3.498  -2.399   1.387  0.00  0.00    +0.171 C 
BRANCH  12  15
ATOM     15  C   UNL     1      -4.864  -0.141  -0.182  0.00  0.00    +0.067 A 
ATOM     16  C   UNL     1      -5.774  -0.329   0.850  0.00  0.00    +0.028 A 
ATOM     17  C   UNL     1      -7.129  -0.245   0.598  0.00  0.00    +0.002 A 
ATOM     18  C   UNL     1      -7.580   0.015  -0.683  0.00  0.00    +0.000 A 
ATOM     19  C   UNL     1      -6.677   0.197  -1.714  0.00  0.00    +0.002 A 
ATOM     20  C   UNL     1      -5.321   0.120  -1.468  0.00  0.00    +0.028 A 
ENDBRANCH  12  15
ENDBRANCH   1   9
BRANCH   2  21
ATOM     21  C   UNL     1       0.807  -1.252  -1.121  0.00  0.00    -0.001 A 
ATOM     22  C   UNL     1       1.806  -2.208  -0.931  0.00  0.00    +0.010 A 
ATOM     23  C   UNL     1       1.613  -3.500  -1.374  0.00  0.00    +0.001 A 
ATOM     24  C   UNL     1       0.437  -3.847  -2.014  0.00  0.00    +0.000 A 
ATOM     25  C   UNL     1      -0.555  -2.902  -2.211  0.00  0.00    +0.001 A 
ATOM     26  C   UNL     1      -0.377  -1.608  -1.768  0.00  0.00    +0.010 A 
ENDBRANCH   2  21
BRANCH   6  27
ATOM     27  N   UNL     1      -0.222   4.079   1.394  0.00  0.00    -0.155 NA
ATOM     28  C   UNL     1      -1.014   4.859   2.082  0.00  0.00    +0.143 C 
BRANCH  28  29
ATOM     29  C   UNL     1      -2.295   4.344   2.588  0.00  0.00    -0.005 A 
ATOM     30  C   UNL     1      -3.209   5.211   3.198  0.00  0.00    +0.013 A 
ATOM     31  C   UNL     1      -4.410   4.723   3.666  0.00  0.00    +0.046 A 
ATOM     32  C   UNL     1      -4.709   3.373   3.543  0.00  0.00    +0.117 A 
ATOM     33  C   UNL     1      -3.804   2.507   2.943  0.00  0.00    +0.046 A 
ATOM     34  C   UNL     1      -2.602   2.984   2.467  0.00  0.00    +0.013 A 
BRANCH  32  35
ATOM     35  O   UNL     1      -5.893   2.896   4.011  0.00  0.00    -0.507 OA
ATOM     36  H   UNL     1      -5.862   2.605   4.933  0.00  0.00    +0.292 HD
ENDBRANCH  32  35
ENDBRANCH  28  29
ENDBRANCH   6  27
TORSDOF 6
