REMARK  Name = ZINC40923918
REMARK  7 active torsions:
REMARK  status: ('A' for Active; 'I' for Inactive)
REMARK    1  A    between atoms: C_1  and  C_2
REMARK    2  A    between atoms: C_7  and  C_8
REMARK    3  A    between atoms: C_8  and  O_9
REMARK    4  A    between atoms: O_9  and  C_10
REMARK    5  A    between atoms: C_15  and  C_16
REMARK    6  A    between atoms: C_18  and  C_27
REMARK    7  A    between atoms: C_19  and  C_26
REMARK                            x       y       z     vdW  Elec       q    Type
REMARK                         _______ _______ _______ _____ _____    ______ ____
ROOT
ATOM      1  C   UNL     1      -0.194  -0.269   5.039  0.00  0.00    +0.127 A 
ATOM      2  C   UNL     1      -0.396   1.077   5.309  0.00  0.00    +0.047 A 
ATOM      3  C   UNL     1      -0.537   1.505   6.614  0.00  0.00    +0.019 A 
ATOM      4  C   UNL     1      -0.477   0.593   7.653  0.00  0.00    +0.018 A 
ATOM      5  C   UNL     1      -0.275  -0.749   7.386  0.00  0.00    +0.025 A 
ATOM      6  C   UNL     1      -0.140  -1.182   6.081  0.00  0.00    +0.024 A 
ATOM      7 BR   UNL     1      -0.670   1.182   9.439  0.00  0.00    -0.050 Br
ENDROOT
BRANCH   6   8
ATOM      8  C   UNL     1       0.073  -2.646   5.790  0.00  0.00    +0.182 C 
ATOM      9  C   UNL     1       1.334  -3.114   6.467  0.00  0.00    +0.060 C 
ATOM     10  C   UNL     1       1.335  -3.915   7.542  0.00  0.00    +0.018 C 
ATOM     11  N   UNL     1       0.174  -4.385   8.108  0.00  0.00    -0.286 N 
ATOM     12  C   UNL     1      -0.999  -4.220   7.386  0.00  0.00    +0.240 A 
ATOM     13  N   UNL     1      -1.060  -3.412   6.295  0.00  0.00    -0.201 N 
ATOM     14  N   UNL     1      -2.373  -3.502   5.835  0.00  0.00    -0.042 NA
ATOM     15  N   UNL     1      -2.988  -4.310   6.637  0.00  0.00    -0.021 NA
ATOM     16  N   UNL     1      -2.184  -4.734   7.552  0.00  0.00    -0.092 NA
ATOM     17  C   UNL     1       2.654  -4.315   8.151  0.00  0.00    +0.061 C 
ATOM     18  H   UNL     1       0.175  -4.815   8.977  0.00  0.00    +0.155 HD
BRANCH   9  19
ATOM     19  C   UNL     1       2.578  -2.688   5.944  0.00  0.00    +0.241 C 
ATOM     20  O   UNL     1       3.001  -3.171   4.909  0.00  0.00    -0.271 OA
ATOM     21  N   UNL     1       3.296  -1.748   6.591  0.00  0.00    -0.325 N 
ATOM     22  H   UNL     1       2.959  -1.363   7.415  0.00  0.00    +0.145 HD
ATOM     23  H   UNL     1       4.148  -1.456   6.232  0.00  0.00    +0.145 HD
ENDBRANCH   9  19
ENDBRANCH   6   8
BRANCH   1  24
ATOM     24  O   UNL     1      -0.055  -0.692   3.755  0.00  0.00    -0.487 OA
BRANCH  24  25
ATOM     25  C   UNL     1      -0.122   0.304   2.732  0.00  0.00    +0.264 C 
BRANCH  25  32
ATOM     26  C   UNL     1      -0.181   1.913   0.333  0.00  0.00    +0.044 C 
ATOM     27  C   UNL     1       0.023   0.423   0.236  0.00  0.00    -0.044 A 
ATOM     28  C   UNL     1       0.188  -0.174  -1.000  0.00  0.00    +0.004 A 
ATOM     29  C   UNL     1       0.376  -1.540  -1.088  0.00  0.00    +0.000 A 
ATOM     30  C   UNL     1       0.399  -2.311   0.060  0.00  0.00    +0.000 A 
ATOM     31  C   UNL     1       0.235  -1.714   1.296  0.00  0.00    +0.007 A 
ATOM     32  C   UNL     1       0.052  -0.347   1.384  0.00  0.00    -0.007 A 
ENDBRANCH  25  32
ENDBRANCH  24  25
ENDBRANCH   1  24
TORSDOF 5
