REMARK  Name = ZINC39769080
REMARK  5 active torsions:
REMARK  status: ('A' for Active; 'I' for Inactive)
REMARK    1  A    between atoms: C_7  and  C_10
REMARK    2  A    between atoms: N_11  and  N_12
REMARK    3  A    between atoms: C_17  and  C_20
REMARK    4  A    between atoms: C_20  and  C_21
REMARK    5  A    between atoms: C_21  and  C_23
REMARK                            x       y       z     vdW  Elec       q    Type
REMARK                         _______ _______ _______ _____ _____    ______ ____
ROOT
ATOM      1  N   UNL     1       0.335  -5.360  -0.032  0.00  0.00    -0.127 NA
ATOM      2  C   UNL     1       0.806  -6.604  -0.044  0.00  0.00    +0.183 C 
ATOM      3  N   UNL     1       0.079  -7.760  -0.050  0.00  0.00    -0.263 N 
ATOM      4  C   UNL     1       0.648  -8.957  -0.063  0.00  0.00    +0.232 C 
ATOM      5  O   UNL     1       0.020  -9.995  -0.069  0.00  0.00    -0.274 OA
ATOM      6  C   UNL     1       2.168  -8.899  -0.070  0.00  0.00    +0.147 C 
ATOM      7  S   UNL     1       2.420  -7.078  -0.063  0.00  0.00    -0.075 S 
ATOM      8  H   UNL     1      -0.889  -7.702  -0.045  0.00  0.00    +0.157 HD
ENDROOT
BRANCH   1  10
ATOM      9  C   UNL     1       0.683  -3.124  -0.022  0.00  0.00    +0.141 C 
ATOM     10  N   UNL     1       1.151  -4.361  -0.034  0.00  0.00    -0.155 NA
BRANCH   9  17
ATOM     11  C   UNL     1      -0.016   1.355   0.009  0.00  0.00    +0.001 A 
ATOM     12  C   UNL     1       1.163   2.101   0.002  0.00  0.00    +0.002 A 
ATOM     13  C   UNL     1       2.383   1.509  -0.013  0.00  0.00    +0.026 A 
ATOM     14  C   UNL     1       2.480   0.094  -0.022  0.00  0.00    +0.043 A 
ATOM     15  N   UNL     1       3.528  -0.709  -0.037  0.00  0.00    -0.380 N 
ATOM     16  C   UNL     1       3.073  -2.103  -0.040  0.00  0.00    +0.150 C 
ATOM     17  C   UNL     1       1.562  -2.049  -0.025  0.00  0.00    +0.000 C 
ATOM     18  C   UNL     1       1.234  -0.686  -0.013  0.00  0.00    +0.004 A 
ATOM     19  C   UNL     1       0.002  -0.004   0.002  0.00  0.00    +0.010 A 
ATOM     20  H   UNL     1       4.455  -0.421  -0.045  0.00  0.00    +0.160 HD
ENDBRANCH   9  17
ENDBRANCH   1  10
BRANCH   6  21
ATOM     21  C   UNL     1       2.743  -9.530  -1.339  0.00  0.00    +0.103 C 
BRANCH  21  22
ATOM     22  C   UNL     1       4.247  -9.561  -1.249  0.00  0.00    +0.165 C 
ATOM     23  O   UNL     1       4.804  -9.122  -0.266  0.00  0.00    -0.292 OA
BRANCH  22  24
ATOM     24  C   UNL     1       5.039 -10.125  -2.353  0.00  0.00    +0.018 A 
ATOM     25  C   UNL     1       4.399 -10.628  -3.491  0.00  0.00    +0.012 A 
ATOM     26  C   UNL     1       5.148 -11.154  -4.522  0.00  0.00    +0.016 A 
ATOM     27  C   UNL     1       6.530 -11.186  -4.433  0.00  0.00    +0.018 A 
ATOM     28  C   UNL     1       7.170 -10.690  -3.309  0.00  0.00    +0.016 A 
ATOM     29  C   UNL     1       6.435 -10.156  -2.273  0.00  0.00    +0.012 A 
ATOM     30 BR   UNL     1       7.548 -11.912  -5.852  0.00  0.00    -0.050 Br
ENDBRANCH  22  24
ENDBRANCH  21  22
ENDBRANCH   6  21
TORSDOF 5
