REMARK  Name = ZINC38613737
REMARK  6 active torsions:
REMARK  status: ('A' for Active; 'I' for Inactive)
REMARK    1  A    between atoms: C_1  and  C_2
REMARK    2  A    between atoms: C_2  and  C_23
REMARK    3  A    between atoms: N_3  and  N_4
REMARK    4  A    between atoms: C_5  and  C_7
REMARK    5  A    between atoms: C_10  and  C_13
REMARK    6  A    between atoms: C_28  and  O_29
REMARK                            x       y       z     vdW  Elec       q    Type
REMARK                         _______ _______ _______ _____ _____    ______ ____
ROOT
ATOM      1  N   UNL     1      -0.271  -2.148   0.956  0.00  0.00    -0.205 N 
ATOM      2  C   UNL     1      -0.398  -2.752   2.154  0.00  0.00    +0.263 C 
ATOM      3  O   UNL     1      -0.336  -2.098   3.174  0.00  0.00    -0.271 OA
ATOM      4  H   UNL     1      -0.320  -2.672   0.141  0.00  0.00    +0.177 HD
ENDROOT
BRANCH   2   5
ATOM      5  C   UNL     1      -0.617  -4.242   2.228  0.00  0.00    +0.240 C 
ATOM      6  C   UNL     1       0.702  -4.984   2.110  0.00  0.00    +0.041 C 
ATOM      7  C   UNL     1       0.805  -5.647   3.280  0.00  0.00    +0.092 C 
ATOM      8  N   UNL     1      -0.276  -5.392   4.065  0.00  0.00    -0.153 NA
ATOM      9  N   UNL     1      -1.108  -4.630   3.561  0.00  0.00    -0.170 NA
BRANCH   7  10
ATOM     10  C   UNL     1       1.934  -6.528   3.656  0.00  0.00    +0.010 A 
ATOM     11  C   UNL     1       3.235  -6.058   3.605  0.00  0.00    +0.011 A 
ATOM     12  C   UNL     1       4.300  -6.879   3.956  0.00  0.00    +0.001 A 
ATOM     13  C   UNL     1       4.096  -8.165   4.359  0.00  0.00    +0.008 A 
ATOM     14  C   UNL     1       2.792  -8.683   4.426  0.00  0.00    -0.017 A 
ATOM     15  C   UNL     1       1.694  -7.858   4.078  0.00  0.00    -0.009 A 
ATOM     16  C   UNL     1       0.393  -8.374   4.151  0.00  0.00    +0.009 A 
ATOM     17  C   UNL     1       0.199  -9.658   4.562  0.00  0.00    +0.001 A 
ATOM     18  C   UNL     1       1.276 -10.469   4.911  0.00  0.00    +0.001 A 
ATOM     19  C   UNL     1       2.554 -10.006   4.838  0.00  0.00    +0.008 A 
ENDBRANCH   7  10
ENDBRANCH   2   5
BRANCH   1  22
ATOM     20  C   UNL     1       0.091   1.333  -0.333  0.00  0.00    +0.068 C 
ATOM     21  C   UNL     1      -0.059  -0.165  -0.264  0.00  0.00    +0.067 C 
ATOM     22  N   UNL     1      -0.067  -0.764   0.888  0.00  0.00    -0.184 NA
BRANCH  21  23
ATOM     23  C   UNL     1      -0.196  -0.950  -1.503  0.00  0.00    +0.039 A 
ATOM     24  C   UNL     1      -1.385  -1.630  -1.776  0.00  0.00    +0.013 A 
ATOM     25  C   UNL     1      -1.506  -2.363  -2.938  0.00  0.00    +0.001 A 
ATOM     26  C   UNL     1      -0.454  -2.427  -3.836  0.00  0.00    +0.004 A 
ATOM     27  C   UNL     1       0.727  -1.759  -3.578  0.00  0.00    +0.046 A 
ATOM     28  C   UNL     1       0.865  -1.014  -2.418  0.00  0.00    +0.126 A 
BRANCH  28  29
ATOM     29  O   UNL     1       2.024  -0.353  -2.165  0.00  0.00    -0.506 OA
ATOM     30  H   UNL     1       2.703  -0.897  -1.744  0.00  0.00    +0.292 HD
ENDBRANCH  28  29
ENDBRANCH  21  23
ENDBRANCH   1  22
TORSDOF 5
