REMARK  Name = ZINC07778601
REMARK  4 active torsions:
REMARK  status: ('A' for Active; 'I' for Inactive)
REMARK    1  A    between atoms: C_4  and  C_7
REMARK    2  A    between atoms: N_15  and  C_16
REMARK    3  A    between atoms: C_16  and  C_17
REMARK    4  A    between atoms: C_21  and  C_30
REMARK                            x       y       z     vdW  Elec       q    Type
REMARK                         _______ _______ _______ _____ _____    ______ ____
ROOT
ATOM      1  C   UNL     1      -2.389   0.755   2.792  0.00  0.00    +0.240 C 
ATOM      2  O   UNL     1      -1.958   0.609   3.917  0.00  0.00    -0.273 OA
ATOM      3  N   UNL     1      -1.611   1.305   1.839  0.00  0.00    -0.263 N 
ATOM      4  C   UNL     1      -2.074   1.410   0.445  0.00  0.00    +0.168 C 
ATOM      5  C   UNL     1      -1.663   2.794  -0.077  0.00  0.00    +0.276 C 
ATOM      6  O   UNL     1      -0.244   2.928   0.029  0.00  0.00    -0.476 OA
ATOM      7  C   UNL     1       0.332   2.609   1.222  0.00  0.00    +0.143 A 
ATOM      8  C   UNL     1      -0.330   1.799   2.141  0.00  0.00    +0.078 A 
ATOM      9  C   UNL     1       0.271   1.480   3.348  0.00  0.00    +0.027 A 
ATOM     10  C   UNL     1       1.530   1.971   3.641  0.00  0.00    +0.002 A 
ATOM     11  C   UNL     1       2.188   2.778   2.731  0.00  0.00    +0.004 A 
ATOM     12  C   UNL     1       1.594   3.098   1.525  0.00  0.00    +0.047 A 
ENDROOT
BRANCH   5  13
ATOM     13  C   UNL     1      -2.076   2.933  -1.520  0.00  0.00    +0.253 C 
ATOM     14  O   UNL     1      -1.233   3.041  -2.385  0.00  0.00    -0.272 OA
ATOM     15  N   UNL     1      -3.383   2.937  -1.849  0.00  0.00    -0.326 N 
ATOM     16  H   UNL     1      -4.058   2.850  -1.157  0.00  0.00    +0.145 HD
ATOM     17  H   UNL     1      -3.649   3.026  -2.778  0.00  0.00    +0.145 HD
ENDBRANCH   5  13
BRANCH   1  18
ATOM     18  C   UNL     1      -3.793   0.321   2.461  0.00  0.00    +0.218 C 
BRANCH  18  27
ATOM     19  C   UNL     1      -5.274   0.641   4.476  0.00  0.00    +0.051 A 
ATOM     20  C   UNL     1      -5.728  -0.096   5.520  0.00  0.00    +0.036 A 
ATOM     21  C   UNL     1      -5.162  -1.436   5.373  0.00  0.00    +0.000 A 
ATOM     22  C   UNL     1      -5.260  -2.615   6.118  0.00  0.00    +0.010 A 
ATOM     23  C   UNL     1      -4.592  -3.733   5.707  0.00  0.00    +0.001 A 
ATOM     24  C   UNL     1      -3.817  -3.709   4.555  0.00  0.00    +0.002 A 
ATOM     25  C   UNL     1      -3.707  -2.559   3.805  0.00  0.00    +0.026 A 
ATOM     26  C   UNL     1      -4.382  -1.408   4.202  0.00  0.00    +0.050 A 
ATOM     27  N   UNL     1      -4.464  -0.136   3.681  0.00  0.00    -0.331 N 
BRANCH  19  31
ATOM     28  C   UNL     1      -6.213   4.724   3.769  0.00  0.00    +0.000 A 
ATOM     29  C   UNL     1      -5.049   4.185   3.251  0.00  0.00    +0.001 A 
ATOM     30  C   UNL     1      -4.738   2.860   3.477  0.00  0.00    +0.010 A 
ATOM     31  C   UNL     1      -5.601   2.063   4.230  0.00  0.00    -0.001 A 
ATOM     32  C   UNL     1      -6.777   2.611   4.745  0.00  0.00    +0.010 A 
ATOM     33  C   UNL     1      -7.072   3.939   4.517  0.00  0.00    +0.001 A 
ENDBRANCH  19  31
ENDBRANCH  18  27
ENDBRANCH   1  18
TORSDOF 4
