REMARK  Name = ZINC19756700
REMARK  8 active torsions:
REMARK  status: ('A' for Active; 'I' for Inactive)
REMARK    1  A    between atoms: C_1  and  C_2
REMARK    2  A    between atoms: C_2  and  C_3
REMARK    3  A    between atoms: N_6  and  C_15
REMARK    4  A    between atoms: C_10  and  N_14
REMARK    5  A    between atoms: C_15  and  C_17
REMARK    6  A    between atoms: C_15  and  C_18
REMARK    7  A    between atoms: N_20  and  C_21
REMARK    8  A    between atoms: C_24  and  C_27
REMARK                            x       y       z     vdW  Elec       q    Type
REMARK                         _______ _______ _______ _____ _____    ______ ____
ROOT
ATOM      1  C   UNL     1       2.399  -4.444  -0.065  0.00  0.00    +0.190 C 
ATOM      2  C   UNL     1       2.590  -2.928  -0.208  0.00  0.00    +0.150 C 
ATOM      3  N   UNL     1       1.294  -2.272   0.002  0.00  0.00    -0.312 N 
ATOM      4  C   UNL     1       0.665  -2.708   1.177  0.00  0.00    +0.073 A 
ATOM      5  C   UNL     1      -0.330  -1.912   1.733  0.00  0.00    +0.028 A 
ATOM      6  C   UNL     1      -0.976  -2.308   2.887  0.00  0.00    +0.025 A 
ATOM      7  C   UNL     1      -0.634  -3.507   3.498  0.00  0.00    +0.028 A 
ATOM      8  C   UNL     1       0.359  -4.304   2.949  0.00  0.00    +0.070 A 
ATOM      9  C   UNL     1       1.011  -3.906   1.790  0.00  0.00    +0.144 A 
ATOM     10  O   UNL     1       1.984  -4.710   1.279  0.00  0.00    -0.485 OA
ENDROOT
BRANCH   7  11
ATOM     11  N   UNL     1      -1.291  -3.910   4.667  0.00  0.00    -0.358 N 
ATOM     12  H   UNL     1      -1.020  -4.860   5.150  0.00  0.00    +0.142 HD
ATOM     13  H   UNL     1      -2.079  -3.277   5.101  0.00  0.00    +0.142 HD
ENDBRANCH   7  11
BRANCH   1  15
ATOM     14  C   UNL     1       3.493  -6.674  -0.328  0.00  0.00    +0.007 C 
ATOM     15  C   UNL     1       3.719  -5.161  -0.350  0.00  0.00    +0.043 C 
ENDBRANCH   1  15
BRANCH   3  16
ATOM     16  C   UNL     1       1.437  -0.810  -0.007  0.00  0.00    +0.157 C 
ATOM     17  C   UNL     1       2.489  -0.394   1.024  0.00  0.00    +0.038 C 
BRANCH  16  18
ATOM     18  C   UNL     1       1.869  -0.355  -1.377  0.00  0.00    +0.237 C 
ATOM     19  O   UNL     1       1.985  -1.162  -2.275  0.00  0.00    -0.273 OA
ATOM     20  N   UNL     1       2.127   0.948  -1.604  0.00  0.00    -0.284 N 
ATOM     21  H   UNL     1       1.958   1.689  -0.809  0.00  0.00    +0.155 HD
BRANCH  20  22
ATOM     22  C   UNL     1       2.610   1.358  -2.852  0.00  0.00    +0.033 A 
ATOM     23  C   UNL     1       3.517   2.406  -2.937  0.00  0.00    +0.023 A 
ATOM     24  C   UNL     1       3.996   2.805  -4.169  0.00  0.00    +0.005 A 
ATOM     25  C   UNL     1       3.563   2.170  -5.319  0.00  0.00    -0.050 A 
ATOM     26  C   UNL     1       2.655   1.130  -5.239  0.00  0.00    +0.005 A 
ATOM     27  C   UNL     1       2.177   0.723  -4.009  0.00  0.00    +0.023 A 
ATOM     28  C   UNL     1       4.083   2.612  -6.663  0.00  0.00    +0.044 C 
ENDBRANCH  20  22
ENDBRANCH  16  18
ENDBRANCH   3  16
TORSDOF 5
