REMARK  Name = ZINC36835255
REMARK  9 active torsions:
REMARK  status: ('A' for Active; 'I' for Inactive)
REMARK    1  A    between atoms: C_1  and  C_2
REMARK    2  A    between atoms: C_2  and  O_3
REMARK    3  A    between atoms: O_3  and  C_4
REMARK    4  A    between atoms: C_7  and  O_10
REMARK    5  A    between atoms: O_10  and  C_11
REMARK    6  A    between atoms: C_16  and  N_17
REMARK    7  A    between atoms: C_18  and  C_20
REMARK    8  A    between atoms: C_20  and  N_21
REMARK    9  A    between atoms: C_29  and  C_31
REMARK                            x       y       z     vdW  Elec       q    Type
REMARK                         _______ _______ _______ _____ _____    ______ ____
ROOT
ATOM      1  N   UNL     1      -2.293  -8.610   0.155  0.00  0.00    -0.281 N 
ATOM      2  C   UNL     1      -2.497  -9.942   0.152  0.00  0.00    +0.235 C 
ATOM      3  O   UNL     1      -3.623 -10.384   0.250  0.00  0.00    -0.274 OA
ATOM      4  H   UNL     1      -1.390  -8.258   0.135  0.00  0.00    +0.155 HD
ENDROOT
BRANCH   1  10
ATOM      5  C   UNL     1      -3.323  -6.513  -0.480  0.00  0.00    +0.150 A 
ATOM      6  C   UNL     1      -4.409  -5.653  -0.450  0.00  0.00    +0.049 A 
ATOM      7  C   UNL     1      -5.550  -6.004   0.248  0.00  0.00    +0.024 A 
ATOM      8  C   UNL     1      -5.611  -7.214   0.918  0.00  0.00    +0.043 A 
ATOM      9  C   UNL     1      -4.532  -8.078   0.891  0.00  0.00    +0.047 A 
ATOM     10  C   UNL     1      -3.386  -7.734   0.188  0.00  0.00    +0.078 A 
ATOM     11 CL   UNL     1      -7.046  -7.647   1.793  0.00  0.00    -0.083 Cl
BRANCH   5  12
ATOM     12  O   UNL     1      -2.201  -6.170  -1.167  0.00  0.00    -0.454 OA
BRANCH  12  16
ATOM     13  C   UNL     1      -2.011  -2.384  -2.802  0.00  0.00    +0.121 A 
ATOM     14  C   UNL     1      -2.017  -2.545  -1.425  0.00  0.00    +0.049 A 
ATOM     15  C   UNL     1      -2.081  -3.812  -0.877  0.00  0.00    +0.050 A 
ATOM     16  C   UNL     1      -2.139  -4.923  -1.705  0.00  0.00    +0.129 A 
ATOM     17  C   UNL     1      -2.134  -4.762  -3.083  0.00  0.00    +0.050 A 
ATOM     18  C   UNL     1      -2.075  -3.495  -3.630  0.00  0.00    +0.049 A 
BRANCH  13  19
ATOM     19  O   UNL     1      -1.949  -1.137  -3.341  0.00  0.00    -0.492 OA
BRANCH  19  21
ATOM     20  C   UNL     1      -1.820   1.272  -3.214  0.00  0.00    +0.048 C 
ATOM     21  C   UNL     1      -1.885  -0.039  -2.429  0.00  0.00    +0.225 C 
ENDBRANCH  19  21
ENDBRANCH  13  19
ENDBRANCH  12  16
ENDBRANCH   5  12
ENDBRANCH   1  10
BRANCH   2  22
ATOM     22  C   UNL     1      -1.327 -10.883   0.027  0.00  0.00    +0.214 C 
BRANCH  22  23
ATOM     23  N   UNL     1      -1.808 -12.267   0.049  0.00  0.00    -0.215 N 
ATOM     24  C   UNL     1      -1.959 -13.000   1.171  0.00  0.00    +0.247 C 
ATOM     25  O   UNL     1      -1.731 -12.653   2.310  0.00  0.00    -0.273 OA
ATOM     26  C   UNL     1      -2.473 -14.344   0.709  0.00  0.00    +0.115 C 
ATOM     27  C   UNL     1      -1.488 -15.447   1.085  0.00  0.00    +0.035 C 
ATOM     28  C   UNL     1      -1.382 -15.539   2.610  0.00  0.00    +0.003 C 
ATOM     29  C   UNL     1      -2.761 -15.841   3.199  0.00  0.00    +0.000 C 
ATOM     30  C   UNL     1      -3.732 -14.717   2.831  0.00  0.00    +0.006 C 
ATOM     31  C   UNL     1      -3.848 -14.621   1.308  0.00  0.00    +0.018 C 
ATOM     32  C   UNL     1      -4.803 -13.485   0.939  0.00  0.00    +0.010 C 
ATOM     33  N   UNL     1      -2.563 -14.210  -0.750  0.00  0.00    -0.285 N 
ATOM     34  C   UNL     1      -2.159 -12.959  -1.042  0.00  0.00    +0.310 C 
ATOM     35  O   UNL     1      -2.114 -12.509  -2.171  0.00  0.00    -0.252 OA
ATOM     36  H   UNL     1      -2.859 -14.886  -1.378  0.00  0.00    +0.151 HD
ENDBRANCH  22  23
ENDBRANCH   2  22
TORSDOF 7
