REMARK  Name = ZINC08830122
REMARK  7 active torsions:
REMARK  status: ('A' for Active; 'I' for Inactive)
REMARK    1  A    between atoms: C_4  and  N_35
REMARK    2  A    between atoms: C_5  and  C_7
REMARK    3  A    between atoms: C_10  and  C_12
REMARK    4  A    between atoms: C_14  and  C_26
REMARK    5  A    between atoms: C_16  and  C_21
REMARK    6  A    between atoms: C_16  and  O_25
REMARK    7  A    between atoms: C_26  and  C_28
REMARK                            x       y       z     vdW  Elec       q    Type
REMARK                         _______ _______ _______ _____ _____    ______ ____
ROOT
ATOM      1  C   UNL     1       2.353  -5.401  -1.300  0.00  0.00    +0.156 C 
ATOM      2  C   UNL     1       1.592  -5.655  -2.606  0.00  0.00    +0.147 C 
ATOM      3  C   UNL     1       1.783  -4.444  -3.526  0.00  0.00    +0.243 C 
ATOM      4  N   UNL     1       3.214  -4.205  -3.714  0.00  0.00    -0.264 N 
ATOM      5  C   UNL     1       4.107  -4.535  -2.769  0.00  0.00    +0.302 C 
ATOM      6  O   UNL     1       5.284  -4.304  -2.971  0.00  0.00    -0.253 OA
ATOM      7  N   UNL     1       3.754  -5.110  -1.608  0.00  0.00    -0.289 N 
ATOM      8  H   UNL     1       3.524  -3.799  -4.539  0.00  0.00    +0.153 HD
ATOM      9  H   UNL     1       4.439  -5.338  -0.961  0.00  0.00    +0.151 HD
ENDROOT
BRANCH   1  13
ATOM     10  C   UNL     1       1.250  -2.160  -0.023  0.00  0.00    +0.137 A 
ATOM     11  C   UNL     1       0.561  -2.976   0.819  0.00  0.00    +0.050 A 
ATOM     12  C   UNL     1       0.882  -4.299   0.454  0.00  0.00    +0.047 A 
ATOM     13  C   UNL     1       1.740  -4.226  -0.582  0.00  0.00    +0.127 A 
ATOM     14  O   UNL     1       1.957  -2.932  -0.870  0.00  0.00    -0.458 OA
BRANCH  10  19
ATOM     15  C   UNL     1      -0.017   1.375   0.010  0.00  0.00    +0.001 A 
ATOM     16  C   UNL     1       1.170   2.086   0.002  0.00  0.00    +0.002 A 
ATOM     17  C   UNL     1       2.383   1.420  -0.013  0.00  0.00    +0.033 A 
ATOM     18  C   UNL     1       2.416   0.041  -0.021  0.00  0.00    +0.137 A 
ATOM     19  C   UNL     1       1.222  -0.682  -0.014  0.00  0.00    +0.047 A 
ATOM     20  C   UNL     1       0.002  -0.004   0.002  0.00  0.00    +0.014 A 
BRANCH  18  21
ATOM     21  N   UNL     1       3.714  -0.670  -0.038  0.00  0.00    +0.057 N 
ATOM     22  O   UNL     1       4.747  -0.042  -0.045  0.00  0.00    -0.126 OA
ATOM     23  O   UNL     1       3.741  -1.879  -0.045  0.00  0.00    -0.126 OA
ENDBRANCH  18  21
ENDBRANCH  10  19
ENDBRANCH   1  13
BRANCH   3  24
ATOM     24  C   UNL     1       1.128  -4.722  -4.880  0.00  0.00    +0.436 C 
ATOM     25  F   UNL     1      -0.239  -4.958  -4.698  0.00  0.00    -0.166 F 
ATOM     26  F   UNL     1       1.303  -3.616  -5.719  0.00  0.00    -0.166 F 
ATOM     27  F   UNL     1       1.722  -5.847  -5.463  0.00  0.00    -0.166 F 
ENDBRANCH   3  24
BRANCH   3  28
ATOM     28  O   UNL     1       1.180  -3.293  -2.930  0.00  0.00    -0.364 OA
ATOM     29  H   UNL     1       1.263  -2.487  -3.459  0.00  0.00    +0.212 HD
ENDBRANCH   3  28
BRANCH   2  30
ATOM     30  C   UNL     1       2.133  -6.892  -3.274  0.00  0.00    +0.173 C 
ATOM     31  O   UNL     1       3.049  -6.804  -4.064  0.00  0.00    -0.292 OA
BRANCH  30  32
ATOM     32  C   UNL     1       1.550  -8.208  -2.969  0.00  0.00    +0.018 A 
ATOM     33  C   UNL     1       0.489  -8.313  -2.062  0.00  0.00    +0.013 A 
ATOM     34  C   UNL     1      -0.052  -9.549  -1.781  0.00  0.00    +0.020 A 
ATOM     35  C   UNL     1       0.452 -10.685  -2.393  0.00  0.00    +0.041 A 
ATOM     36  C   UNL     1       1.502 -10.589  -3.292  0.00  0.00    +0.020 A 
ATOM     37  C   UNL     1       2.050  -9.359  -3.587  0.00  0.00    +0.013 A 
ATOM     38 CL   UNL     1      -0.235 -12.238  -2.032  0.00  0.00    -0.084 Cl
ENDBRANCH  30  32
ENDBRANCH   2  30
TORSDOF 7
