REMARK  Name = ZINC02644128
REMARK  9 active torsions:
REMARK  status: ('A' for Active; 'I' for Inactive)
REMARK    1  A    between atoms: C_1  and  C_2
REMARK    2  A    between atoms: C_11  and  N_21
REMARK    3  A    between atoms: C_13  and  C_15
REMARK    4  A    between atoms: C_15  and  N_66
REMARK    5  A    between atoms: N_21  and  C_22
REMARK    6  A    between atoms: C_25  and  C_28
REMARK    7  A    between atoms: C_28  and  C_29
REMARK    8  A    between atoms: C_28  and  C_30
REMARK    9  A    between atoms: C_28  and  C_31
REMARK                            x       y       z     vdW  Elec       q    Type
REMARK                         _______ _______ _______ _____ _____    ______ ____
ROOT
ATOM      1  C   UNL     1      -2.599   4.657  -8.522  0.00  0.00    +0.008 C 
ATOM      2  C   UNL     1      -2.908   4.197  -7.096  0.00  0.00    -0.009 C 
ATOM      3  C   UNL     1      -2.508   2.728  -6.932  0.00  0.00    +0.008 C 
ATOM      4  C   UNL     1      -3.035   2.192  -5.601  0.00  0.00    +0.037 C 
ATOM      5  C   UNL     1      -2.586   3.126  -4.481  0.00  0.00    -0.025 A 
ATOM      6  C   UNL     1      -2.181   4.383  -4.753  0.00  0.00    -0.004 A 
ATOM      7  S   UNL     1      -1.760   5.085  -3.180  0.00  0.00    -0.073 S 
ATOM      8  C   UNL     1      -2.130   3.685  -2.155  0.00  0.00    +0.114 A 
ATOM      9  C   UNL     1      -2.570   2.713  -3.076  0.00  0.00    +0.051 A 
ATOM     10  C   UNL     1      -2.940   1.461  -2.513  0.00  0.00    +0.135 A 
ATOM     11  N   UNL     1      -2.846   1.291  -1.204  0.00  0.00    -0.219 NA
ATOM     12  C   UNL     1      -2.429   2.251  -0.398  0.00  0.00    +0.116 A 
ATOM     13  N   UNL     1      -2.072   3.433  -0.863  0.00  0.00    -0.227 NA
ATOM     14  C   UNL     1      -2.104   5.041  -6.097  0.00  0.00    +0.046 C 
ENDROOT
BRANCH  10  15
ATOM     15  N   UNL     1      -3.388   0.432  -3.323  0.00  0.00    -0.299 N 
ATOM     16  H   UNL     1      -3.538   0.589  -4.268  0.00  0.00    +0.154 HD
BRANCH  15  17
ATOM     17  C   UNL     1      -3.623  -0.834  -2.779  0.00  0.00    +0.032 A 
ATOM     18  C   UNL     1      -2.917  -1.252  -1.658  0.00  0.00    +0.023 A 
ATOM     19  C   UNL     1      -3.155  -2.502  -1.120  0.00  0.00    +0.006 A 
ATOM     20  C   UNL     1      -4.088  -3.341  -1.703  0.00  0.00    -0.042 A 
ATOM     21  C   UNL     1      -4.789  -2.930  -2.822  0.00  0.00    +0.006 A 
ATOM     22  C   UNL     1      -4.559  -1.679  -3.362  0.00  0.00    +0.023 A 
BRANCH  20  23
ATOM     23  C   UNL     1      -4.341  -4.706  -1.116  0.00  0.00    -0.013 C 
ATOM     24  C   UNL     1      -4.028  -5.776  -2.164  0.00  0.00    +0.015 C 
ATOM     25  C   UNL     1      -3.444  -4.910   0.106  0.00  0.00    +0.015 C 
ATOM     26  C   UNL     1      -5.808  -4.816  -0.697  0.00  0.00    +0.015 C 
ENDBRANCH  20  23
ENDBRANCH  15  17
ENDBRANCH  10  15
BRANCH  12  27
ATOM     27  C   UNL     1      -2.353   1.988   1.084  0.00  0.00    -0.001 C 
BRANCH  27  33
ATOM     28  C   UNL     1      -3.861   3.803   1.632  0.00  0.00    -0.050 C 
ATOM     29  C   UNL     1      -5.225   4.131   2.243  0.00  0.00    +0.141 C 
ATOM     30  O   UNL     1      -5.267   3.650   3.589  0.00  0.00    -0.383 OA
ATOM     31  C   UNL     1      -5.047   2.241   3.704  0.00  0.00    +0.141 C 
ATOM     32  C   UNL     1      -3.681   1.894   3.108  0.00  0.00    -0.050 C 
ATOM     33  N   UNL     1      -3.651   2.342   1.699  0.00  0.00    +0.387 N 
ATOM     34  H   UNL     1      -4.404   1.872   1.183  0.00  0.00    -0.081 HD
ENDBRANCH  27  33
ENDBRANCH  12  27
TORSDOF 5
