REMARK  Name = ZINC09957358
REMARK  12 active torsions:
REMARK  status: ('A' for Active; 'I' for Inactive)
REMARK    1  A    between atoms: C_1  and  C_2
REMARK    2  A    between atoms: C_2  and  O_3
REMARK    3  A    between atoms: O_3  and  C_4
REMARK    4  A    between atoms: C_6  and  C_15
REMARK    5  A    between atoms: C_9  and  O_10
REMARK    6  A    between atoms: O_10  and  C_11
REMARK    7  A    between atoms: C_11  and  C_12
REMARK    8  A    between atoms: N_19  and  C_30
REMARK    9  A    between atoms: N_21  and  C_22
REMARK   10  A    between atoms: C_25  and  C_28
REMARK   11  A    between atoms: C_30  and  C_31
REMARK   12  A    between atoms: C_31  and  C_32
REMARK                            x       y       z     vdW  Elec       q    Type
REMARK                         _______ _______ _______ _____ _____    ______ ____
ROOT
ATOM      1  C   UNL     1      -0.620  -5.144   0.524  0.00  0.00    +0.028 C 
ATOM      2  C   UNL     1      -0.245  -6.393   0.147  0.00  0.00    +0.078 C 
ATOM      3  C   UNL     1       1.107  -6.936  -0.082  0.00  0.00    +0.259 C 
ATOM      4  O   UNL     1       2.101  -6.248   0.060  0.00  0.00    -0.269 OA
ATOM      5  N   UNL     1       1.191  -8.204  -0.448  0.00  0.00    -0.246 N 
ATOM      6  C   UNL     1       0.054  -8.966  -0.602  0.00  0.00    +0.168 C 
ATOM      7  N   UNL     1      -0.042 -10.229  -0.956  0.00  0.00    -0.225 NA
ATOM      8  S   UNL     1      -1.258  -7.825  -0.197  0.00  0.00    -0.049 S 
ENDROOT
BRANCH   7   9
ATOM      9  C   UNL     1       0.998 -11.086  -0.719  0.00  0.00    +0.067 A 
ATOM     10  C   UNL     1       1.334 -11.436   0.591  0.00  0.00    +0.028 A 
ATOM     11  C   UNL     1       2.383 -12.301   0.823  0.00  0.00    +0.005 A 
ATOM     12  C   UNL     1       3.102 -12.822  -0.239  0.00  0.00    -0.050 A 
ATOM     13  C   UNL     1       2.774 -12.480  -1.539  0.00  0.00    +0.005 A 
ATOM     14  C   UNL     1       1.724 -11.621  -1.786  0.00  0.00    +0.028 A 
ATOM     15  C   UNL     1       4.247 -13.766   0.022  0.00  0.00    +0.044 C 
ENDBRANCH   7   9
BRANCH   1  18
ATOM     16  C   UNL     1      -3.780  -3.227   1.157  0.00  0.00    +0.162 A 
ATOM     17  C   UNL     1      -2.439  -3.553   1.104  0.00  0.00    +0.057 A 
ATOM     18  C   UNL     1      -2.044  -4.791   0.584  0.00  0.00    -0.020 A 
ATOM     19  C   UNL     1      -3.011  -5.692   0.120  0.00  0.00    +0.012 A 
ATOM     20  C   UNL     1      -4.346  -5.357   0.177  0.00  0.00    +0.050 A 
ATOM     21  C   UNL     1      -4.737  -4.131   0.698  0.00  0.00    +0.163 A 
BRANCH  16  22
ATOM     22  O   UNL     1      -4.168  -2.025   1.662  0.00  0.00    -0.489 OA
BRANCH  22  24
ATOM     23  C   UNL     1      -3.759   0.145   2.644  0.00  0.00    +0.048 C 
ATOM     24  C   UNL     1      -3.135  -1.147   2.114  0.00  0.00    +0.226 C 
ENDBRANCH  22  24
ENDBRANCH  16  22
BRANCH  21  25
ATOM     25  O   UNL     1      -6.056  -3.810   0.757  0.00  0.00    -0.479 OA
BRANCH  25  26
ATOM     26  C   UNL     1      -6.983  -4.782   0.270  0.00  0.00    +0.324 C 
BRANCH  26  27
ATOM     27  C   UNL     1      -8.387  -4.254   0.413  0.00  0.00    +0.248 C 
ATOM     28  O   UNL     1      -8.575  -3.153   0.886  0.00  0.00    -0.272 OA
ATOM     29  N   UNL     1      -9.433  -5.005   0.017  0.00  0.00    -0.327 N 
ATOM     30  H   UNL     1      -9.283  -5.885  -0.361  0.00  0.00    +0.145 HD
ATOM     31  H   UNL     1     -10.337  -4.665   0.109  0.00  0.00    +0.145 HD
ENDBRANCH  26  27
ENDBRANCH  25  26
ENDBRANCH  21  25
ENDBRANCH   1  18
BRANCH   5  32
ATOM     32  C   UNL     1       2.505  -8.803  -0.692  0.00  0.00    +0.120 C 
BRANCH  32  33
ATOM     33  C   UNL     1       2.962  -8.471  -2.114  0.00  0.00    +0.054 C 
BRANCH  33  34
ATOM     34  C   UNL     1       4.223  -9.233  -2.427  0.00  0.00    -0.046 A 
ATOM     35  C   UNL     1       5.451  -8.725  -2.043  0.00  0.00    +0.004 A 
ATOM     36  C   UNL     1       6.608  -9.424  -2.331  0.00  0.00    +0.000 A 
ATOM     37  C   UNL     1       6.538 -10.630  -3.002  0.00  0.00    +0.000 A 
ATOM     38  C   UNL     1       5.311 -11.138  -3.385  0.00  0.00    +0.000 A 
ATOM     39  C   UNL     1       4.153 -10.441  -3.094  0.00  0.00    +0.004 A 
ENDBRANCH  33  34
ENDBRANCH  32  33
ENDBRANCH   5  32
TORSDOF 10
