REMARK  Name = ZINC50430055
REMARK  6 active torsions:
REMARK  status: ('A' for Active; 'I' for Inactive)
REMARK    1  A    between atoms: C_1  and  C_2
REMARK    2  A    between atoms: C_5  and  C_20
REMARK    3  A    between atoms: C_7  and  N_8
REMARK    4  A    between atoms: N_8  and  C_9
REMARK    5  A    between atoms: C_9  and  C_10
REMARK    6  A    between atoms: C_15  and  O_16
REMARK                            x       y       z     vdW  Elec       q    Type
REMARK                         _______ _______ _______ _____ _____    ______ ____
ROOT
ATOM      1  C   UNL     1       0.046  -0.745   3.682  0.00  0.00    +0.140 C 
ENDROOT
BRANCH   1   2
ATOM      2  C   UNL     1       0.043   0.230   4.830  0.00  0.00    +0.015 A 
ATOM      3  C   UNL     1      -1.108   0.420   5.572  0.00  0.00    +0.058 A 
ATOM      4  C   UNL     1      -1.114   1.315   6.628  0.00  0.00    +0.167 A 
ATOM      5  C   UNL     1       0.042   2.025   6.944  0.00  0.00    +0.170 A 
ATOM      6  C   UNL     1       1.195   1.833   6.200  0.00  0.00    +0.095 A 
ATOM      7  C   UNL     1       1.197   0.931   5.146  0.00  0.00    +0.125 A 
ATOM      8  O   UNL     1      -0.220   2.833   8.012  0.00  0.00    -0.452 OA
ATOM      9  C   UNL     1      -1.655   2.915   8.090  0.00  0.00    +0.466 C 
ATOM     10  O   UNL     1      -2.101   1.679   7.500  0.00  0.00    -0.453 OA
BRANCH   7  11
ATOM     11  O   UNL     1       2.330   0.739   4.420  0.00  0.00    -0.506 OA
ATOM     12  H   UNL     1       2.415   1.330   3.659  0.00  0.00    +0.292 HD
ENDBRANCH   7  11
ENDBRANCH   1   2
BRANCH   1  13
ATOM     13  N   UNL     1       0.025  -0.009   2.416  0.00  0.00    -0.339 N 
ATOM     14  H   UNL     1       0.011   0.961   2.419  0.00  0.00    +0.146 HD
BRANCH  13  21
ATOM     15  C   UNL     1      -0.018   1.503   0.010  0.00  0.00    +0.045 C 
ATOM     16  C   UNL     1       0.002  -0.004   0.002  0.00  0.00    -0.030 A 
ATOM     17  C   UNL     1       0.006  -0.686  -1.200  0.00  0.00    +0.006 A 
ATOM     18  C   UNL     1       0.024  -2.066  -1.216  0.00  0.00    +0.019 A 
ATOM     19  C   UNL     1       0.040  -2.778  -0.015  0.00  0.00    +0.054 A 
ATOM     20  C   UNL     1       0.037  -2.090   1.198  0.00  0.00    +0.042 A 
ATOM     21  C   UNL     1       0.023  -0.703   1.203  0.00  0.00    +0.032 A 
BRANCH  19  22
ATOM     22  C   UNL     1       0.059  -4.210  -0.029  0.00  0.00    +0.099 C 
ATOM     23  N   UNL     1       0.074  -5.346  -0.040  0.00  0.00    -0.191 NA
ENDBRANCH  19  22
ENDBRANCH  13  21
ENDBRANCH   1  13
TORSDOF 5
