REMARK  Name = ZINC20100776
REMARK  10 active torsions:
REMARK  status: ('A' for Active; 'I' for Inactive)
REMARK    1  A    between atoms: C_1  and  C_2
REMARK    2  A    between atoms: C_2  and  O_3
REMARK    3  A    between atoms: O_3  and  C_4
REMARK    4  A    between atoms: C_9  and  O_10
REMARK    5  A    between atoms: O_10  and  C_11
REMARK    6  A    between atoms: C_11  and  C_12
REMARK    7  A    between atoms: N_14  and  N_15
REMARK    8  A    between atoms: C_16  and  C_17
REMARK    9  A    between atoms: C_20  and  O_24
REMARK   10  A    between atoms: O_24  and  C_25
REMARK                            x       y       z     vdW  Elec       q    Type
REMARK                         _______ _______ _______ _____ _____    ______ ____
ROOT
ATOM      1  C   UNL     1       4.762   1.308  -0.037  0.00  0.00    +0.270 C 
ATOM      2  O   UNL     1       4.623   0.102  -0.043  0.00  0.00    -0.270 OA
ATOM      3  N   UNL     1       5.999   1.843  -0.046  0.00  0.00    -0.204 N 
ATOM      4  H   UNL     1       6.125   2.935  -0.041  0.00  0.00    +0.177 HD
ENDROOT
BRANCH   3   5
ATOM      5  N   UNL     1       7.124   1.007  -0.062  0.00  0.00    -0.188 NA
ATOM      6  C   UNL     1       8.315   1.523  -0.071  0.00  0.00    +0.138 C 
BRANCH   6   7
ATOM      7  C   UNL     1       9.498   0.644  -0.087  0.00  0.00    -0.004 A 
ATOM      8  C   UNL     1       9.340  -0.745  -0.088  0.00  0.00    +0.013 A 
ATOM      9  C   UNL     1      10.449  -1.563  -0.108  0.00  0.00    +0.047 A 
ATOM     10  C   UNL     1      11.723  -1.010  -0.117  0.00  0.00    +0.133 A 
ATOM     11  C   UNL     1      11.885   0.370  -0.112  0.00  0.00    +0.056 A 
ATOM     12  C   UNL     1      10.781   1.196  -0.097  0.00  0.00    +0.027 A 
ATOM     13  I   UNL     1      13.810   1.197  -0.126  0.00  0.00    -0.040 I 
BRANCH  10  14
ATOM     14  O   UNL     1      12.813  -1.820  -0.131  0.00  0.00    -0.494 OA
ATOM     15  C   UNL     1      12.574  -3.229  -0.136  0.00  0.00    +0.277 C 
ENDBRANCH  10  14
ENDBRANCH   6   7
ENDBRANCH   3   5
BRANCH   1  16
ATOM     16  C   UNL     1       3.552   2.206  -0.021  0.00  0.00    +0.326 C 
BRANCH  16  17
ATOM     17  O   UNL     1       2.367   1.409  -0.013  0.00  0.00    -0.479 OA
BRANCH  17  23
ATOM     18  C   UNL     1      -0.016   1.356   0.009  0.00  0.00    +0.162 A 
ATOM     19  C   UNL     1      -1.225   2.034   0.019  0.00  0.00    +0.049 A 
ATOM     20  C   UNL     1      -1.242   3.416   0.032  0.00  0.00    +0.004 A 
ATOM     21  C   UNL     1      -0.055   4.125   0.025  0.00  0.00    +0.004 A 
ATOM     22  C   UNL     1       1.154   3.455   0.010  0.00  0.00    +0.049 A 
ATOM     23  C   UNL     1       1.178   2.069   0.002  0.00  0.00    +0.163 A 
BRANCH  18  24
ATOM     24  O   UNL     1       0.002  -0.004   0.002  0.00  0.00    -0.489 OA
BRANCH  24  26
ATOM     25  C   UNL     1      -1.041  -2.184   0.000  0.00  0.00    +0.048 C 
ATOM     26  C   UNL     1      -1.262  -0.670   0.011  0.00  0.00    +0.226 C 
ENDBRANCH  24  26
ENDBRANCH  18  24
ENDBRANCH  17  23
ENDBRANCH  16  17
ENDBRANCH   1  16
TORSDOF 8
