REMARK  Name = ZINC19721384
REMARK  4 active torsions:
REMARK  status: ('A' for Active; 'I' for Inactive)
REMARK    1  A    between atoms: C_1  and  N_2
REMARK    2  A    between atoms: C_10  and  C_11
REMARK    3  A    between atoms: C_12  and  C_18
REMARK    4  A    between atoms: C_16  and  N_17
REMARK                            x       y       z     vdW  Elec       q    Type
REMARK                         _______ _______ _______ _____ _____    ______ ____
ROOT
ATOM      1  C   UNL     1       2.304  -3.080  -0.106  0.00  0.00    +0.084 A 
ATOM      2  C   UNL     1       1.126  -2.328   0.336  0.00  0.00    +0.108 A 
ATOM      3  N   UNL     1       0.103  -3.151   0.296  0.00  0.00    -0.171 NA
ATOM      4  N   UNL     1       0.534  -4.402  -0.156  0.00  0.00    -0.263 N 
ATOM      5  H   UNL     1      -0.186  -5.226  -0.264  0.00  0.00    +0.190 HD
ATOM      6  C   UNL     1       1.861  -4.363  -0.397  0.00  0.00    +0.123 A 
ENDROOT
BRANCH   1  16
ATOM      7  C   UNL     1       4.799  -4.355   1.190  0.00  0.00    +0.151 C 
ATOM      8  N   UNL     1       4.783  -3.148   0.360  0.00  0.00    -0.327 N 
ATOM      9  C   UNL     1       5.878  -2.375   0.014  0.00  0.00    +0.069 A 
ATOM     10  C   UNL     1       7.234  -2.449   0.295  0.00  0.00    +0.028 A 
ATOM     11  C   UNL     1       8.094  -1.498  -0.213  0.00  0.00    +0.002 A 
ATOM     12  C   UNL     1       7.612  -0.465  -1.004  0.00  0.00    +0.002 A 
ATOM     13  C   UNL     1       6.269  -0.374  -1.293  0.00  0.00    +0.030 A 
ATOM     14  C   UNL     1       5.384  -1.330  -0.786  0.00  0.00    +0.090 A 
ATOM     15  N   UNL     1       4.043  -1.509  -0.898  0.00  0.00    -0.227 NA
ATOM     16  C   UNL     1       3.682  -2.574  -0.220  0.00  0.00    +0.147 A 
ENDBRANCH   1  16
BRANCH   2  17
ATOM     17  C   UNL     1       1.096  -0.907   0.757  0.00  0.00    +0.038 A 
ATOM     18  C   UNL     1       2.284  -0.190   0.886  0.00  0.00    +0.013 A 
ATOM     19  C   UNL     1       2.251   1.133   1.278  0.00  0.00    +0.001 A 
ATOM     20  C   UNL     1       1.041   1.748   1.544  0.00  0.00    +0.003 A 
ATOM     21  C   UNL     1      -0.142   1.044   1.419  0.00  0.00    +0.039 A 
ATOM     22  C   UNL     1      -0.122  -0.282   1.027  0.00  0.00    +0.133 A 
ATOM     23  F   UNL     1      -1.278  -0.970   0.904  0.00  0.00    -0.205 F 
ENDBRANCH   2  17
BRANCH   6  24
ATOM     24  N   UNL     1       2.640  -5.413  -0.851  0.00  0.00    -0.343 N 
ATOM     25  H   UNL     1       2.181  -6.393  -1.049  0.00  0.00    +0.144 HD
ATOM     26  H   UNL     1       3.719  -5.268  -1.012  0.00  0.00    +0.144 HD
ENDBRANCH   6  24
TORSDOF 3
