REMARK  Name = ZINC59118019
REMARK  5 active torsions:
REMARK  status: ('A' for Active; 'I' for Inactive)
REMARK    1  A    between atoms: C_4  and  C_7
REMARK    2  A    between atoms: C_8  and  C_9
REMARK    3  A    between atoms: C_14  and  C_17
REMARK    4  A    between atoms: N_19  and  C_20
REMARK    5  A    between atoms: C_20  and  C_21
REMARK                            x       y       z     vdW  Elec       q    Type
REMARK                         _______ _______ _______ _____ _____    ______ ____
ROOT
ATOM      1  C   UNL     1       5.169  -7.478  -2.672  0.00  0.00    +0.216 C 
ATOM      2  O   UNL     1       4.277  -7.448  -3.493  0.00  0.00    -0.276 OA
ATOM      3  N   UNL     1       6.192  -8.343  -2.820  0.00  0.00    -0.311 N 
ATOM      4  H   UNL     1       6.906  -8.367  -2.163  0.00  0.00    +0.149 HD
ENDROOT
BRANCH   1  10
ATOM      5  C   UNL     1       5.065  -2.657  -0.176  0.00  0.00    +0.239 C 
ATOM      6  O   UNL     1       4.007  -2.066  -0.066  0.00  0.00    -0.271 OA
ATOM      7  N   UNL     1       5.080  -4.002  -0.258  0.00  0.00    -0.298 N 
ATOM      8  C   UNL     1       3.825  -4.761  -0.332  0.00  0.00    +0.109 C 
ATOM      9  C   UNL     1       3.876  -5.680  -1.557  0.00  0.00    +0.032 C 
ATOM     10  C   UNL     1       5.133  -6.549  -1.486  0.00  0.00    +0.078 C 
ATOM     11  C   UNL     1       6.375  -5.655  -1.500  0.00  0.00    +0.032 C 
ATOM     12  C   UNL     1       6.353  -4.736  -0.281  0.00  0.00    +0.109 C 
BRANCH   5  14
ATOM     13  C   UNL     1       6.301  -0.558  -0.245  0.00  0.00    +0.013 C 
ATOM     14  C   UNL     1       6.321  -1.906  -0.220  0.00  0.00    +0.068 C 
BRANCH  13  18
ATOM     15  C   UNL     1       9.942   1.615  -0.371  0.00  0.00    +0.000 A 
ATOM     16  C   UNL     1       8.735   2.293  -0.356  0.00  0.00    +0.001 A 
ATOM     17  C   UNL     1       7.548   1.594  -0.315  0.00  0.00    +0.008 A 
ATOM     18  C   UNL     1       7.564   0.196  -0.289  0.00  0.00    -0.025 A 
ATOM     19  C   UNL     1       8.787  -0.482  -0.305  0.00  0.00    +0.008 A 
ATOM     20  C   UNL     1       9.967   0.232  -0.345  0.00  0.00    +0.001 A 
ENDBRANCH  13  18
ENDBRANCH   5  14
ENDBRANCH   1  10
BRANCH   3  21
ATOM     21  C   UNL     1       6.227  -9.246  -3.973  0.00  0.00    +0.141 C 
BRANCH  21  22
ATOM     22  C   UNL     1       7.465 -10.102  -3.903  0.00  0.00    -0.014 A 
ATOM     23  C   UNL     1       8.648  -9.674  -4.492  0.00  0.00    +0.010 A 
ATOM     24  C   UNL     1       9.761 -10.490  -4.406  0.00  0.00    +0.042 A 
ATOM     25  C   UNL     1       9.660 -11.705  -3.735  0.00  0.00    +0.099 A 
ATOM     26  N   UNL     1       8.514 -12.077  -3.186  0.00  0.00    -0.349 N 
ATOM     27  C   UNL     1       7.437 -11.316  -3.248  0.00  0.00    +0.089 A 
ATOM     28  N   UNL     1      10.771 -12.535  -3.640  0.00  0.00    -0.317 N 
ATOM     29  C   UNL     1      12.044 -12.044  -4.117  0.00  0.00    +0.106 C 
ATOM     30  C   UNL     1      12.206 -12.390  -5.618  0.00  0.00    +0.019 C 
ATOM     31  C   UNL     1      12.418 -13.835  -5.789  0.00  0.00    +0.002 C 
ATOM     32  C   UNL     1      11.251 -14.702  -5.325  0.00  0.00    +0.002 C 
ATOM     33  C   UNL     1      11.374 -14.954  -3.843  0.00  0.00    +0.019 C 
ATOM     34  C   UNL     1      10.602 -13.878  -3.052  0.00  0.00    +0.106 C 
ATOM     35  H   UNL     1       8.466 -12.928  -2.723  0.00  0.00    +0.167 HD
ENDBRANCH  21  22
ENDBRANCH   3  21
TORSDOF 5
