REMARK  Name = ZINC09554158
REMARK  5 active torsions:
REMARK  status: ('A' for Active; 'I' for Inactive)
REMARK    1  A    between atoms: C_4  and  C_7
REMARK    2  A    between atoms: C_12  and  C_30
REMARK    3  A    between atoms: C_18  and  C_22
REMARK    4  A    between atoms: C_22  and  C_24
REMARK    5  A    between atoms: C_34  and  N_36
REMARK                            x       y       z     vdW  Elec       q    Type
REMARK                         _______ _______ _______ _____ _____    ______ ____
ROOT
ATOM      1  C   UNL     1     -10.207   4.896  -2.214  0.00  0.00    +0.032 C 
ATOM      2  C   UNL     1      -8.785   5.046  -1.676  0.00  0.00    +0.059 C 
ATOM      3  C   UNL     1      -8.234   3.684  -1.289  0.00  0.00    +0.017 C 
ATOM      4  C   UNL     1      -8.585   2.588  -1.982  0.00  0.00    +0.036 C 
ATOM      5  C   UNL     1      -8.089   1.184  -1.730  0.00  0.00    +0.136 C 
ATOM      6  N   UNL     1      -7.373   1.016  -0.485  0.00  0.00    -0.331 N 
ATOM      7  C   UNL     1      -6.164   1.655  -0.259  0.00  0.00    +0.049 A 
ATOM      8  C   UNL     1      -4.977   0.940  -0.157  0.00  0.00    +0.025 A 
ATOM      9  C   UNL     1      -3.783   1.615  -0.027  0.00  0.00    +0.013 A 
ATOM     10  C   UNL     1      -3.764   3.014   0.002  0.00  0.00    +0.024 A 
ATOM     11  C   UNL     1      -4.964   3.732  -0.080  0.00  0.00    +0.036 A 
ATOM     12  C   UNL     1      -6.153   3.045  -0.199  0.00  0.00    +0.053 A 
ATOM     13  N   UNL     1      -7.383   3.694  -0.232  0.00  0.00    -0.316 N 
ATOM     14  C   UNL     1      -9.508   2.686  -3.050  0.00  0.00    +0.163 C 
ATOM     15  O   UNL     1      -9.793   1.681  -3.671  0.00  0.00    -0.292 OA
ATOM     16  C   UNL     1     -10.147   3.984  -3.445  0.00  0.00    +0.088 C 
ATOM     17  H   UNL     1      -7.746   0.444   0.205  0.00  0.00    +0.147 HD
ATOM     18  H   UNL     1      -7.652   4.189   0.557  0.00  0.00    +0.152 HD
ENDROOT
BRANCH   1  22
ATOM     19  C   UNL     1     -11.750   8.722  -3.321  0.00  0.00    +0.000 A 
ATOM     20  C   UNL     1     -12.410   7.958  -2.377  0.00  0.00    +0.000 A 
ATOM     21  C   UNL     1     -11.911   6.719  -2.019  0.00  0.00    +0.004 A 
ATOM     22  C   UNL     1     -10.752   6.246  -2.604  0.00  0.00    -0.044 A 
ATOM     23  C   UNL     1     -10.088   7.013  -3.544  0.00  0.00    +0.004 A 
ATOM     24  C   UNL     1     -10.590   8.249  -3.906  0.00  0.00    +0.000 A 
ENDBRANCH   1  22
BRANCH   5  25
ATOM     25  C   UNL     1      -7.178   0.789  -2.864  0.00  0.00    -0.021 A 
ATOM     26  C   UNL     1      -5.997   1.477  -3.073  0.00  0.00    +0.006 A 
ATOM     27  C   UNL     1      -5.161   1.115  -4.112  0.00  0.00    +0.003 A 
ATOM     28  C   UNL     1      -5.505   0.063  -4.942  0.00  0.00    +0.033 A 
ATOM     29  C   UNL     1      -6.685  -0.626  -4.731  0.00  0.00    +0.127 A 
ATOM     30  C   UNL     1      -7.519  -0.266  -3.689  0.00  0.00    +0.038 A 
BRANCH  29  31
ATOM     31  N   UNL     1      -7.053  -1.752  -5.619  0.00  0.00    +0.056 N 
ATOM     32  O   UNL     1      -6.316  -2.071  -6.535  0.00  0.00    -0.126 OA
ATOM     33  O   UNL     1      -8.092  -2.359  -5.433  0.00  0.00    -0.126 OA
ENDBRANCH  29  31
ENDBRANCH   5  25
BRANCH  10  34
ATOM     34  C   UNL     1      -2.482   3.731   0.125  0.00  0.00    +0.193 C 
ATOM     35  O   UNL     1      -2.473   4.937   0.284  0.00  0.00    -0.287 OA
BRANCH  34  36
ATOM     36  C   UNL     1      -1.208   2.985   0.055  0.00  0.00    +0.022 A 
ATOM     37  C   UNL     1      -0.107   3.405   0.806  0.00  0.00    +0.012 A 
ATOM     38  C   UNL     1       1.080   2.707   0.732  0.00  0.00    +0.001 A 
ATOM     39  C   UNL     1       1.180   1.588  -0.076  0.00  0.00    +0.000 A 
ATOM     40  C   UNL     1       0.092   1.164  -0.819  0.00  0.00    +0.001 A 
ATOM     41  C   UNL     1      -1.100   1.855  -0.758  0.00  0.00    +0.012 A 
ENDBRANCH  34  36
ENDBRANCH  10  34
TORSDOF 5
