REMARK  Name = ZINC12563842
REMARK  7 active torsions:
REMARK  status: ('A' for Active; 'I' for Inactive)
REMARK    1  A    between atoms: C_1  and  C_2
REMARK    2  A    between atoms: C_7  and  N_8
REMARK    3  A    between atoms: C_9  and  C_11
REMARK    4  A    between atoms: C_11  and  O_12
REMARK    5  A    between atoms: O_12  and  C_13
REMARK    6  A    between atoms: C_13  and  C_15
REMARK    7  A    between atoms: C_15  and  C_16
REMARK                            x       y       z     vdW  Elec       q    Type
REMARK                         _______ _______ _______ _____ _____    ______ ____
ROOT
ATOM      1  N   UNL     1       0.585  -0.664  -1.018  0.00  0.00    -0.282 N 
ATOM      2  C   UNL     1       0.005  -0.004   0.004  0.00  0.00    +0.255 C 
ATOM      3  O   UNL     1      -0.509  -0.622   0.912  0.00  0.00    -0.272 OA
ATOM      4  H   UNL     1       0.925  -0.174  -1.782  0.00  0.00    +0.155 HD
ENDROOT
BRANCH   1  11
ATOM      5  C   UNL     1       0.769  -2.073  -3.483  0.00  0.00    +0.046 C 
ATOM      6  C   UNL     1       0.790  -2.785  -2.155  0.00  0.00    -0.028 A 
ATOM      7  C   UNL     1       0.906  -4.161  -2.110  0.00  0.00    +0.019 A 
ATOM      8  C   UNL     1       0.918  -4.816  -0.892  0.00  0.00    +0.014 A 
ATOM      9  C   UNL     1       0.821  -4.095   0.285  0.00  0.00    +0.016 A 
ATOM     10  C   UNL     1       0.710  -2.719   0.246  0.00  0.00    +0.024 A 
ATOM     11  C   UNL     1       0.697  -2.059  -0.976  0.00  0.00    +0.036 A 
ATOM     12  I   UNL     1       1.085  -6.903  -0.829  0.00  0.00    -0.044 I 
ENDBRANCH   1  11
BRANCH   2  13
ATOM     13  C   UNL     1      -0.005   1.503   0.017  0.00  0.00    +0.328 C 
BRANCH  13  14
ATOM     14  O   UNL     1      -0.683   1.972   1.213  0.00  0.00    -0.455 OA
BRANCH  14  15
ATOM     15  C   UNL     1      -0.779   3.300   1.378  0.00  0.00    +0.308 C 
ATOM     16  O   UNL     1      -0.311   4.047   0.551  0.00  0.00    -0.251 OA
BRANCH  15  17
ATOM     17  C   UNL     1      -1.470   3.861   2.594  0.00  0.00    +0.124 C 
BRANCH  17  18
ATOM     18  C   UNL     1      -1.440   5.389   2.539  0.00  0.00    +0.003 C 
ATOM     19  C   UNL     1       0.011   5.906   2.671  0.00  0.00    +0.008 C 
ATOM     20  C   UNL     1       0.004   6.772   3.968  0.00  0.00    -0.010 C 
ATOM     21  C   UNL     1      -0.830   8.034   3.590  0.00  0.00    +0.004 C 
ATOM     22  C   UNL     1      -2.281   7.518   3.457  0.00  0.00    +0.004 C 
ATOM     23  C   UNL     1      -2.187   5.992   3.768  0.00  0.00    -0.007 C 
ATOM     24  C   UNL     1      -1.038   5.985   4.837  0.00  0.00    +0.007 C 
ENDBRANCH  17  18
ENDBRANCH  15  17
ENDBRANCH  14  15
ENDBRANCH  13  14
ENDBRANCH   2  13
TORSDOF 6
