REMARK  Name = ZINC38898360
REMARK  6 active torsions:
REMARK  status: ('A' for Active; 'I' for Inactive)
REMARK    1  A    between atoms: C_1  and  O_2
REMARK    2  A    between atoms: O_2  and  C_3
REMARK    3  A    between atoms: C_6  and  C_9
REMARK    4  A    between atoms: N_15  and  N_16
REMARK    5  A    between atoms: C_17  and  C_18
REMARK    6  A    between atoms: C_23  and  O_24
REMARK                            x       y       z     vdW  Elec       q    Type
REMARK                         _______ _______ _______ _____ _____    ______ ____
ROOT
ATOM      1  C   UNL     1       2.603  -2.557   4.316  0.00  0.00    +0.264 C 
ATOM      2  N   UNL     1       2.427  -1.776   5.551  0.00  0.00    -0.189 NA
ATOM      3  N   UNL     1       1.805  -2.471   6.359  0.00  0.00    -0.219 N 
ATOM      4  C   UNL     1       1.484  -3.702   5.877  0.00  0.00    +0.174 C 
ATOM      5  S   UNL     1       0.625  -4.901   6.746  0.00  0.00    -0.015 S 
ATOM      6  N   UNL     1       1.944  -3.843   4.611  0.00  0.00    -0.172 N 
ATOM      7  H   UNL     1       1.569  -2.170   7.250  0.00  0.00    +0.176 HD
ENDROOT
BRANCH   1  11
ATOM      8  C   UNL     1       0.691  -0.610   1.027  0.00  0.00    +0.120 A 
ATOM      9  C   UNL     1       1.264   0.142   2.042  0.00  0.00    +0.046 A 
ATOM     10  C   UNL     1       1.881  -0.489   3.104  0.00  0.00    +0.011 A 
ATOM     11  C   UNL     1       1.928  -1.870   3.156  0.00  0.00    -0.002 A 
ATOM     12  C   UNL     1       1.358  -2.622   2.146  0.00  0.00    +0.011 A 
ATOM     13  C   UNL     1       0.735  -1.995   1.085  0.00  0.00    +0.046 A 
BRANCH   8  15
ATOM     14  C   UNL     1       0.076   1.438  -0.012  0.00  0.00    +0.277 C 
ATOM     15  O   UNL     1       0.083   0.009  -0.019  0.00  0.00    -0.495 OA
ENDBRANCH   8  15
ENDBRANCH   1  11
BRANCH   6  16
ATOM     16  N   UNL     1       1.821  -4.956   3.769  0.00  0.00    -0.183 NA
ATOM     17  C   UNL     1       1.306  -6.059   4.222  0.00  0.00    +0.142 C 
BRANCH  17  18
ATOM     18  C   UNL     1       1.279  -7.263   3.373  0.00  0.00    +0.038 A 
ATOM     19  C   UNL     1       0.721  -8.450   3.854  0.00  0.00    +0.028 A 
ATOM     20  C   UNL     1       0.699  -9.573   3.054  0.00  0.00    +0.020 A 
ATOM     21  C   UNL     1       1.228  -9.530   1.775  0.00  0.00    +0.034 A 
ATOM     22  C   UNL     1       1.784  -8.361   1.287  0.00  0.00    +0.061 A 
ATOM     23  C   UNL     1       1.809  -7.222   2.076  0.00  0.00    +0.139 A 
ATOM     24 BR   UNL     1       2.504  -8.316  -0.461  0.00  0.00    -0.046 Br
ATOM     25 BR   UNL     1      -0.057 -11.179   3.707  0.00  0.00    -0.050 Br
BRANCH  23  26
ATOM     26  O   UNL     1       2.349  -6.072   1.596  0.00  0.00    -0.505 OA
ATOM     27  H   UNL     1       3.296  -5.979   1.772  0.00  0.00    +0.292 HD
ENDBRANCH  23  26
ENDBRANCH  17  18
ENDBRANCH   6  16
TORSDOF 5
