REMARK  Name = ZINC08331473
REMARK  14 active torsions:
REMARK  status: ('A' for Active; 'I' for Inactive)
REMARK    1  A    between atoms: C_1  and  C_2
REMARK    2  A    between atoms: C_2  and  C_4
REMARK    3  A    between atoms: C_2  and  S_10
REMARK    4  A    between atoms: N_6  and  C_7
REMARK    5  A    between atoms: C_7  and  C_8
REMARK    6  A    between atoms: C_7  and  C_9
REMARK    7  A    between atoms: S_10  and  C_11
REMARK    8  A    between atoms: C_14  and  C_19
REMARK    9  A    between atoms: N_15  and  C_16
REMARK   10  A    between atoms: C_16  and  C_17
REMARK   11  A    between atoms: C_22  and  C_25
REMARK   12  A    between atoms: C_25  and  C_26
REMARK   13  A    between atoms: C_25  and  C_27
REMARK   14  A    between atoms: C_25  and  C_28
REMARK                            x       y       z     vdW  Elec       q    Type
REMARK                         _______ _______ _______ _____ _____    ______ ____
ROOT
ATOM      1  C   UNL     1       2.640   0.032  -1.176  0.00  0.00    +0.193 A 
ATOM      2  N   UNL     1       3.085   1.054  -0.479  0.00  0.00    -0.122 NA
ATOM      3  N   UNL     1       4.344   1.212  -0.684  0.00  0.00    -0.128 NA
ATOM      4  C   UNL     1       4.779   0.302  -1.524  0.00  0.00    +0.165 A 
ATOM      5  N   UNL     1       3.703  -0.486  -1.860  0.00  0.00    -0.298 N 
ENDROOT
BRANCH   4   6
ATOM      6  C   UNL     1       6.167   0.148  -2.011  0.00  0.00    +0.019 A 
ATOM      7  C   UNL     1       6.407  -0.313  -3.306  0.00  0.00    +0.012 A 
ATOM      8  C   UNL     1       7.704  -0.453  -3.755  0.00  0.00    +0.005 A 
ATOM      9  C   UNL     1       8.765  -0.139  -2.925  0.00  0.00    -0.042 A 
ATOM     10  C   UNL     1       8.533   0.318  -1.639  0.00  0.00    +0.005 A 
ATOM     11  C   UNL     1       7.241   0.469  -1.180  0.00  0.00    +0.012 A 
BRANCH   9  12
ATOM     12  C   UNL     1      10.179  -0.295  -3.422  0.00  0.00    -0.013 C 
ATOM     13  C   UNL     1      10.390   0.596  -4.648  0.00  0.00    +0.015 C 
ATOM     14  C   UNL     1      11.156   0.116  -2.318  0.00  0.00    +0.015 C 
ATOM     15  C   UNL     1      10.427  -1.755  -3.804  0.00  0.00    +0.015 C 
ENDBRANCH   9  12
ENDBRANCH   4   6
BRANCH   1  16
ATOM     16  S   UNL     1       0.982  -0.564  -1.214  0.00  0.00    -0.074 S 
BRANCH  16  18
ATOM     17  C   UNL     1       0.091   1.968  -0.686  0.00  0.00    +0.029 C 
ATOM     18  C   UNL     1       0.088   0.554  -0.100  0.00  0.00    +0.137 C 
BRANCH  18  19
ATOM     19  C   UNL     1      -1.333   0.078   0.055  0.00  0.00    +0.226 C 
ATOM     20  O   UNL     1      -1.817  -0.668  -0.770  0.00  0.00    -0.275 OA
ATOM     21  N   UNL     1      -2.068   0.481   1.111  0.00  0.00    -0.312 N 
ATOM     22  H   UNL     1      -1.681   1.078   1.771  0.00  0.00    +0.149 HD
BRANCH  21  23
ATOM     23  C   UNL     1      -3.449   0.018   1.262  0.00  0.00    +0.067 C 
ATOM     24  C   UNL     1      -3.458  -1.342   1.962  0.00  0.00    +0.027 C 
ATOM     25  C   UNL     1      -4.237   1.028   2.100  0.00  0.00    +0.027 C 
ENDBRANCH  21  23
ENDBRANCH  18  19
ENDBRANCH  16  18
ENDBRANCH   1  16
BRANCH   5  26
ATOM     26  C   UNL     1       3.697  -1.637  -2.765  0.00  0.00    +0.152 C 
BRANCH  26  27
ATOM     27  C   UNL     1       3.256  -1.196  -4.137  0.00  0.00    -0.013 C 
ATOM     28  C   UNL     1       3.994  -1.472  -5.183  0.00  0.00    +0.005 C 
ENDBRANCH  26  27
ENDBRANCH   5  26
TORSDOF 8
