REMARK  Name = ZINC60155816
REMARK  15 active torsions:
REMARK  status: ('A' for Active; 'I' for Inactive)
REMARK    1  A    between atoms: C_1  and  C_2
REMARK    2  A    between atoms: C_5  and  C_8
REMARK    3  A    between atoms: C_8  and  C_10
REMARK    4  A    between atoms: C_8  and  N_34
REMARK    5  A    between atoms: C_10  and  N_11
REMARK    6  A    between atoms: C_12  and  C_14
REMARK    7  A    between atoms: C_16  and  C_31
REMARK    8  A    between atoms: N_26  and  C_27
REMARK    9  A    between atoms: C_27  and  C_28
REMARK   10  A    between atoms: C_28  and  C_29
REMARK   11  A    between atoms: C_28  and  C_30
REMARK   12  A    between atoms: C_31  and  C_32
REMARK   13  A    between atoms: C_31  and  C_33
REMARK   14  A    between atoms: N_34  and  C_35
REMARK   15  A    between atoms: N_34  and  C_36
REMARK                            x       y       z     vdW  Elec       q    Type
REMARK                         _______ _______ _______ _____ _____    ______ ____
ROOT
ATOM      1  C   UNL     1       2.288  -8.320   0.924  0.00  0.00    +0.054 A 
ATOM      2  C   UNL     1       1.026  -8.915   0.948  0.00  0.00    +0.037 A 
ATOM      3  C   UNL     1       0.926 -10.283   1.148  0.00  0.00    +0.047 A 
ATOM      4  N   UNL     1       1.993 -11.037   1.316  0.00  0.00    -0.233 NA
ATOM      5  C   UNL     1       3.215 -10.530   1.303  0.00  0.00    +0.151 A 
ATOM      6  C   UNL     1       3.405  -9.152   1.101  0.00  0.00    +0.094 A 
ATOM      7  C   UNL     1       4.780  -8.625   1.087  0.00  0.00    +0.264 A 
ATOM      8  O   UNL     1       4.993  -7.440   0.921  0.00  0.00    -0.267 OA
ATOM      9  N   UNL     1       5.798  -9.495   1.266  0.00  0.00    -0.274 N 
ATOM     10  H   UNL     1       6.712  -9.169   1.261  0.00  0.00    +0.173 HD
ATOM     11  C   UNL     1       5.566 -10.804   1.450  0.00  0.00    +0.331 A 
ATOM     12  O   UNL     1       6.516 -11.546   1.607  0.00  0.00    -0.246 OA
ATOM     13  N   UNL     1       4.330 -11.330   1.481  0.00  0.00    -0.278 N 
ENDROOT
BRANCH   1  15
ATOM     14  N   UNL     1       1.849  -6.265  -0.339  0.00  0.00    -0.313 N 
ATOM     15  C   UNL     1       2.444  -6.861   0.713  0.00  0.00    +0.245 C 
ATOM     16  O   UNL     1       3.109  -6.202   1.488  0.00  0.00    -0.270 OA
ATOM     17  H   UNL     1       1.318  -6.790  -0.958  0.00  0.00    +0.149 HD
BRANCH  14  18
ATOM     18  C   UNL     1       2.003  -4.823  -0.548  0.00  0.00    +0.094 C 
BRANCH  18  19
ATOM     19  C   UNL     1       1.151  -4.386  -1.741  0.00  0.00    -0.021 C 
BRANCH  19  24
ATOM     20  C   UNL     1       2.993  -7.074  -6.514  0.00  0.00    +0.044 C 
ATOM     21  C   UNL     1       2.513  -6.373  -5.269  0.00  0.00    -0.050 A 
ATOM     22  C   UNL     1       1.398  -6.841  -4.599  0.00  0.00    +0.003 A 
ATOM     23  C   UNL     1       0.958  -6.198  -3.457  0.00  0.00    +0.002 A 
ATOM     24  C   UNL     1       1.632  -5.088  -2.986  0.00  0.00    -0.059 A 
ATOM     25  C   UNL     1       2.747  -4.620  -3.656  0.00  0.00    +0.002 A 
ATOM     26  C   UNL     1       3.190  -5.265  -4.795  0.00  0.00    +0.003 A 
ENDBRANCH  19  24
BRANCH  19  27
ATOM     27  N   UNL     1       1.269  -2.933  -1.922  0.00  0.00    +0.382 N 
ATOM     28  C   UNL     1       0.442  -2.512  -3.061  0.00  0.00    -0.096 C 
ATOM     29  C   UNL     1       0.811  -2.250  -0.705  0.00  0.00    -0.096 C 
ATOM     30  H   UNL     1       2.233  -2.693  -2.099  0.00  0.00    -0.082 HD
ENDBRANCH  19  27
ENDBRANCH  18  19
ENDBRANCH  14  18
ENDBRANCH   1  15
BRANCH   3  31
ATOM     31  C   UNL     1      -0.438 -10.924   1.174  0.00  0.00    +0.032 C 
ATOM     32  C   UNL     1      -1.025 -10.815   2.583  0.00  0.00    +0.014 C 
ATOM     33  C   UNL     1      -1.357 -10.208   0.182  0.00  0.00    +0.014 C 
ENDBRANCH   3  31
BRANCH  13  34
ATOM     34  C   UNL     1       4.161 -12.770   1.689  0.00  0.00    +0.131 C 
BRANCH  34  35
ATOM     35  C   UNL     1       4.176 -13.486   0.336  0.00  0.00    +0.003 C 
ATOM     36  C   UNL     1       4.126 -14.998   0.558  0.00  0.00    +0.009 C 
ATOM     37  C   UNL     1       2.961 -13.050  -0.485  0.00  0.00    +0.009 C 
ENDBRANCH  34  35
ENDBRANCH  13  34
TORSDOF 8
