REMARK  Name = ZINC43746538
REMARK  7 active torsions:
REMARK  status: ('A' for Active; 'I' for Inactive)
REMARK    1  A    between atoms: C_1  and  C_2
REMARK    2  A    between atoms: C_19  and  C_21
REMARK    3  A    between atoms: C_21  and  N_22
REMARK    4  A    between atoms: C_26  and  C_28
REMARK    5  A    between atoms: C_28  and  C_29
REMARK    6  A    between atoms: C_28  and  C_35
REMARK    7  A    between atoms: C_28  and  O_41
REMARK                            x       y       z     vdW  Elec       q    Type
REMARK                         _______ _______ _______ _____ _____    ______ ____
ROOT
ATOM      1  N   UNL     1      -0.879  -7.048   0.348  0.00  0.00    +0.384 N 
ATOM      2  C   UNL     1       0.324  -7.840   0.682  0.00  0.00    -0.078 C 
ATOM      3  C   UNL     1       0.166  -8.185   2.184  0.00  0.00    -0.020 C 
ATOM      4  C   UNL     1      -1.363  -8.424   2.292  0.00  0.00    -0.014 C 
ATOM      5  C   UNL     1      -1.947  -7.390   1.306  0.00  0.00    -0.027 C 
ATOM      6  H   UNL     1      -1.180  -7.271  -0.589  0.00  0.00    -0.081 HD
ENDROOT
BRANCH   1   7
ATOM      7  C   UNL     1      -0.571  -5.615   0.443  0.00  0.00    -0.063 C 
BRANCH   7  23
ATOM      8  C   UNL     1       2.159  -0.272  -2.818  0.00  0.00    +0.012 C 
ATOM      9  C   UNL     1       1.759  -1.704  -2.460  0.00  0.00    -0.022 C 
ATOM     10  C   UNL     1       1.890  -2.589  -3.697  0.00  0.00    +0.007 C 
ATOM     11  C   UNL     1       3.307  -2.471  -4.263  0.00  0.00    +0.005 C 
ATOM     12  C   UNL     1       4.317  -2.984  -3.232  0.00  0.00    +0.030 C 
ATOM     13  C   UNL     1       4.096  -2.255  -1.925  0.00  0.00    -0.073 C 
ATOM     14  C   UNL     1       5.087  -1.665  -1.304  0.00  0.00    +0.008 C 
ATOM     15  C   UNL     1       2.689  -2.229  -1.358  0.00  0.00    +0.021 C 
ATOM     16  C   UNL     1       2.293  -3.669  -1.032  0.00  0.00    +0.016 C 
ATOM     17  C   UNL     1       0.857  -3.744  -0.512  0.00  0.00    +0.042 C 
ATOM     18  C   UNL     1      -0.113  -3.067  -1.501  0.00  0.00    +0.181 C 
ATOM     19  C   UNL     1       0.323  -1.714  -1.954  0.00  0.00    +0.052 C 
ATOM     20  O   UNL     1      -0.202  -4.001  -2.582  0.00  0.00    -0.461 OA
ATOM     21  C   UNL     1      -0.277  -5.238  -2.042  0.00  0.00    +0.309 C 
ATOM     22  O   UNL     1      -0.803  -6.198  -2.555  0.00  0.00    -0.251 OA
ATOM     23  C   UNL     1       0.414  -5.232  -0.664  0.00  0.00    +0.088 C 
ENDBRANCH   7  23
ENDBRANCH   1   7
BRANCH   5  24
ATOM     24  C   UNL     1      -3.139  -7.995   0.563  0.00  0.00    +0.104 C 
BRANCH  24  25
ATOM     25  C   UNL     1      -4.246  -8.288   1.543  0.00  0.00    -0.013 A 
ATOM     26  C   UNL     1      -4.392  -7.507   2.674  0.00  0.00    +0.007 A 
ATOM     27  C   UNL     1      -5.407  -7.776   3.573  0.00  0.00    +0.000 A 
ATOM     28  C   UNL     1      -6.277  -8.826   3.341  0.00  0.00    +0.000 A 
ATOM     29  C   UNL     1      -6.131  -9.606   2.209  0.00  0.00    +0.000 A 
ATOM     30  C   UNL     1      -5.118  -9.335   1.308  0.00  0.00    +0.007 A 
ENDBRANCH  24  25
BRANCH  24  31
ATOM     31  C   UNL     1      -3.632  -7.020  -0.474  0.00  0.00    -0.013 A 
ATOM     32  C   UNL     1      -3.801  -5.688  -0.145  0.00  0.00    +0.007 A 
ATOM     33  C   UNL     1      -4.254  -4.793  -1.097  0.00  0.00    +0.000 A 
ATOM     34  C   UNL     1      -4.536  -5.230  -2.377  0.00  0.00    +0.000 A 
ATOM     35  C   UNL     1      -4.366  -6.561  -2.707  0.00  0.00    +0.000 A 
ATOM     36  C   UNL     1      -3.910  -7.455  -1.756  0.00  0.00    +0.007 A 
ENDBRANCH  24  31
BRANCH  24  37
ATOM     37  O   UNL     1      -2.736  -9.208  -0.077  0.00  0.00    -0.381 OA
ATOM     38  H   UNL     1      -2.025  -9.094  -0.722  0.00  0.00    +0.211 HD
ENDBRANCH  24  37
ENDBRANCH   5  24
TORSDOF 6
