REMARK  Name = ZINC61038219
REMARK  4 active torsions:
REMARK  status: ('A' for Active; 'I' for Inactive)
REMARK    1  A    between atoms: C_3  and  N_4
REMARK    2  A    between atoms: C_5  and  C_7
REMARK    3  A    between atoms: C_7  and  N_8
REMARK    4  A    between atoms: N_16  and  C_17
REMARK                            x       y       z     vdW  Elec       q    Type
REMARK                         _______ _______ _______ _____ _____    ______ ____
ROOT
ATOM      1  N   UNL     1      -1.776  -3.977  -2.159  0.00  0.00    -0.291 NA
ATOM      2  C   UNL     1      -3.018  -3.916  -1.377  0.00  0.00    +0.104 C 
ATOM      3  C   UNL     1      -3.399  -5.327  -0.919  0.00  0.00    +0.124 C 
ATOM      4  N   UNL     1      -3.450  -6.204  -2.099  0.00  0.00    -0.283 N 
ATOM      5  C   UNL     1      -2.294  -6.215  -3.008  0.00  0.00    +0.124 C 
ATOM      6  C   UNL     1      -1.956  -4.768  -3.384  0.00  0.00    +0.104 C 
ATOM      7  C   UNL     1      -4.528  -6.976  -2.341  0.00  0.00    +0.303 C 
ATOM      8  O   UNL     1      -5.436  -7.023  -1.534  0.00  0.00    -0.253 OA
ATOM      9  N   UNL     1      -4.600  -7.695  -3.479  0.00  0.00    -0.294 N 
ATOM     10  H   UNL     1      -3.846  -7.715  -4.089  0.00  0.00    +0.151 HD
ENDROOT
BRANCH   9  11
ATOM     11  C   UNL     1      -5.817  -8.447  -3.794  0.00  0.00    +0.037 C 
ATOM     12  C   UNL     1      -6.082  -9.473  -2.691  0.00  0.00    +0.029 C 
ATOM     13  C   UNL     1      -7.353 -10.259  -3.020  0.00  0.00    -0.008 C 
ATOM     14  C   UNL     1      -7.174 -10.982  -4.356  0.00  0.00    +0.007 C 
ATOM     15  C   UNL     1      -6.908  -9.957  -5.460  0.00  0.00    -0.008 C 
ATOM     16  C   UNL     1      -5.637  -9.171  -5.130  0.00  0.00    +0.029 C 
ATOM     17  C   UNL     1      -8.092  -8.993  -5.557  0.00  0.00    +0.007 C 
ATOM     18  C   UNL     1      -8.272  -8.270  -4.221  0.00  0.00    -0.008 C 
ATOM     19  C   UNL     1      -8.538  -9.296  -3.117  0.00  0.00    +0.007 C 
ATOM     20  C   UNL     1      -7.001  -7.484  -3.891  0.00  0.00    +0.029 C 
ENDBRANCH   9  11
BRANCH   1  21
ATOM     21  C   UNL     1      -1.283  -2.629  -2.471  0.00  0.00    +0.180 C 
BRANCH  21  23
ATOM     22  N   UNL     1      -0.393  -0.678  -1.238  0.00  0.00    -0.311 N 
ATOM     23  C   UNL     1      -0.878  -1.934  -1.196  0.00  0.00    +0.227 C 
ATOM     24  O   UNL     1      -0.990  -2.506  -0.132  0.00  0.00    -0.274 OA
ATOM     25  H   UNL     1      -0.304  -0.220  -2.089  0.00  0.00    +0.149 HD
BRANCH  22  28
ATOM     26  C   UNL     1      -0.021   1.527   0.010  0.00  0.00    +0.024 C 
ATOM     27  C   UNL     1       1.315   0.781  -0.007  0.00  0.00    +0.024 C 
ATOM     28  C   UNL     1       0.000  -0.003   0.002  0.00  0.00    +0.073 C 
ENDBRANCH  22  28
ENDBRANCH  21  23
ENDBRANCH   1  21
TORSDOF 4
