REMARK  Name = ZINC63845754
REMARK  8 active torsions:
REMARK  status: ('A' for Active; 'I' for Inactive)
REMARK    1  A    between atoms: C_1  and  C_2
REMARK    2  A    between atoms: C_2  and  C_3
REMARK    3  A    between atoms: C_3  and  N_4
REMARK    4  A    between atoms: C_5  and  C_30
REMARK    5  A    between atoms: C_7  and  C_10
REMARK    6  A    between atoms: N_16  and  C_17
REMARK    7  A    between atoms: C_17  and  C_19
REMARK    8  A    between atoms: C_17  and  C_20
REMARK                            x       y       z     vdW  Elec       q    Type
REMARK                         _______ _______ _______ _____ _____    ______ ____
ROOT
ATOM      1  C   UNL     1      -4.105  -4.154  -1.586  0.00  0.00    +0.075 A 
ATOM      2  C   UNL     1      -4.092  -4.887  -2.782  0.00  0.00    +0.046 A 
ATOM      3  C   UNL     1      -5.224  -5.595  -3.130  0.00  0.00    +0.087 A 
ATOM      4  N   UNL     1      -6.282  -5.563  -2.332  0.00  0.00    -0.334 N 
ATOM      5  C   UNL     1      -6.269  -4.862  -1.207  0.00  0.00    +0.194 A 
ATOM      6  N   UNL     1      -5.205  -4.172  -0.829  0.00  0.00    -0.216 NA
ATOM      7  N   UNL     1      -7.396  -4.856  -0.404  0.00  0.00    -0.308 N 
ATOM      8  H   UNL     1      -7.400  -4.348   0.422  0.00  0.00    +0.149 HD
ATOM      9  H   UNL     1      -7.079  -6.060  -2.575  0.00  0.00    +0.168 HD
ENDROOT
BRANCH   1  12
ATOM     10  N   UNL     1      -1.413  -2.002   0.005  0.00  0.00    -0.222 NA
ATOM     11  C   UNL     1      -2.782  -2.551   0.088  0.00  0.00    +0.106 C 
ATOM     12  C   UNL     1      -2.925  -3.382  -1.169  0.00  0.00    +0.011 C 
ATOM     13  C   UNL     1      -1.763  -3.276  -1.827  0.00  0.00    +0.091 C 
ATOM     14  N   UNL     1      -0.877  -2.478  -1.156  0.00  0.00    -0.284 N 
ATOM     15  C   UNL     1      -2.933  -3.427   1.333  0.00  0.00    +0.031 C 
ATOM     16  H   UNL     1       0.019  -2.275  -1.467  0.00  0.00    +0.166 HD
BRANCH  10  17
ATOM     17  C   UNL     1      -1.433  -0.534   0.013  0.00  0.00    +0.106 C 
BRANCH  17  19
ATOM     18  C   UNL     1      -0.019   1.526   0.010  0.00  0.00    +0.005 C 
ATOM     19  C   UNL     1       0.002  -0.004   0.002  0.00  0.00    +0.014 C 
ENDBRANCH  17  19
ENDBRANCH  10  17
ENDBRANCH   1  12
BRANCH   7  20
ATOM     20  C   UNL     1      -8.583  -5.618  -0.801  0.00  0.00    +0.100 C 
ATOM     21  C   UNL     1      -8.438  -7.068  -0.335  0.00  0.00    +0.033 C 
BRANCH  20  22
ATOM     22  C   UNL     1      -9.807  -5.007  -0.169  0.00  0.00    -0.027 C 
ATOM     23  C   UNL     1     -10.864  -4.631  -0.950  0.00  0.00    +0.011 C 
ATOM     24  C   UNL     1     -11.975  -4.128  -0.250  0.00  0.00    -0.018 C 
ATOM     25  C   UNL     1     -12.918  -3.223  -0.559  0.00  0.00    +0.025 C 
ATOM     26  C   UNL     1     -13.628  -2.869   0.611  0.00  0.00    +0.106 C 
ATOM     27  N   UNL     1     -13.273  -3.589   1.636  0.00  0.00    -0.279 NA
ATOM     28  C   UNL     1     -12.293  -4.560   1.173  0.00  0.00    +0.158 C 
ATOM     29  C   UNL     1     -11.003  -4.581   1.937  0.00  0.00    +0.004 C 
ATOM     30  C   UNL     1      -9.865  -4.823   1.278  0.00  0.00    +0.003 C 
ENDBRANCH  20  22
ENDBRANCH   7  20
TORSDOF 5
