REMARK  Name = ZINC08914957
REMARK  1 active torsions:
REMARK  status: ('A' for Active; 'I' for Inactive)
REMARK    1  A    between atoms: N_15  and  N_16
REMARK                            x       y       z     vdW  Elec       q    Type
REMARK                         _______ _______ _______ _____ _____    ______ ____
ROOT
ATOM      1  C   UNL     1       2.377  -0.670  -0.443  0.00  0.00    +0.001 C 
ATOM      2  C   UNL     1       1.296  -0.514   0.625  0.00  0.00    +0.005 C 
ATOM      3  C   UNL     1       0.002  -0.004   0.002  0.00  0.00    +0.037 C 
ATOM      4  C   UNL     1      -0.019   1.522   0.010  0.00  0.00    -0.023 A 
ATOM      5  C   UNL     1       1.112   2.256   0.004  0.00  0.00    -0.004 A 
ATOM      6  S   UNL     1       0.568   3.945  -0.009  0.00  0.00    -0.073 S 
ATOM      7  C   UNL     1      -1.183   3.662   0.011  0.00  0.00    +0.117 A 
ATOM      8  C   UNL     1      -1.286   2.262   0.020  0.00  0.00    +0.075 A 
ATOM      9  C   UNL     1      -2.615   1.734   0.043  0.00  0.00    +0.261 A 
ATOM     10  O   UNL     1      -2.802   0.529   0.056  0.00  0.00    -0.267 OA
ATOM     11  N   UNL     1      -3.657   2.587   0.048  0.00  0.00    -0.294 N 
ATOM     12  H   UNL     1      -4.560   2.234   0.062  0.00  0.00    +0.172 HD
ATOM     13  C   UNL     1      -3.466   3.937   0.034  0.00  0.00    +0.210 A 
ATOM     14  N   UNL     1      -2.253   4.449   0.016  0.00  0.00    -0.208 NA
ATOM     15  N   UNL     1      -4.554   4.774   0.039  0.00  0.00    -0.253 N 
ATOM     16  C   UNL     1       2.526   1.764   0.011  0.00  0.00    +0.043 C 
ATOM     17  C   UNL     1       2.694   0.685  -1.067  0.00  0.00    +0.005 C 
ATOM     18  H   UNL     1      -5.451   4.404   0.052  0.00  0.00    +0.169 HD
ENDROOT
BRANCH  15  19
ATOM     19  N   UNL     1      -4.374   6.128   0.026  0.00  0.00    -0.254 NA
ATOM     20  H   UNL     1      -3.814   6.410  -0.764  0.00  0.00    +0.140 HD
ATOM     21  H   UNL     1      -5.260   6.611   0.032  0.00  0.00    +0.140 HD
ENDBRANCH  15  19
TORSDOF 1
