REMARK  Name = ZINC09333904
REMARK  13 active torsions:
REMARK  status: ('A' for Active; 'I' for Inactive)
REMARK    1  A    between atoms: C_1  and  C_2
REMARK    2  A    between atoms: C_2  and  N_62
REMARK    3  A    between atoms: C_3  and  C_4
REMARK    4  A    between atoms: C_3  and  N_62
REMARK    5  A    between atoms: C_5  and  C_6
REMARK    6  A    between atoms: C_5  and  N_62
REMARK    7  A    between atoms: C_6  and  N_7
REMARK    8  A    between atoms: C_8  and  C_24
REMARK    9  A    between atoms: C_11  and  C_12
REMARK   10  A    between atoms: C_11  and  O_19
REMARK   11  A    between atoms: C_27  and  O_30
REMARK   12  A    between atoms: O_30  and  C_31
REMARK   13  A    between atoms: C_31  and  C_32
REMARK                            x       y       z     vdW  Elec       q    Type
REMARK                         _______ _______ _______ _____ _____    ______ ____
ROOT
ATOM      1  N   UNL     1      -2.544   5.319   3.324  0.00  0.00    -0.285 N 
ATOM      2  C   UNL     1      -1.984   6.189   4.362  0.00  0.00    +0.144 C 
ATOM      3  C   UNL     1      -3.155   6.759   5.128  0.00  0.00    +0.071 C 
ATOM      4  C   UNL     1      -3.102   7.630   6.197  0.00  0.00    +0.133 C 
ATOM      5  C   UNL     1      -4.308   6.223   4.534  0.00  0.00    +0.249 C 
ATOM      6  O   UNL     1      -5.456   6.446   4.872  0.00  0.00    -0.282 OA
ATOM      7  C   UNL     1      -3.885   5.339   3.414  0.00  0.00    +0.288 C 
ATOM      8  O   UNL     1      -4.640   4.723   2.689  0.00  0.00    -0.266 OA
ENDROOT
BRANCH   4   9
ATOM      9  C   UNL     1      -4.346   8.185   6.758  0.00  0.00    +0.017 A 
ATOM     10  C   UNL     1      -5.310   8.743   5.912  0.00  0.00    +0.012 A 
ATOM     11  C   UNL     1      -6.473   9.257   6.443  0.00  0.00    +0.016 A 
ATOM     12  C   UNL     1      -6.684   9.230   7.812  0.00  0.00    +0.018 A 
ATOM     13  C   UNL     1      -5.732   8.683   8.656  0.00  0.00    +0.016 A 
ATOM     14  C   UNL     1      -4.566   8.162   8.139  0.00  0.00    +0.012 A 
ATOM     15 BR   UNL     1      -8.280   9.944   8.532  0.00  0.00    -0.050 Br
ENDBRANCH   4   9
BRANCH   2  16
ATOM     16  C   UNL     1      -1.190   7.303   3.728  0.00  0.00    -0.022 A 
ATOM     17  C   UNL     1      -1.656   7.914   2.578  0.00  0.00    +0.009 A 
ATOM     18  C   UNL     1      -0.933   8.940   1.999  0.00  0.00    +0.046 A 
ATOM     19  C   UNL     1       0.265   9.348   2.566  0.00  0.00    +0.121 A 
ATOM     20  C   UNL     1       0.733   8.730   3.716  0.00  0.00    +0.046 A 
ATOM     21  C   UNL     1       0.004   7.709   4.295  0.00  0.00    +0.009 A 
BRANCH  19  22
ATOM     22  O   UNL     1       0.980  10.353   1.995  0.00  0.00    -0.488 OA
BRANCH  22  23
ATOM     23  C   UNL     1       0.439  10.944   0.812  0.00  0.00    +0.256 C 
BRANCH  23  24
ATOM     24  C   UNL     1       1.361  12.031   0.325  0.00  0.00    +0.006 C 
ATOM     25  C   UNL     1       1.661  12.116  -0.947  0.00  0.00    +0.007 C 
ENDBRANCH  23  24
ENDBRANCH  22  23
ENDBRANCH  19  22
ENDBRANCH   2  16
BRANCH   4  26
ATOM     26  O   UNL     1      -1.909   7.973   6.729  0.00  0.00    -0.506 OA
ATOM     27  H   UNL     1      -2.053   8.607   7.489  0.00  0.00    +0.292 HD
ENDBRANCH   4  26
BRANCH   1  28
ATOM     28  C   UNL     1      -1.768   4.557   2.342  0.00  0.00    +0.090 C 
BRANCH  28  29
ATOM     29  C   UNL     1      -1.447   3.173   2.910  0.00  0.00    -0.060 C 
BRANCH  29  30
ATOM     30  N   UNL     1      -0.683   2.409   1.901  0.00  0.00    +0.380 N 
ATOM     31  H   UNL     1      -1.190   2.436   1.009  0.00  0.00    -0.082 HD
BRANCH  30  33
ATOM     32  C   UNL     1      -1.865   0.276   2.068  0.00  0.00    -0.017 C 
ATOM     33  C   UNL     1      -0.544   1.002   2.332  0.00  0.00    -0.082 C 
ENDBRANCH  30  33
BRANCH  30  34
ATOM     34  C   UNL     1       0.652   3.014   1.714  0.00  0.00    -0.082 C 
ATOM     35  C   UNL     1       1.228   2.529   0.382  0.00  0.00    -0.017 C 
ENDBRANCH  30  34
ENDBRANCH  29  30
ENDBRANCH  28  29
ENDBRANCH   1  28
TORSDOF 11
