REMARK  Name = ZINC39669384
REMARK  7 active torsions:
REMARK  status: ('A' for Active; 'I' for Inactive)
REMARK    1  A    between atoms: C_1  and  C_2
REMARK    2  A    between atoms: C_2  and  C_4
REMARK    3  A    between atoms: C_2  and  O_34
REMARK    4  A    between atoms: C_8  and  C_17
REMARK    5  A    between atoms: N_19  and  C_20
REMARK    6  A    between atoms: C_20  and  C_21
REMARK    7  A    between atoms: O_34  and  C_35
REMARK                            x       y       z     vdW  Elec       q    Type
REMARK                         _______ _______ _______ _____ _____    ______ ____
ROOT
ATOM      1  C   UNL     1       0.738  -0.455  -0.981  0.00  0.00    +0.256 C 
ATOM      2  O   UNL     1       1.864  -0.868  -0.801  0.00  0.00    -0.272 OA
ATOM      3  N   UNL     1       0.206  -0.465  -2.219  0.00  0.00    -0.297 N 
ATOM      4  C   UNL     1      -1.166  -0.079  -2.622  0.00  0.00    +0.121 C 
ATOM      5  C   UNL     1      -0.984   0.670  -3.961  0.00  0.00    +0.100 C 
ATOM      6  C   UNL     1       0.348   0.148  -4.524  0.00  0.00    -0.004 C 
ATOM      7  C   UNL     1       0.865  -0.860  -3.488  0.00  0.00    +0.115 C 
ATOM      8  C   UNL     1       0.120  -0.543  -5.866  0.00  0.00    -0.010 C 
ATOM      9  C   UNL     1       1.466  -1.002  -6.433  0.00  0.00    -0.082 C 
ATOM     10  N   UNL     1       2.350   0.158  -6.601  0.00  0.00    +0.379 N 
ATOM     11  C   UNL     1       2.639   0.761  -5.295  0.00  0.00    -0.082 C 
ATOM     12  C   UNL     1       1.342   1.295  -4.679  0.00  0.00    -0.010 C 
ATOM     13  H   UNL     1       3.213  -0.138  -7.032  0.00  0.00    -0.086 HD
ATOM     14  H   UNL     1       1.899   0.840  -7.193  0.00  0.00    -0.086 HD
ENDROOT
BRANCH   5  15
ATOM     15  C   UNL     1      -2.117   0.346  -4.901  0.00  0.00    +0.218 C 
ATOM     16  O   UNL     1      -2.659  -0.737  -4.847  0.00  0.00    -0.275 OA
ATOM     17  N   UNL     1      -2.527   1.261  -5.802  0.00  0.00    -0.315 N 
ATOM     18  H   UNL     1      -2.094   2.128  -5.845  0.00  0.00    +0.149 HD
BRANCH  17  19
ATOM     19  C   UNL     1      -3.629   0.947  -6.715  0.00  0.00    +0.109 C 
BRANCH  19  20
ATOM     20  C   UNL     1      -3.893   2.147  -7.627  0.00  0.00    +0.024 C 
ATOM     21  C   UNL     1      -5.121   1.866  -8.497  0.00  0.00    +0.008 C 
ATOM     22  C   UNL     1      -5.406   3.079  -9.386  0.00  0.00    +0.019 C 
ATOM     23  C   UNL     1      -4.207   3.325 -10.307  0.00  0.00    +0.108 C 
ATOM     24  N   UNL     1      -2.996   3.452  -9.483  0.00  0.00    -0.299 N 
ATOM     25  C   UNL     1      -2.677   2.383  -8.527  0.00  0.00    +0.113 C 
ATOM     26  C   UNL     1      -2.172   4.558  -9.606  0.00  0.00    +0.218 A 
ATOM     27  N   UNL     1      -1.085   4.640  -8.853  0.00  0.00    -0.223 NA
ATOM     28  C   UNL     1      -0.277   5.683  -8.946  0.00  0.00    +0.116 A 
ATOM     29  C   UNL     1      -0.579   6.695  -9.843  0.00  0.00    +0.039 A 
ATOM     30  C   UNL     1      -1.724   6.577 -10.615  0.00  0.00    +0.116 A 
ATOM     31  N   UNL     1      -2.487   5.505 -10.477  0.00  0.00    -0.223 NA
ENDBRANCH  19  20
ENDBRANCH  17  19
ENDBRANCH   5  15
BRANCH   1  33
ATOM     32  C   UNL     1      -0.263   1.579   0.024  0.00  0.00    +0.062 C 
ATOM     33  C   UNL     1      -0.067   0.070   0.180  0.00  0.00    +0.256 C 
BRANCH  33  34
ATOM     34  O   UNL     1       0.627  -0.196   1.400  0.00  0.00    -0.480 OA
BRANCH  34  35
ATOM     35  C   UNL     1      -0.122  -0.284   2.530  0.00  0.00    +0.122 A 
ATOM     36  C   UNL     1      -1.483  -0.019   2.484  0.00  0.00    +0.045 A 
ATOM     37  C   UNL     1      -2.243  -0.110   3.634  0.00  0.00    +0.004 A 
ATOM     38  C   UNL     1      -1.649  -0.464   4.831  0.00  0.00    +0.000 A 
ATOM     39  C   UNL     1      -0.292  -0.728   4.880  0.00  0.00    +0.004 A 
ATOM     40  C   UNL     1       0.471  -0.645   3.732  0.00  0.00    +0.045 A 
ENDBRANCH  34  35
ENDBRANCH  33  34
ENDBRANCH   1  33
TORSDOF 6
