REMARK  Name = ZINC15741599
REMARK  8 active torsions:
REMARK  status: ('A' for Active; 'I' for Inactive)
REMARK    1  A    between atoms: C_1  and  C_2
REMARK    2  A    between atoms: C_5  and  N_33
REMARK    3  A    between atoms: C_7  and  S_8
REMARK    4  A    between atoms: S_8  and  N_11
REMARK    5  A    between atoms: C_14  and  C_17
REMARK    6  A    between atoms: N_19  and  C_20
REMARK    7  A    between atoms: C_20  and  C_22
REMARK    8  A    between atoms: C_20  and  C_23
REMARK                            x       y       z     vdW  Elec       q    Type
REMARK                         _______ _______ _______ _____ _____    ______ ____
ROOT
ATOM      1  N   UNL     1       5.389   6.641   3.940  0.00  0.00    -0.177 NA
ATOM      2  C   UNL     1       4.848   7.714   3.094  0.00  0.00    +0.110 C 
ATOM      3  C   UNL     1       3.494   7.267   2.536  0.00  0.00    +0.030 C 
ATOM      4  C   UNL     1       3.659   5.925   1.820  0.00  0.00    +0.077 C 
ATOM      5  C   UNL     1       4.143   4.869   2.817  0.00  0.00    +0.030 C 
ATOM      6  C   UNL     1       5.505   5.289   3.378  0.00  0.00    +0.110 C 
ENDROOT
BRANCH   4   7
ATOM      7  C   UNL     1       2.335   5.498   1.241  0.00  0.00    +0.217 C 
ATOM      8  O   UNL     1       1.355   6.199   1.387  0.00  0.00    -0.275 OA
ATOM      9  N   UNL     1       2.239   4.338   0.561  0.00  0.00    -0.309 N 
ATOM     10  H   UNL     1       3.022   3.778   0.445  0.00  0.00    +0.149 HD
BRANCH   9  11
ATOM     11  C   UNL     1       0.951   3.924  -0.002  0.00  0.00    +0.101 C 
ATOM     12  C   UNL     1       0.811   4.483  -1.419  0.00  0.00    +0.033 C 
BRANCH  11  13
ATOM     13  C   UNL     1       0.884   2.419  -0.047  0.00  0.00    -0.020 A 
ATOM     14  C   UNL     1       2.027   1.685  -0.138  0.00  0.00    +0.006 A 
ATOM     15  C   UNL     1       1.984   0.293  -0.181  0.00  0.00    +0.001 A 
ATOM     16  C   UNL     1       0.799  -0.374  -0.133  0.00  0.00    +0.008 A 
ATOM     17  C   UNL     1      -0.402   0.350  -0.038  0.00  0.00    -0.018 A 
ATOM     18  C   UNL     1      -0.359   1.766   0.006  0.00  0.00    -0.013 A 
ATOM     19  C   UNL     1      -1.560   2.489   0.107  0.00  0.00    +0.009 A 
ATOM     20  C   UNL     1      -2.745   1.823   0.151  0.00  0.00    +0.001 A 
ATOM     21  C   UNL     1      -2.788   0.430   0.107  0.00  0.00    +0.001 A 
ATOM     22  C   UNL     1      -1.646  -0.303   0.015  0.00  0.00    +0.008 A 
ENDBRANCH  11  13
ENDBRANCH   9  11
ENDBRANCH   4   7
BRANCH   1  23
ATOM     23  S   UNL     1       5.858   6.950   5.498  0.00  0.00    +0.061 S 
ATOM     24  O   UNL     1       6.909   6.041   5.793  0.00  0.00    -0.153 OA
ATOM     25  O   UNL     1       6.018   8.359   5.602  0.00  0.00    -0.153 OA
BRANCH  23  32
ATOM     26  C   UNL     1       3.233   8.450   5.593  0.00  0.00    +0.046 C 
ATOM     27  C   UNL     1       3.346   7.265   6.518  0.00  0.00    -0.024 A 
ATOM     28  C   UNL     1       2.285   6.922   7.335  0.00  0.00    +0.007 A 
ATOM     29  C   UNL     1       2.391   5.839   8.187  0.00  0.00    +0.033 A 
ATOM     30  C   UNL     1       3.556   5.095   8.217  0.00  0.00    +0.128 A 
ATOM     31  C   UNL     1       4.614   5.434   7.396  0.00  0.00    +0.061 A 
ATOM     32  C   UNL     1       4.508   6.518   6.544  0.00  0.00    +0.111 A 
BRANCH  30  33
ATOM     33  N   UNL     1       3.669   3.935   9.130  0.00  0.00    +0.056 N 
ATOM     34  O   UNL     1       4.695   3.279   9.157  0.00  0.00    -0.126 OA
ATOM     35  O   UNL     1       2.736   3.636   9.854  0.00  0.00    -0.126 OA
ENDBRANCH  30  33
ENDBRANCH  23  32
ENDBRANCH   1  23
TORSDOF 6
