REMARK  Name = ZINC40783076
REMARK  7 active torsions:
REMARK  status: ('A' for Active; 'I' for Inactive)
REMARK    1  A    between atoms: C_1  and  C_2
REMARK    2  A    between atoms: C_5  and  S_8
REMARK    3  A    between atoms: S_8  and  C_9
REMARK    4  A    between atoms: C_10  and  N_23
REMARK    5  A    between atoms: C_11  and  N_15
REMARK    6  A    between atoms: C_18  and  C_22
REMARK    7  A    between atoms: C_19  and  C_21
REMARK                            x       y       z     vdW  Elec       q    Type
REMARK                         _______ _______ _______ _____ _____    ______ ____
ROOT
ATOM      1  C   UNL     1       0.228  -4.966   1.677  0.00  0.00    +0.127 A 
ATOM      2  C   UNL     1       0.393  -6.301   2.056  0.00  0.00    +0.098 A 
ATOM      3  C   UNL     1       0.517  -6.588   3.416  0.00  0.00    +0.150 A 
ATOM      4  N   UNL     1       0.475  -5.588   4.294  0.00  0.00    -0.219 NA
ATOM      5  C   UNL     1       0.318  -4.343   3.894  0.00  0.00    +0.224 A 
ATOM      6  N   UNL     1       0.202  -4.027   2.620  0.00  0.00    -0.227 NA
ENDROOT
BRANCH   3   7
ATOM      7  N   UNL     1       0.683  -7.900   3.848  0.00  0.00    -0.277 N 
ATOM      8  C   UNL     1       0.806  -8.174   5.203  0.00  0.00    +0.164 A 
ATOM      9  N   UNL     1       0.784  -7.331   6.213  0.00  0.00    -0.230 NA
ATOM     10  C   UNL     1       0.915  -7.754   7.457  0.00  0.00    +0.050 A 
ATOM     11  C   UNL     1       1.073  -9.087   7.641  0.00  0.00    +0.011 A 
ATOM     12  S   UNL     1       1.013  -9.666   5.954  0.00  0.00    -0.057 S 
ATOM     13  C   UNL     1       1.246  -9.867   8.919  0.00  0.00    +0.053 C 
ATOM     14  C   UNL     1       0.891  -6.797   8.621  0.00  0.00    +0.066 C 
ATOM     15  H   UNL     1       0.713  -8.623   3.203  0.00  0.00    +0.156 HD
ENDBRANCH   3   7
BRANCH   2  16
ATOM     16  N   UNL     1       0.432  -7.324   1.096  0.00  0.00    -0.353 N 
ATOM     17  H   UNL     1       0.344  -7.108   0.155  0.00  0.00    +0.142 HD
ATOM     18  H   UNL     1       0.547  -8.246   1.375  0.00  0.00    +0.142 HD
ENDBRANCH   2  16
BRANCH   1  19
ATOM     19  S   UNL     1       0.064  -4.533  -0.023  0.00  0.00    -0.068 S 
BRANCH  19  24
ATOM     20  C   UNL     1      -0.036   1.502   0.011  0.00  0.00    +0.044 C 
ATOM     21  C   UNL     1      -0.011  -0.004   0.002  0.00  0.00    -0.050 A 
ATOM     22  C   UNL     1       1.199  -0.674  -0.007  0.00  0.00    +0.004 A 
ATOM     23  C   UNL     1       1.226  -2.055  -0.014  0.00  0.00    +0.015 A 
ATOM     24  C   UNL     1       0.035  -2.771  -0.013  0.00  0.00    +0.014 A 
ATOM     25  C   UNL     1      -1.179  -2.095  -0.004  0.00  0.00    +0.015 A 
ATOM     26  C   UNL     1      -1.198  -0.714   0.009  0.00  0.00    +0.004 A 
ENDBRANCH  19  24
ENDBRANCH   1  19
TORSDOF 4
