REMARK  Name = ZINC65446393
REMARK  6 active torsions:
REMARK  status: ('A' for Active; 'I' for Inactive)
REMARK    1  A    between atoms: C_1  and  C_2
REMARK    2  A    between atoms: C_11  and  C_14
REMARK    3  A    between atoms: C_14  and  N_15
REMARK    4  A    between atoms: N_18  and  C_19
REMARK    5  A    between atoms: N_18  and  C_25
REMARK    6  A    between atoms: C_19  and  C_20
REMARK                            x       y       z     vdW  Elec       q    Type
REMARK                         _______ _______ _______ _____ _____    ______ ____
ROOT
ATOM      1  C   UNL     1      -4.636  -5.946  -3.177  0.00  0.00    +0.142 C 
ENDROOT
BRANCH   1  12
ATOM      2  C   UNL     1      -0.926   0.557   1.398  0.00  0.00    +0.039 C 
ATOM      3  C   UNL     1      -0.928  -0.963   1.223  0.00  0.00    +0.132 C 
ATOM      4  C   UNL     1      -2.358  -1.445   0.952  0.00  0.00    +0.137 C 
ATOM      5  N   UNL     1      -2.364  -2.917   0.974  0.00  0.00    -0.312 N 
ATOM      6  C   UNL     1      -1.748  -3.593   2.127  0.00  0.00    +0.134 C 
ATOM      7  C   UNL     1      -0.348  -3.007   2.340  0.00  0.00    +0.179 C 
ATOM      8  O   UNL     1      -0.441  -1.582   2.416  0.00  0.00    -0.374 OA
ATOM      9  C   UNL     1      -2.934  -3.646  -0.063  0.00  0.00    +0.099 A 
ATOM     10  C   UNL     1      -3.629  -2.983  -1.070  0.00  0.00    +0.042 A 
ATOM     11  C   UNL     1      -4.191  -3.721  -2.096  0.00  0.00    +0.010 A 
ATOM     12  C   UNL     1      -4.039  -5.102  -2.080  0.00  0.00    -0.014 A 
ATOM     13  C   UNL     1      -3.337  -5.693  -1.049  0.00  0.00    +0.089 A 
ATOM     14  N   UNL     1      -2.807  -4.963  -0.086  0.00  0.00    -0.349 N 
ATOM     15  H   UNL     1      -2.314  -5.404   0.624  0.00  0.00    +0.167 HD
ENDBRANCH   1  12
BRANCH   1  16
ATOM     16  N   UNL     1      -3.661  -6.099  -4.260  0.00  0.00    -0.295 N 
ATOM     17  C   UNL     1      -3.977  -6.819  -5.354  0.00  0.00    +0.303 C 
ATOM     18  O   UNL     1      -5.100  -7.267  -5.484  0.00  0.00    -0.253 OA
ATOM     19  N   UNL     1      -3.048  -7.045  -6.304  0.00  0.00    -0.278 N 
ATOM     20  H   UNL     1      -2.788  -5.682  -4.189  0.00  0.00    +0.151 HD
BRANCH  19  21
ATOM     21  C   UNL     1      -1.667  -6.600  -6.099  0.00  0.00    +0.078 C 
ATOM     22  C   UNL     1      -0.718  -6.664  -7.297  0.00  0.00    +0.024 C 
ATOM     23  C   UNL     1      -0.568  -7.663  -6.148  0.00  0.00    +0.024 C 
ENDBRANCH  19  21
BRANCH  19  24
ATOM     24  C   UNL     1      -3.418  -7.734  -7.543  0.00  0.00    +0.145 C 
BRANCH  24  25
ATOM     25  C   UNL     1      -3.988  -6.739  -8.520  0.00  0.00    -0.023 A 
ATOM     26  C   UNL     1      -5.322  -6.380  -8.459  0.00  0.00    +0.013 A 
ATOM     27  C   UNL     1      -5.803  -5.482  -9.353  0.00  0.00    +0.045 A 
ATOM     28  S   UNL     1      -4.350  -5.114 -10.325  0.00  0.00    -0.105 S 
ATOM     29  C   UNL     1      -3.200  -6.178  -9.469  0.00  0.00    +0.050 A 
ENDBRANCH  24  25
ENDBRANCH  19  24
ENDBRANCH   1  16
TORSDOF 5
