REMARK  Name = ZINC63362462
REMARK  11 active torsions:
REMARK  status: ('A' for Active; 'I' for Inactive)
REMARK    1  A    between atoms: C_1  and  C_2
REMARK    2  A    between atoms: C_2  and  C_3
REMARK    3  A    between atoms: C_3  and  C_4
REMARK    4  A    between atoms: C_4  and  C_5
REMARK    5  A    between atoms: C_5  and  C_7
REMARK    6  A    between atoms: C_5  and  C_9
REMARK    7  A    between atoms: C_7  and  C_8
REMARK    8  A    between atoms: C_9  and  N_10
REMARK    9  A    between atoms: C_11  and  C_13
REMARK   10  A    between atoms: C_18  and  N_19
REMARK   11  A    between atoms: C_22  and  C_38
REMARK                            x       y       z     vdW  Elec       q    Type
REMARK                         _______ _______ _______ _____ _____    ______ ____
ROOT
ATOM      1  N   UNL     1      -4.216  -9.227  -0.845  0.00  0.00    -0.192 N 
ATOM      2  C   UNL     1      -3.547  -9.822   0.165  0.00  0.00    +0.253 C 
ATOM      3  O   UNL     1      -3.828  -9.799   1.344  0.00  0.00    -0.272 OA
ATOM      4  C   UNL     1      -2.374 -10.524  -0.482  0.00  0.00    +0.137 C 
ATOM      5  C   UNL     1      -1.054 -10.005   0.087  0.00  0.00    +0.139 C 
ATOM      6  C   UNL     1      -0.362  -9.219  -1.018  0.00  0.00    -0.034 C 
ATOM      7  C   UNL     1      -0.132  -8.006  -0.521  0.00  0.00    -0.001 A 
ATOM      8  C   UNL     1       0.559  -6.835  -1.086  0.00  0.00    +0.010 A 
ATOM      9  C   UNL     1       0.606  -5.730  -0.296  0.00  0.00    +0.001 A 
ATOM     10  C   UNL     1       0.042  -5.673   0.982  0.00  0.00    +0.002 A 
ATOM     11  C   UNL     1      -0.608  -6.703   1.580  0.00  0.00    +0.026 A 
ATOM     12  C   UNL     1      -0.718  -7.922   0.850  0.00  0.00    +0.043 A 
ATOM     13  N   UNL     1      -1.266  -9.067   1.191  0.00  0.00    -0.375 N 
ATOM     14  C   UNL     1      -0.100  -9.769  -2.398  0.00  0.00    +0.052 C 
ATOM     15  C   UNL     1      -1.435 -10.341  -2.916  0.00  0.00    +0.115 C 
ATOM     16  N   UNL     1      -2.457 -10.096  -1.893  0.00  0.00    -0.268 N 
ATOM     17  C   UNL     1      -3.609  -9.423  -2.023  0.00  0.00    +0.317 C 
ATOM     18  O   UNL     1      -4.049  -9.032  -3.086  0.00  0.00    -0.252 OA
ATOM     19  C   UNL     1      -2.493 -12.044  -0.351  0.00  0.00    +0.044 C 
ATOM     20  H   UNL     1      -1.732  -9.262   2.019  0.00  0.00    +0.160 HD
ENDROOT
BRANCH   1  26
ATOM     21  C   UNL     1      -5.351  -7.123  -0.436  0.00  0.00    +0.059 A 
ATOM     22  C   UNL     1      -6.540  -6.408  -0.281  0.00  0.00    +0.015 A 
ATOM     23  C   UNL     1      -7.751  -7.061  -0.365  0.00  0.00    +0.001 A 
ATOM     24  C   UNL     1      -7.794  -8.425  -0.603  0.00  0.00    +0.002 A 
ATOM     25  C   UNL     1      -6.626  -9.145  -0.758  0.00  0.00    +0.025 A 
ATOM     26  C   UNL     1      -5.399  -8.502  -0.683  0.00  0.00    +0.058 A 
BRANCH  21  28
ATOM     27  N   UNL     1      -4.010  -5.103  -0.111  0.00  0.00    -0.311 N 
ATOM     28  C   UNL     1      -4.051  -6.429  -0.348  0.00  0.00    +0.246 C 
ATOM     29  O   UNL     1      -3.018  -7.054  -0.489  0.00  0.00    -0.270 OA
ATOM     30  H   UNL     1      -4.834  -4.604   0.001  0.00  0.00    +0.149 HD
BRANCH  27  31
ATOM     31  C   UNL     1      -2.720  -4.415  -0.024  0.00  0.00    +0.108 C 
BRANCH  31  32
ATOM     32  C   UNL     1      -2.954  -2.909   0.122  0.00  0.00    +0.006 C 
BRANCH  32  33
ATOM     33  C   UNL     1      -3.603  -2.368  -1.153  0.00  0.00    +0.002 C 
ATOM     34  C   UNL     1      -2.656  -2.579  -2.336  0.00  0.00    +0.004 C 
ENDBRANCH  32  33
BRANCH  32  35
ATOM     35  C   UNL     1      -1.615  -2.205   0.351  0.00  0.00    +0.005 C 
BRANCH  35  36
ATOM     36  C   UNL     1      -1.860  -0.719   0.621  0.00  0.00    +0.000 C 
BRANCH  36  38
ATOM     37  C   UNL     1      -0.766   1.471   1.120  0.00  0.00    +0.004 C 
ATOM     38  C   UNL     1      -0.521  -0.015   0.851  0.00  0.00    -0.003 C 
ENDBRANCH  36  38
ENDBRANCH  35  36
ENDBRANCH  32  35
ENDBRANCH  31  32
ENDBRANCH  27  31
ENDBRANCH  21  28
ENDBRANCH   1  26
TORSDOF 8
