REMARK  Name = ZINC24722805
REMARK  6 active torsions:
REMARK  status: ('A' for Active; 'I' for Inactive)
REMARK    1  A    between atoms: C_4  and  C_7
REMARK    2  A    between atoms: C_7  and  C_8
REMARK    3  A    between atoms: C_8  and  C_10
REMARK    4  A    between atoms: C_8  and  N_16
REMARK    5  A    between atoms: C_17  and  C_19
REMARK    6  A    between atoms: C_19  and  N_20
REMARK                            x       y       z     vdW  Elec       q    Type
REMARK                         _______ _______ _______ _____ _____    ______ ____
ROOT
ATOM      1  N   UNL     1      -0.011   0.966   0.007  0.00  0.00    -0.307 N 
ATOM      2  C   UNL     1       1.147   1.655   0.000  0.00  0.00    +0.231 C 
ATOM      3  O   UNL     1       1.130   2.868   0.007  0.00  0.00    -0.274 OA
ATOM      4  H   UNL     1       0.004  -0.134   0.006  0.00  0.00    +0.149 HD
ENDROOT
BRANCH   1   5
ATOM      5  C   UNL     1      -1.290   1.681   0.017  0.00  0.00    +0.107 C 
BRANCH   5   6
ATOM      6  C   UNL     1      -1.661   2.027   1.436  0.00  0.00    -0.027 A 
ATOM      7  C   UNL     1      -1.441   1.113   2.450  0.00  0.00    +0.005 A 
ATOM      8  C   UNL     1      -1.777   1.432   3.753  0.00  0.00    +0.000 A 
ATOM      9  C   UNL     1      -2.343   2.660   4.040  0.00  0.00    +0.000 A 
ATOM     10  C   UNL     1      -2.567   3.572   3.025  0.00  0.00    +0.000 A 
ATOM     11  C   UNL     1      -2.226   3.255   1.723  0.00  0.00    +0.005 A 
ENDBRANCH   5   6
BRANCH   5  12
ATOM     12  C   UNL     1      -2.376   0.792  -0.592  0.00  0.00    +0.062 C 
BRANCH  12  16
ATOM     13  C   UNL     1      -1.501   0.099  -4.715  0.00  0.00    +0.000 A 
ATOM     14  C   UNL     1      -1.013  -0.763  -3.751  0.00  0.00    +0.000 A 
ATOM     15  C   UNL     1      -1.296  -0.538  -2.416  0.00  0.00    +0.004 A 
ATOM     16  C   UNL     1      -2.067   0.548  -2.047  0.00  0.00    -0.045 A 
ATOM     17  C   UNL     1      -2.560   1.406  -3.012  0.00  0.00    +0.004 A 
ATOM     18  C   UNL     1      -2.273   1.184  -4.346  0.00  0.00    +0.000 A 
ENDBRANCH  12  16
ENDBRANCH   5  12
ENDBRANCH   1   5
BRANCH   2  19
ATOM     19  C   UNL     1       2.462   0.920  -0.017  0.00  0.00    +0.213 C 
BRANCH  19  20
ATOM     20  N   UNL     1       3.562   1.887  -0.022  0.00  0.00    -0.215 N 
ATOM     21  C   UNL     1       4.125   2.389  -1.141  0.00  0.00    +0.252 C 
ATOM     22  O   UNL     1       3.828   2.137  -2.288  0.00  0.00    -0.272 OA
ATOM     23  C   UNL     1       5.202   3.335  -0.661  0.00  0.00    +0.144 C 
ATOM     24  C   UNL     1       6.569   2.871  -1.153  0.00  0.00    +0.081 C 
ATOM     25  C   UNL     1       7.587   3.984  -0.869  0.00  0.00    +0.232 C 
ATOM     26  O   UNL     1       7.224   5.135  -1.633  0.00  0.00    -0.492 OA
ATOM     27  C   UNL     1       5.936   5.560  -1.576  0.00  0.00    +0.126 A 
ATOM     28  C   UNL     1       4.918   4.737  -1.121  0.00  0.00    +0.027 A 
ATOM     29  C   UNL     1       3.617   5.208  -1.085  0.00  0.00    +0.010 A 
ATOM     30  C   UNL     1       3.329   6.495  -1.498  0.00  0.00    +0.001 A 
ATOM     31  C   UNL     1       4.343   7.319  -1.949  0.00  0.00    +0.004 A 
ATOM     32  C   UNL     1       5.642   6.855  -1.989  0.00  0.00    +0.046 A 
ATOM     33  N   UNL     1       5.127   3.249   0.803  0.00  0.00    -0.281 N 
ATOM     34  C   UNL     1       4.138   2.377   1.083  0.00  0.00    +0.310 C 
ATOM     35  O   UNL     1       3.807   2.071   2.211  0.00  0.00    -0.252 OA
ATOM     36  H   UNL     1       5.812   3.843   1.425  0.00  0.00    +0.152 HD
ENDBRANCH  19  20
ENDBRANCH   2  19
TORSDOF 6
